MODEL 1
REMARK VINA RESULT:     -10.9      0.000      0.000
REMARK  Name = 5288260
REMARK  6 active torsions:
REMARK  status: ('A' for Active; 'I' for Inactive)
REMARK    1  A    between atoms: C_1  and  N_7
REMARK    2  A    between atoms: C_2  and  N_15
REMARK    3  A    between atoms: N_7  and  C_9
REMARK    4  A    between atoms: N_15  and  C_17
REMARK    5  A    between atoms: C_18  and  C_23
REMARK    6  A    between atoms: C_18  and  C_26
REMARK                            x       y       z     vdW  Elec       q    Type
REMARK                         _______ _______ _______ _____ _____    ______ ____
ROOT
ATOM      1  C   UNL     1      34.981 -20.078 -20.688  0.00  0.00    +0.048 C 
ATOM      2  C   UNL     1      33.584 -21.897 -19.096  0.00  0.00    +0.048 C 
ATOM      3  C   UNL     1      35.673 -21.050 -19.964  0.00  0.00    +0.016 C 
ATOM      4  C   UNL     1      33.588 -20.017 -20.614  0.00  0.00    +0.016 C 
ATOM      5  C   UNL     1      34.975 -21.958 -19.169  0.00  0.00    +0.016 C 
ATOM      6  C   UNL     1      32.890 -20.926 -19.818  0.00  0.00    +0.016 C 
ENDROOT
BRANCH   1   7
ATOM      7  N   UNL     1      35.685 -19.159 -21.491  0.00  0.00    -0.313 N 
ATOM      8  H   UNL     1      36.615 -19.014 -21.202  0.00  0.00    +0.152 HD
BRANCH   7   9
ATOM      9  C   UNL     1      35.319 -18.407 -22.627  0.00  0.00    +0.048 C 
ATOM     10  C   UNL     1      35.004 -19.055 -23.821  0.00  0.00    +0.015 C 
ATOM     11  C   UNL     1      35.272 -17.015 -22.556  0.00  0.00    +0.015 C 
ATOM     12  C   UNL     1      34.641 -18.312 -24.943  0.00  0.00    +0.001 C 
ATOM     13  C   UNL     1      34.909 -16.270 -23.678  0.00  0.00    +0.001 C 
ATOM     14  C   UNL     1      34.594 -16.919 -24.873  0.00  0.00    +0.000 C 
ENDBRANCH   7   9
ENDBRANCH   1   7
BRANCH   2  15
ATOM     15  N   UNL     1      32.878 -22.816 -18.292  0.00  0.00    -0.310 N 
ATOM     16  H   UNL     1      32.171 -23.327 -18.748  0.00  0.00    +0.152 HD
BRANCH  15  17
ATOM     17  C   UNL     1      33.045 -23.090 -16.979  0.00  0.00    +0.083 C 
ATOM     18  C   UNL     1      32.122 -23.310 -16.025  0.00  0.00    +0.148 C 
BRANCH  18  23
ATOM     19  N   UNL     1      29.822 -24.120 -15.747  0.00  0.00    -0.109 NA
ATOM     20  N   UNL     1      30.201 -22.303 -17.045  0.00  0.00    -0.086 NA
ATOM     21  N   UNL     1      28.715 -23.597 -16.292  0.00  0.00    -0.140 N 
ATOM     22  N   UNL     1      28.892 -22.519 -17.070  0.00  0.00    -0.022 NA
ATOM     23  C   UNL     1      30.700 -23.274 -16.252  0.00  0.00    +0.085 C 
ATOM     24  H   UNL     1      27.823 -23.983 -16.132  0.00  0.00    +0.197 HD
ENDBRANCH  18  23
BRANCH  18  26
ATOM     25  N   UNL     1      32.921 -23.830 -13.617  0.00  0.00    -0.190 NA
ATOM     26  C   UNL     1      32.565 -23.598 -14.696  0.00  0.00    +0.112 C 
ENDBRANCH  18  26
ENDBRANCH  15  17
ENDBRANCH   2  15
TORSDOF 6
ENDMDL
MODEL 2
REMARK VINA RESULT:     -10.9      0.078      1.426
REMARK  Name = 5288260
REMARK  6 active torsions:
REMARK  status: ('A' for Active; 'I' for Inactive)
REMARK    1  A    between atoms: C_1  and  N_7
REMARK    2  A    between atoms: C_2  and  N_15
REMARK    3  A    between atoms: N_7  and  C_9
REMARK    4  A    between atoms: N_15  and  C_17
REMARK    5  A    between atoms: C_18  and  C_23
REMARK    6  A    between atoms: C_18  and  C_26
REMARK                            x       y       z     vdW  Elec       q    Type
REMARK                         _______ _______ _______ _____ _____    ______ ____
ROOT
ATOM      1  C   UNL     1      34.948 -20.101 -20.684  0.00  0.00    +0.048 C 
ATOM      2  C   UNL     1      33.521 -21.885 -19.080  0.00  0.00    +0.048 C 
ATOM      3  C   UNL     1      33.556 -20.022 -20.617  0.00  0.00    +0.016 C 
ATOM      4  C   UNL     1      35.625 -21.075 -19.947  0.00  0.00    +0.016 C 
ATOM      5  C   UNL     1      32.843 -20.914 -19.816  0.00  0.00    +0.016 C 
ATOM      6  C   UNL     1      34.912 -21.966 -19.145  0.00  0.00    +0.016 C 
ENDROOT
BRANCH   1   7
ATOM      7  N   UNL     1      35.669 -19.201 -21.493  0.00  0.00    -0.313 N 
ATOM      8  H   UNL     1      36.614 -19.107 -21.235  0.00  0.00    +0.152 HD
BRANCH   7   9
ATOM      9  C   UNL     1      35.303 -18.407 -22.600  0.00  0.00    +0.048 C 
ATOM     10  C   UNL     1      35.306 -17.017 -22.492  0.00  0.00    +0.015 C 
ATOM     11  C   UNL     1      34.938 -19.013 -23.803  0.00  0.00    +0.015 C 
ATOM     12  C   UNL     1      34.947 -16.232 -23.587  0.00  0.00    +0.001 C 
ATOM     13  C   UNL     1      34.577 -18.228 -24.898  0.00  0.00    +0.001 C 
ATOM     14  C   UNL     1      34.581 -16.836 -24.790  0.00  0.00    +0.000 C 
ENDBRANCH   7   9
ENDBRANCH   1   7
BRANCH   2  15
ATOM     15  N   UNL     1      32.800 -22.787 -18.270  0.00  0.00    -0.310 N 
ATOM     16  H   UNL     1      32.080 -23.284 -18.721  0.00  0.00    +0.152 HD
BRANCH  15  17
ATOM     17  C   UNL     1      32.966 -23.060 -16.957  0.00  0.00    +0.083 C 
ATOM     18  C   UNL     1      32.043 -23.283 -16.004  0.00  0.00    +0.148 C 
BRANCH  18  23
ATOM     19  N   UNL     1      29.744 -24.095 -15.717  0.00  0.00    -0.109 NA
ATOM     20  N   UNL     1      30.121 -22.294 -17.037  0.00  0.00    -0.086 NA
ATOM     21  N   UNL     1      28.636 -23.581 -16.270  0.00  0.00    -0.140 N 
ATOM     22  N   UNL     1      28.813 -22.512 -17.060  0.00  0.00    -0.022 NA
ATOM     23  C   UNL     1      30.621 -23.254 -16.232  0.00  0.00    +0.085 C 
ATOM     24  H   UNL     1      27.745 -23.966 -16.105  0.00  0.00    +0.197 HD
ENDBRANCH  18  23
BRANCH  18  26
ATOM     25  N   UNL     1      32.847 -23.806 -13.597  0.00  0.00    -0.190 NA
ATOM     26  C   UNL     1      32.486 -23.570 -14.675  0.00  0.00    +0.112 C 
ENDBRANCH  18  26
ENDBRANCH  15  17
ENDBRANCH   2  15
TORSDOF 6
ENDMDL
MODEL 3
REMARK VINA RESULT:     -10.6      1.777      3.196
REMARK  Name = 5288260
REMARK  6 active torsions:
REMARK  status: ('A' for Active; 'I' for Inactive)
REMARK    1  A    between atoms: C_1  and  N_7
REMARK    2  A    between atoms: C_2  and  N_15
REMARK    3  A    between atoms: N_7  and  C_9
REMARK    4  A    between atoms: N_15  and  C_17
REMARK    5  A    between atoms: C_18  and  C_23
REMARK    6  A    between atoms: C_18  and  C_26
REMARK                            x       y       z     vdW  Elec       q    Type
REMARK                         _______ _______ _______ _____ _____    ______ ____
ROOT
ATOM      1  C   UNL     1      35.098 -19.836 -20.751  0.00  0.00    +0.048 C 
ATOM      2  C   UNL     1      34.092 -22.016 -19.326  0.00  0.00    +0.048 C 
ATOM      3  C   UNL     1      35.969 -20.793 -20.229  0.00  0.00    +0.016 C 
ATOM      4  C   UNL     1      33.721 -19.971 -20.559  0.00  0.00    +0.016 C 
ATOM      5  C   UNL     1      35.466 -21.882 -19.517  0.00  0.00    +0.016 C 
ATOM      6  C   UNL     1      33.219 -21.060 -19.846  0.00  0.00    +0.016 C 
ENDROOT
BRANCH   1   7
ATOM      7  N   UNL     1      35.604 -18.736 -21.470  0.00  0.00    -0.313 N 
ATOM      8  H   UNL     1      36.377 -18.304 -21.039  0.00  0.00    +0.152 HD
BRANCH   7   9
ATOM      9  C   UNL     1      35.222 -18.131 -22.686  0.00  0.00    +0.048 C 
ATOM     10  C   UNL     1      34.878 -18.923 -23.781  0.00  0.00    +0.015 C 
ATOM     11  C   UNL     1      35.187 -16.741 -22.792  0.00  0.00    +0.015 C 
ATOM     12  C   UNL     1      34.498 -18.325 -24.982  0.00  0.00    +0.001 C 
ATOM     13  C   UNL     1      34.808 -16.142 -23.993  0.00  0.00    +0.001 C 
ATOM     14  C   UNL     1      34.463 -16.935 -25.090  0.00  0.00    +0.000 C 
ENDBRANCH   7   9
ENDBRANCH   1   7
BRANCH   2  15
ATOM     15  N   UNL     1      33.583 -23.117 -18.606  0.00  0.00    -0.310 N 
ATOM     16  H   UNL     1      33.661 -23.990 -19.051  0.00  0.00    +0.152 HD
BRANCH  15  17
ATOM     17  C   UNL     1      33.005 -23.132 -17.384  0.00  0.00    +0.083 C 
ATOM     18  C   UNL     1      33.557 -23.350 -16.177  0.00  0.00    +0.148 C 
BRANCH  18  23
ATOM     19  N   UNL     1      35.953 -22.828 -16.246  0.00  0.00    -0.109 NA
ATOM     20  N   UNL     1      35.285 -24.835 -15.437  0.00  0.00    -0.086 NA
ATOM     21  N   UNL     1      36.959 -23.618 -15.846  0.00  0.00    -0.140 N 
ATOM     22  N   UNL     1      36.610 -24.818 -15.359  0.00  0.00    -0.022 NA
ATOM     23  C   UNL     1      34.951 -23.639 -15.965  0.00  0.00    +0.085 C 
ATOM     24  H   UNL     1      37.901 -23.335 -15.907  0.00  0.00    +0.197 HD
ENDBRANCH  18  23
BRANCH  18  26
ATOM     25  N   UNL     1      32.033 -23.248 -14.084  0.00  0.00    -0.190 NA
ATOM     26  C   UNL     1      32.717 -23.295 -15.020  0.00  0.00    +0.112 C 
ENDBRANCH  18  26
ENDBRANCH  15  17
ENDBRANCH   2  15
TORSDOF 6
ENDMDL
MODEL 4
REMARK VINA RESULT:     -10.6      2.231      8.866
REMARK  Name = 5288260
REMARK  6 active torsions:
REMARK  status: ('A' for Active; 'I' for Inactive)
REMARK    1  A    between atoms: C_1  and  N_7
REMARK    2  A    between atoms: C_2  and  N_15
REMARK    3  A    between atoms: N_7  and  C_9
REMARK    4  A    between atoms: N_15  and  C_17
REMARK    5  A    between atoms: C_18  and  C_23
REMARK    6  A    between atoms: C_18  and  C_26
REMARK                            x       y       z     vdW  Elec       q    Type
REMARK                         _______ _______ _______ _____ _____    ______ ____
ROOT
ATOM      1  C   UNL     1      33.966 -22.028 -19.175  0.00  0.00    +0.048 C 
ATOM      2  C   UNL     1      35.161 -20.006 -20.684  0.00  0.00    +0.048 C 
ATOM      3  C   UNL     1      33.174 -21.102 -19.855  0.00  0.00    +0.016 C 
ATOM      4  C   UNL     1      35.358 -21.941 -19.251  0.00  0.00    +0.016 C 
ATOM      5  C   UNL     1      33.771 -20.092 -20.609  0.00  0.00    +0.016 C 
ATOM      6  C   UNL     1      35.955 -20.930 -20.005  0.00  0.00    +0.016 C 
ENDROOT
BRANCH   1   7
ATOM      7  N   UNL     1      33.364 -23.048 -18.413  0.00  0.00    -0.313 N 
ATOM      8  H   UNL     1      33.229 -23.886 -18.912  0.00  0.00    +0.152 HD
BRANCH   7   9
ATOM      9  C   UNL     1      32.917 -23.106 -17.077  0.00  0.00    +0.048 C 
ATOM     10  C   UNL     1      33.823 -23.362 -16.048  0.00  0.00    +0.015 C 
ATOM     11  C   UNL     1      31.568 -22.906 -16.784  0.00  0.00    +0.015 C 
ATOM     12  C   UNL     1      33.381 -23.417 -14.727  0.00  0.00    +0.001 C 
ATOM     13  C   UNL     1      31.125 -22.961 -15.463  0.00  0.00    +0.001 C 
ATOM     14  C   UNL     1      32.032 -23.217 -14.433  0.00  0.00    +0.000 C 
ENDBRANCH   7   9
ENDBRANCH   1   7
BRANCH   2  15
ATOM     15  N   UNL     1      35.764 -18.984 -21.447  0.00  0.00    -0.310 N 
ATOM     16  H   UNL     1      36.500 -18.501 -21.006  0.00  0.00    +0.152 HD
BRANCH  15  17
ATOM     17  C   UNL     1      35.467 -18.580 -22.702  0.00  0.00    +0.083 C 
ATOM     18  C   UNL     1      35.062 -17.375 -23.142  0.00  0.00    +0.148 C 
BRANCH  18  23
ATOM     19  N   UNL     1      34.544 -15.017 -22.702  0.00  0.00    -0.109 NA
ATOM     20  N   UNL     1      34.958 -16.399 -20.956  0.00  0.00    -0.086 NA
ATOM     21  N   UNL     1      34.473 -14.420 -21.503  0.00  0.00    -0.140 N 
ATOM     22  N   UNL     1      34.712 -15.202 -20.440  0.00  0.00    -0.022 NA
ATOM     23  C   UNL     1      34.846 -16.234 -22.290  0.00  0.00    +0.085 C 
ATOM     24  H   UNL     1      34.259 -13.464 -21.410  0.00  0.00    +0.197 HD
ENDBRANCH  18  23
BRANCH  18  26
ATOM     25  N   UNL     1      34.637 -17.057 -25.677  0.00  0.00    -0.190 NA
ATOM     26  C   UNL     1      34.826 -17.201 -24.542  0.00  0.00    +0.112 C 
ENDBRANCH  18  26
ENDBRANCH  15  17
ENDBRANCH   2  15
TORSDOF 6
ENDMDL
MODEL 5
REMARK VINA RESULT:     -10.3      2.296      8.794
REMARK  Name = 5288260
REMARK  6 active torsions:
REMARK  status: ('A' for Active; 'I' for Inactive)
REMARK    1  A    between atoms: C_1  and  N_7
REMARK    2  A    between atoms: C_2  and  N_15
REMARK    3  A    between atoms: N_7  and  C_9
REMARK    4  A    between atoms: N_15  and  C_17
REMARK    5  A    between atoms: C_18  and  C_23
REMARK    6  A    between atoms: C_18  and  C_26
REMARK                            x       y       z     vdW  Elec       q    Type
REMARK                         _______ _______ _______ _____ _____    ______ ____
ROOT
ATOM      1  C   UNL     1      33.984 -22.011 -19.181  0.00  0.00    +0.048 C 
ATOM      2  C   UNL     1      35.179 -19.927 -20.602  0.00  0.00    +0.048 C 
ATOM      3  C   UNL     1      35.374 -21.900 -19.222  0.00  0.00    +0.016 C 
ATOM      4  C   UNL     1      33.192 -21.077 -19.852  0.00  0.00    +0.016 C 
ATOM      5  C   UNL     1      35.971 -20.858 -19.932  0.00  0.00    +0.016 C 
ATOM      6  C   UNL     1      33.789 -20.035 -20.562  0.00  0.00    +0.016 C 
ENDROOT
BRANCH   1   7
ATOM      7  N   UNL     1      33.380 -23.062 -18.464  0.00  0.00    -0.313 N 
ATOM      8  H   UNL     1      33.176 -23.852 -19.016  0.00  0.00    +0.152 HD
BRANCH   7   9
ATOM      9  C   UNL     1      33.008 -23.206 -17.111  0.00  0.00    +0.048 C 
ATOM     10  C   UNL     1      33.980 -23.465 -16.145  0.00  0.00    +0.015 C 
ATOM     11  C   UNL     1      31.669 -23.089 -16.739  0.00  0.00    +0.015 C 
ATOM     12  C   UNL     1      33.613 -23.606 -14.807  0.00  0.00    +0.001 C 
ATOM     13  C   UNL     1      31.301 -23.230 -15.401  0.00  0.00    +0.001 C 
ATOM     14  C   UNL     1      32.274 -23.489 -14.434  0.00  0.00    +0.000 C 
ENDBRANCH   7   9
ENDBRANCH   1   7
BRANCH   2  15
ATOM     15  N   UNL     1      35.783 -18.874 -21.320  0.00  0.00    -0.310 N 
ATOM     16  H   UNL     1      36.561 -19.123 -21.869  0.00  0.00    +0.152 HD
BRANCH  15  17
ATOM     17  C   UNL     1      35.436 -17.568 -21.355  0.00  0.00    +0.083 C 
ATOM     18  C   UNL     1      34.958 -16.835 -22.377  0.00  0.00    +0.148 C 
BRANCH  18  23
ATOM     19  N   UNL     1      34.550 -18.617 -24.014  0.00  0.00    -0.109 NA
ATOM     20  N   UNL     1      34.700 -16.474 -24.731  0.00  0.00    -0.086 NA
ATOM     21  N   UNL     1      34.398 -18.472 -25.338  0.00  0.00    -0.140 N 
ATOM     22  N   UNL     1      34.480 -17.218 -25.808  0.00  0.00    -0.022 NA
ATOM     23  C   UNL     1      34.732 -17.347 -23.704  0.00  0.00    +0.085 C 
ATOM     24  H   UNL     1      34.237 -19.241 -25.932  0.00  0.00    +0.197 HD
ENDBRANCH  18  23
BRANCH  18  26
ATOM     25  N   UNL     1      34.397 -14.340 -21.961  0.00  0.00    -0.190 NA
ATOM     26  C   UNL     1      34.650 -15.457 -22.146  0.00  0.00    +0.112 C 
ENDBRANCH  18  26
ENDBRANCH  15  17
ENDBRANCH   2  15
TORSDOF 6
ENDMDL
MODEL 6
REMARK VINA RESULT:     -10.3      1.773      3.340
REMARK  Name = 5288260
REMARK  6 active torsions:
REMARK  status: ('A' for Active; 'I' for Inactive)
REMARK    1  A    between atoms: C_1  and  N_7
REMARK    2  A    between atoms: C_2  and  N_15
REMARK    3  A    between atoms: N_7  and  C_9
REMARK    4  A    between atoms: N_15  and  C_17
REMARK    5  A    between atoms: C_18  and  C_23
REMARK    6  A    between atoms: C_18  and  C_26
REMARK                            x       y       z     vdW  Elec       q    Type
REMARK                         _______ _______ _______ _____ _____    ______ ____
ROOT
ATOM      1  C   UNL     1      35.095 -19.714 -20.914  0.00  0.00    +0.048 C 
ATOM      2  C   UNL     1      34.141 -21.842 -19.381  0.00  0.00    +0.048 C 
ATOM      3  C   UNL     1      33.722 -19.929 -20.794  0.00  0.00    +0.016 C 
ATOM      4  C   UNL     1      35.991 -20.565 -20.265  0.00  0.00    +0.016 C 
ATOM      5  C   UNL     1      33.245 -20.992 -20.028  0.00  0.00    +0.016 C 
ATOM      6  C   UNL     1      35.514 -21.629 -19.498  0.00  0.00    +0.016 C 
ENDROOT
BRANCH   1   7
ATOM      7  N   UNL     1      35.578 -18.640 -21.687  0.00  0.00    -0.313 N 
ATOM      8  H   UNL     1      36.360 -18.870 -22.239  0.00  0.00    +0.152 HD
BRANCH   7   9
ATOM      9  C   UNL     1      35.161 -17.300 -21.826  0.00  0.00    +0.048 C 
ATOM     10  C   UNL     1      35.068 -16.726 -23.094  0.00  0.00    +0.015 C 
ATOM     11  C   UNL     1      34.842 -16.547 -20.696  0.00  0.00    +0.015 C 
ATOM     12  C   UNL     1      34.654 -15.402 -23.232  0.00  0.00    +0.001 C 
ATOM     13  C   UNL     1      34.429 -15.222 -20.833  0.00  0.00    +0.001 C 
ATOM     14  C   UNL     1      34.335 -14.649 -22.102  0.00  0.00    +0.000 C 
ENDBRANCH   7   9
ENDBRANCH   1   7
BRANCH   2  15
ATOM     15  N   UNL     1      33.658 -22.918 -18.606  0.00  0.00    -0.310 N 
ATOM     16  H   UNL     1      33.973 -23.811 -18.873  0.00  0.00    +0.152 HD
BRANCH  15  17
ATOM     17  C   UNL     1      32.822 -22.885 -17.545  0.00  0.00    +0.083 C 
ATOM     18  C   UNL     1      33.045 -23.240 -16.266  0.00  0.00    +0.148 C 
BRANCH  18  23
ATOM     19  N   UNL     1      34.427 -24.658 -14.815  0.00  0.00    -0.109 NA
ATOM     20  N   UNL     1      35.438 -23.320 -16.338  0.00  0.00    -0.086 NA
ATOM     21  N   UNL     1      35.764 -24.741 -14.813  0.00  0.00    -0.140 N 
ATOM     22  N   UNL     1      36.406 -23.966 -15.699  0.00  0.00    -0.022 NA
ATOM     23  C   UNL     1      34.294 -23.765 -15.778  0.00  0.00    +0.085 C 
ATOM     24  H   UNL     1      36.248 -25.337 -14.196  0.00  0.00    +0.197 HD
ENDBRANCH  18  23
BRANCH  18  26
ATOM     25  N   UNL     1      31.119 -22.973 -14.555  0.00  0.00    -0.190 NA
ATOM     26  C   UNL     1      31.983 -23.093 -15.320  0.00  0.00    +0.112 C 
ENDBRANCH  18  26
ENDBRANCH  15  17
ENDBRANCH   2  15
TORSDOF 6
ENDMDL
MODEL 7
REMARK VINA RESULT:     -10.1      3.135      5.844
REMARK  Name = 5288260
REMARK  6 active torsions:
REMARK  status: ('A' for Active; 'I' for Inactive)
REMARK    1  A    between atoms: C_1  and  N_7
REMARK    2  A    between atoms: C_2  and  N_15
REMARK    3  A    between atoms: N_7  and  C_9
REMARK    4  A    between atoms: N_15  and  C_17
REMARK    5  A    between atoms: C_18  and  C_23
REMARK    6  A    between atoms: C_18  and  C_26
REMARK                            x       y       z     vdW  Elec       q    Type
REMARK                         _______ _______ _______ _____ _____    ______ ____
ROOT
ATOM      1  C   UNL     1      33.106 -22.779 -17.577  0.00  0.00    +0.048 C 
ATOM      2  C   UNL     1      33.685 -23.970 -15.119  0.00  0.00    +0.048 C 
ATOM      3  C   UNL     1      32.078 -23.054 -16.673  0.00  0.00    +0.016 C 
ATOM      4  C   UNL     1      34.424 -23.101 -17.249  0.00  0.00    +0.016 C 
ATOM      5  C   UNL     1      32.368 -23.649 -15.446  0.00  0.00    +0.016 C 
ATOM      6  C   UNL     1      34.714 -23.696 -16.020  0.00  0.00    +0.016 C 
ENDROOT
BRANCH   1   7
ATOM      7  N   UNL     1      32.815 -22.178 -18.817  0.00  0.00    -0.313 N 
ATOM      8  H   UNL     1      31.950 -22.456 -19.198  0.00  0.00    +0.152 HD
BRANCH   7   9
ATOM      9  C   UNL     1      33.518 -21.258 -19.622  0.00  0.00    +0.048 C 
ATOM     10  C   UNL     1      32.822 -20.290 -20.345  0.00  0.00    +0.015 C 
ATOM     11  C   UNL     1      34.910 -21.316 -19.694  0.00  0.00    +0.015 C 
ATOM     12  C   UNL     1      33.518 -19.379 -21.139  0.00  0.00    +0.001 C 
ATOM     13  C   UNL     1      35.606 -20.405 -20.488  0.00  0.00    +0.001 C 
ATOM     14  C   UNL     1      34.909 -19.436 -21.211  0.00  0.00    +0.000 C 
ENDBRANCH   7   9
ENDBRANCH   1   7
BRANCH   2  15
ATOM     15  N   UNL     1      33.977 -24.572 -13.878  0.00  0.00    -0.310 N 
ATOM     16  H   UNL     1      33.596 -25.468 -13.738  0.00  0.00    +0.152 HD
BRANCH  15  17
ATOM     17  C   UNL     1      34.713 -24.082 -12.855  0.00  0.00    +0.083 C 
ATOM     18  C   UNL     1      36.049 -23.989 -12.727  0.00  0.00    +0.148 C 
BRANCH  18  23
ATOM     19  N   UNL     1      37.027 -25.645 -14.251  0.00  0.00    -0.109 NA
ATOM     20  N   UNL     1      37.921 -23.567 -14.161  0.00  0.00    -0.086 NA
ATOM     21  N   UNL     1      38.070 -25.463 -15.073  0.00  0.00    -0.140 N 
ATOM     22  N   UNL     1      38.633 -24.246 -15.052  0.00  0.00    -0.022 NA
ATOM     23  C   UNL     1      36.990 -24.437 -13.721  0.00  0.00    +0.085 C 
ATOM     24  H   UNL     1      38.406 -26.182 -15.656  0.00  0.00    +0.197 HD
ENDBRANCH  18  23
BRANCH  18  26
ATOM     25  N   UNL     1      37.021 -22.940 -10.567  0.00  0.00    -0.190 NA
ATOM     26  C   UNL     1      36.584 -23.408 -11.534  0.00  0.00    +0.112 C 
ENDBRANCH  18  26
ENDBRANCH  15  17
ENDBRANCH   2  15
TORSDOF 6
ENDMDL
MODEL 8
REMARK VINA RESULT:      -9.9      5.078     10.089
REMARK  Name = 5288260
REMARK  6 active torsions:
REMARK  status: ('A' for Active; 'I' for Inactive)
REMARK    1  A    between atoms: C_1  and  N_7
REMARK    2  A    between atoms: C_2  and  N_15
REMARK    3  A    between atoms: N_7  and  C_9
REMARK    4  A    between atoms: N_15  and  C_17
REMARK    5  A    between atoms: C_18  and  C_23
REMARK    6  A    between atoms: C_18  and  C_26
REMARK                            x       y       z     vdW  Elec       q    Type
REMARK                         _______ _______ _______ _____ _____    ______ ____
ROOT
ATOM      1  C   UNL     1      35.134 -17.409 -22.426  0.00  0.00    +0.048 C 
ATOM      2  C   UNL     1      33.991 -15.173 -23.645  0.00  0.00    +0.048 C 
ATOM      3  C   UNL     1      34.903 -17.404 -23.803  0.00  0.00    +0.016 C 
ATOM      4  C   UNL     1      34.793 -16.293 -21.660  0.00  0.00    +0.016 C 
ATOM      5  C   UNL     1      34.332 -16.287 -24.411  0.00  0.00    +0.016 C 
ATOM      6  C   UNL     1      34.222 -15.175 -22.269  0.00  0.00    +0.016 C 
ENDROOT
BRANCH   1   7
ATOM      7  N   UNL     1      35.711 -18.537 -21.811  0.00  0.00    -0.313 N 
ATOM      8  H   UNL     1      36.678 -18.625 -21.973  0.00  0.00    +0.152 HD
BRANCH   7   9
ATOM      9  C   UNL     1      35.176 -19.567 -21.009  0.00  0.00    +0.048 C 
ATOM     10  C   UNL     1      33.794 -19.719 -20.901  0.00  0.00    +0.015 C 
ATOM     11  C   UNL     1      36.029 -20.434 -20.326  0.00  0.00    +0.015 C 
ATOM     12  C   UNL     1      33.265 -20.738 -20.110  0.00  0.00    +0.001 C 
ATOM     13  C   UNL     1      35.500 -21.453 -19.534  0.00  0.00    +0.001 C 
ATOM     14  C   UNL     1      34.116 -21.606 -19.426  0.00  0.00    +0.000 C 
ENDBRANCH   7   9
ENDBRANCH   1   7
BRANCH   2  15
ATOM     15  N   UNL     1      33.414 -14.043 -24.260  0.00  0.00    -0.310 N 
ATOM     16  H   UNL     1      32.508 -14.171 -24.624  0.00  0.00    +0.152 HD
BRANCH  15  17
ATOM     17  C   UNL     1      33.937 -12.806 -24.416  0.00  0.00    +0.083 C 
ATOM     18  C   UNL     1      33.574 -11.644 -23.845  0.00  0.00    +0.148 C 
BRANCH  18  23
ATOM     19  N   UNL     1      31.900 -12.492 -22.263  0.00  0.00    -0.109 NA
ATOM     20  N   UNL     1      31.994 -10.268 -22.682  0.00  0.00    -0.086 NA
ATOM     21  N   UNL     1      30.995 -11.770 -21.587  0.00  0.00    -0.140 N 
ATOM     22  N   UNL     1      31.014 -10.447 -21.805  0.00  0.00    -0.022 NA
ATOM     23  C   UNL     1      32.481 -11.504 -22.917  0.00  0.00    +0.085 C 
ATOM     24  H   UNL     1      30.354 -12.187 -20.968  0.00  0.00    +0.197 HD
ENDBRANCH  18  23
BRANCH  18  26
ATOM     25  N   UNL     1      34.908  -9.504 -24.439  0.00  0.00    -0.190 NA
ATOM     26  C   UNL     1      34.310 -10.461 -24.171  0.00  0.00    +0.112 C 
ENDBRANCH  18  26
ENDBRANCH  15  17
ENDBRANCH   2  15
TORSDOF 6
ENDMDL
MODEL 9
REMARK VINA RESULT:      -9.9      5.143     10.603
REMARK  Name = 5288260
REMARK  6 active torsions:
REMARK  status: ('A' for Active; 'I' for Inactive)
REMARK    1  A    between atoms: C_1  and  N_7
REMARK    2  A    between atoms: C_2  and  N_15
REMARK    3  A    between atoms: N_7  and  C_9
REMARK    4  A    between atoms: N_15  and  C_17
REMARK    5  A    between atoms: C_18  and  C_23
REMARK    6  A    between atoms: C_18  and  C_26
REMARK                            x       y       z     vdW  Elec       q    Type
REMARK                         _______ _______ _______ _____ _____    ______ ____
ROOT
ATOM      1  C   UNL     1      35.306 -17.486 -21.882  0.00  0.00    +0.048 C 
ATOM      2  C   UNL     1      34.312 -15.178 -23.099  0.00  0.00    +0.048 C 
ATOM      3  C   UNL     1      35.227 -17.407 -23.273  0.00  0.00    +0.016 C 
ATOM      4  C   UNL     1      34.887 -16.408 -21.100  0.00  0.00    +0.016 C 
ATOM      5  C   UNL     1      34.730 -16.254 -23.881  0.00  0.00    +0.016 C 
ATOM      6  C   UNL     1      34.390 -15.254 -21.708  0.00  0.00    +0.016 C 
ENDROOT
BRANCH   1   7
ATOM      7  N   UNL     1      35.807 -18.650 -21.268  0.00  0.00    -0.313 N 
ATOM      8  H   UNL     1      36.790 -18.705 -21.269  0.00  0.00    +0.152 HD
BRANCH   7   9
ATOM      9  C   UNL     1      35.178 -19.752 -20.652  0.00  0.00    +0.048 C 
ATOM     10  C   UNL     1      35.947 -20.737 -20.033  0.00  0.00    +0.015 C 
ATOM     11  C   UNL     1      33.787 -19.857 -20.661  0.00  0.00    +0.015 C 
ATOM     12  C   UNL     1      35.325 -21.826 -19.422  0.00  0.00    +0.001 C 
ATOM     13  C   UNL     1      33.165 -20.945 -20.051  0.00  0.00    +0.001 C 
ATOM     14  C   UNL     1      33.935 -21.931 -19.431  0.00  0.00    +0.000 C 
ENDBRANCH   7   9
ENDBRANCH   1   7
BRANCH   2  15
ATOM     15  N   UNL     1      33.810 -14.012 -23.713  0.00  0.00    -0.310 N 
ATOM     16  H   UNL     1      34.048 -13.893 -24.661  0.00  0.00    +0.152 HD
BRANCH  15  17
ATOM     17  C   UNL     1      33.044 -13.037 -23.175  0.00  0.00    +0.083 C 
ATOM     18  C   UNL     1      33.092 -11.706 -23.365  0.00  0.00    +0.148 C 
BRANCH  18  23
ATOM     19  N   UNL     1      34.763  -9.989 -23.896  0.00  0.00    -0.109 NA
ATOM     20  N   UNL     1      34.225 -11.528 -25.468  0.00  0.00    -0.086 NA
ATOM     21  N   UNL     1      35.425  -9.844 -25.053  0.00  0.00    -0.140 N 
ATOM     22  N   UNL     1      35.138 -10.734 -26.013  0.00  0.00    -0.022 NA
ATOM     23  C   UNL     1      34.042 -11.045 -24.222  0.00  0.00    +0.085 C 
ATOM     24  H   UNL     1      36.084  -9.124 -25.189  0.00  0.00    +0.197 HD
ENDBRANCH  18  23
BRANCH  18  26
ATOM     25  N   UNL     1      31.376 -10.213 -22.124  0.00  0.00    -0.190 NA
ATOM     26  C   UNL     1      32.146 -10.882 -22.678  0.00  0.00    +0.112 C 
ENDBRANCH  18  26
ENDBRANCH  15  17
ENDBRANCH   2  15
TORSDOF 6
ENDMDL
