MODEL 1
REMARK VINA RESULT:      -8.1      0.000      0.000
REMARK  Name = 9794392
REMARK  0 active torsions:
REMARK  status: ('A' for Active; 'I' for Inactive)
REMARK                            x       y       z     vdW  Elec       q    Type
REMARK                         _______ _______ _______ _____ _____    ______ ____
ROOT
ATOM      1  O   UNL     1      36.000 -23.808 -15.985  0.00  0.00    -0.469 OA
ATOM      2  N   UNL     1      37.289 -26.535 -14.209  0.00  0.00    +0.389 N 
ATOM      3  N   UNL     1      34.284 -23.187 -17.508  0.00  0.00    -0.210 NA
ATOM      4  C   UNL     1      35.969 -24.440 -14.668  0.00  0.00    +0.120 C 
ATOM      5  C   UNL     1      37.208 -23.963 -13.865  0.00  0.00    +0.031 C 
ATOM      6  C   UNL     1      36.082 -25.981 -14.869  0.00  0.00    -0.036 C 
ATOM      7  C   UNL     1      37.237 -24.698 -12.514  0.00  0.00    -0.019 C 
ATOM      8  C   UNL     1      38.481 -24.382 -14.625  0.00  0.00    -0.019 C 
ATOM      9  C   UNL     1      37.239 -26.214 -12.767  0.00  0.00    -0.077 C 
ATOM     10  C   UNL     1      38.489 -25.907 -14.803  0.00  0.00    -0.077 C 
ATOM     11  C   UNL     1      34.641 -24.026 -13.985  0.00  0.00    +0.069 C 
ATOM     12  C   UNL     1      33.845 -23.684 -15.180  0.00  0.00    +0.034 C 
ATOM     13  C   UNL     1      34.669 -23.545 -16.274  0.00  0.00    +0.220 C 
ATOM     14  C   UNL     1      32.496 -23.438 -15.327  0.00  0.00    +0.002 C 
ATOM     15  C   UNL     1      32.033 -23.073 -16.590  0.00  0.00    +0.021 C 
ATOM     16  C   UNL     1      32.953 -22.961 -17.633  0.00  0.00    +0.102 C 
ATOM     17  H   UNL     1      37.325 -27.546 -14.338  0.00  0.00    -0.080 HD
ENDROOT
TORSDOF 0
ENDMDL
MODEL 2
REMARK VINA RESULT:      -7.5     14.858     17.687
REMARK  Name = 9794392
REMARK  0 active torsions:
REMARK  status: ('A' for Active; 'I' for Inactive)
REMARK                            x       y       z     vdW  Elec       q    Type
REMARK                         _______ _______ _______ _____ _____    ______ ____
ROOT
ATOM      1  O   UNL     1      32.339  -9.972 -22.081  0.00  0.00    -0.469 OA
ATOM      2  N   UNL     1      31.446  -7.082 -23.844  0.00  0.00    +0.389 N 
ATOM      3  N   UNL     1      32.004 -12.325 -22.017  0.00  0.00    -0.210 NA
ATOM      4  C   UNL     1      32.816  -9.071 -23.127  0.00  0.00    +0.120 C 
ATOM      5  C   UNL     1      33.499  -7.852 -22.453  0.00  0.00    +0.031 C 
ATOM      6  C   UNL     1      31.579  -8.557 -23.924  0.00  0.00    -0.036 C 
ATOM      7  C   UNL     1      33.917  -6.852 -23.544  0.00  0.00    -0.019 C 
ATOM      8  C   UNL     1      32.464  -7.135 -21.566  0.00  0.00    -0.019 C 
ATOM      9  C   UNL     1      32.680  -6.460 -24.367  0.00  0.00    -0.077 C 
ATOM     10  C   UNL     1      31.272  -6.695 -22.428  0.00  0.00    -0.077 C 
ATOM     11  C   UNL     1      33.803  -9.871 -24.015  0.00  0.00    +0.069 C 
ATOM     12  C   UNL     1      33.346 -11.243 -23.717  0.00  0.00    +0.034 C 
ATOM     13  C   UNL     1      32.546 -11.243 -22.597  0.00  0.00    +0.220 C 
ATOM     14  C   UNL     1      33.643 -12.445 -24.323  0.00  0.00    +0.002 C 
ATOM     15  C   UNL     1      33.100 -13.605 -23.773  0.00  0.00    +0.021 C 
ATOM     16  C   UNL     1      32.299 -13.494 -22.635  0.00  0.00    +0.102 C 
ATOM     17  H   UNL     1      30.642  -6.773 -24.391  0.00  0.00    -0.080 HD
ENDROOT
TORSDOF 0
ENDMDL
MODEL 3
REMARK VINA RESULT:      -7.5      1.858      2.720
REMARK  Name = 9794392
REMARK  0 active torsions:
REMARK  status: ('A' for Active; 'I' for Inactive)
REMARK                            x       y       z     vdW  Elec       q    Type
REMARK                         _______ _______ _______ _____ _____    ______ ____
ROOT
ATOM      1  O   UNL     1      34.674 -24.658 -13.042  0.00  0.00    -0.469 OA
ATOM      2  N   UNL     1      38.062 -23.862 -13.424  0.00  0.00    +0.389 N 
ATOM      3  N   UNL     1      32.500 -23.697 -13.008  0.00  0.00    -0.210 NA
ATOM      4  C   UNL     1      35.745 -24.640 -14.036  0.00  0.00    +0.120 C 
ATOM      5  C   UNL     1      36.578 -25.941 -13.886  0.00  0.00    +0.031 C 
ATOM      6  C   UNL     1      36.675 -23.430 -13.722  0.00  0.00    -0.036 C 
ATOM      7  C   UNL     1      37.765 -25.886 -14.860  0.00  0.00    -0.019 C 
ATOM      8  C   UNL     1      37.171 -25.987 -12.465  0.00  0.00    -0.019 C 
ATOM      9  C   UNL     1      38.588 -24.619 -14.579  0.00  0.00    -0.077 C 
ATOM     10  C   UNL     1      38.042 -24.744 -12.237  0.00  0.00    -0.077 C 
ATOM     11  C   UNL     1      35.083 -24.534 -15.433  0.00  0.00    +0.069 C 
ATOM     12  C   UNL     1      33.784 -23.949 -15.045  0.00  0.00    +0.034 C 
ATOM     13  C   UNL     1      33.595 -24.074 -13.688  0.00  0.00    +0.220 C 
ATOM     14  C   UNL     1      32.779 -23.394 -15.810  0.00  0.00    +0.002 C 
ATOM     15  C   UNL     1      31.621 -22.973 -15.159  0.00  0.00    +0.021 C 
ATOM     16  C   UNL     1      31.530 -23.145 -13.777  0.00  0.00    +0.102 C 
ATOM     17  H   UNL     1      38.651 -23.049 -13.244  0.00  0.00    -0.080 HD
ENDROOT
TORSDOF 0
ENDMDL
MODEL 4
REMARK VINA RESULT:      -7.4      8.373     10.688
REMARK  Name = 9794392
REMARK  0 active torsions:
REMARK  status: ('A' for Active; 'I' for Inactive)
REMARK                            x       y       z     vdW  Elec       q    Type
REMARK                         _______ _______ _______ _____ _____    ______ ____
ROOT
ATOM      1  O   UNL     1      34.110 -16.192 -23.015  0.00  0.00    -0.469 OA
ATOM      2  N   UNL     1      34.111 -19.523 -21.937  0.00  0.00    +0.389 N 
ATOM      3  N   UNL     1      32.737 -14.257 -23.170  0.00  0.00    -0.210 NA
ATOM      4  C   UNL     1      34.503 -17.035 -21.888  0.00  0.00    +0.120 C 
ATOM      5  C   UNL     1      35.892 -17.653 -22.198  0.00  0.00    +0.031 C 
ATOM      6  C   UNL     1      33.470 -18.196 -21.769  0.00  0.00    -0.036 C 
ATOM      7  C   UNL     1      36.271 -18.618 -21.062  0.00  0.00    -0.019 C 
ATOM      8  C   UNL     1      35.783 -18.498 -23.481  0.00  0.00    -0.019 C 
ATOM      9  C   UNL     1      35.168 -19.679 -20.916  0.00  0.00    -0.077 C 
ATOM     10  C   UNL     1      34.723 -19.591 -23.281  0.00  0.00    -0.077 C 
ATOM     11  C   UNL     1      34.536 -16.137 -20.625  0.00  0.00    +0.069 C 
ATOM     12  C   UNL     1      33.634 -15.056 -21.068  0.00  0.00    +0.034 C 
ATOM     13  C   UNL     1      33.453 -15.119 -22.431  0.00  0.00    +0.220 C 
ATOM     14  C   UNL     1      33.045 -14.027 -20.364  0.00  0.00    +0.002 C 
ATOM     15  C   UNL     1      32.278 -13.106 -21.076  0.00  0.00    +0.021 C 
ATOM     16  C   UNL     1      32.157 -13.261 -22.458  0.00  0.00    +0.102 C 
ATOM     17  H   UNL     1      33.416 -20.262 -21.832  0.00  0.00    -0.080 HD
ENDROOT
TORSDOF 0
ENDMDL
MODEL 5
REMARK VINA RESULT:      -7.3      1.211      1.395
REMARK  Name = 9794392
REMARK  0 active torsions:
REMARK  status: ('A' for Active; 'I' for Inactive)
REMARK                            x       y       z     vdW  Elec       q    Type
REMARK                         _______ _______ _______ _____ _____    ______ ____
ROOT
ATOM      1  O   UNL     1      36.980 -23.259 -15.428  0.00  0.00    -0.469 OA
ATOM      2  N   UNL     1      37.888 -26.288 -13.925  0.00  0.00    +0.389 N 
ATOM      3  N   UNL     1      36.144 -22.330 -17.450  0.00  0.00    -0.210 NA
ATOM      4  C   UNL     1      36.471 -24.297 -14.534  0.00  0.00    +0.120 C 
ATOM      5  C   UNL     1      36.979 -24.002 -13.098  0.00  0.00    +0.031 C 
ATOM      6  C   UNL     1      37.066 -25.663 -14.989  0.00  0.00    -0.036 C 
ATOM      7  C   UNL     1      36.529 -25.141 -12.168  0.00  0.00    -0.019 C 
ATOM      8  C   UNL     1      38.519 -24.017 -13.106  0.00  0.00    -0.019 C 
ATOM      9  C   UNL     1      37.051 -26.477 -12.721  0.00  0.00    -0.077 C 
ATOM     10  C   UNL     1      39.012 -25.385 -13.597  0.00  0.00    -0.077 C 
ATOM     11  C   UNL     1      34.923 -24.265 -14.619  0.00  0.00    +0.069 C 
ATOM     12  C   UNL     1      34.762 -23.620 -15.937  0.00  0.00    +0.034 C 
ATOM     13  C   UNL     1      35.949 -23.043 -16.330  0.00  0.00    +0.220 C 
ATOM     14  C   UNL     1      33.651 -23.469 -16.739  0.00  0.00    +0.002 C 
ATOM     15  C   UNL     1      33.794 -22.747 -17.923  0.00  0.00    +0.021 C 
ATOM     16  C   UNL     1      35.043 -22.204 -18.228  0.00  0.00    +0.102 C 
ATOM     17  H   UNL     1      38.245 -27.189 -14.243  0.00  0.00    -0.080 HD
ENDROOT
TORSDOF 0
ENDMDL
MODEL 6
REMARK VINA RESULT:      -7.2      1.907      2.892
REMARK  Name = 9794392
REMARK  0 active torsions:
REMARK  status: ('A' for Active; 'I' for Inactive)
REMARK                            x       y       z     vdW  Elec       q    Type
REMARK                         _______ _______ _______ _____ _____    ______ ____
ROOT
ATOM      1  O   UNL     1      35.692 -24.349 -15.210  0.00  0.00    -0.469 OA
ATOM      2  N   UNL     1      36.878 -23.660 -11.989  0.00  0.00    +0.389 N 
ATOM      3  N   UNL     1      34.489 -23.395 -17.024  0.00  0.00    -0.210 NA
ATOM      4  C   UNL     1      36.894 -23.929 -14.494  0.00  0.00    +0.120 C 
ATOM      5  C   UNL     1      37.611 -25.194 -13.951  0.00  0.00    +0.031 C 
ATOM      6  C   UNL     1      36.453 -23.061 -13.277  0.00  0.00    -0.036 C 
ATOM      7  C   UNL     1      38.824 -24.756 -13.113  0.00  0.00    -0.019 C 
ATOM      8  C   UNL     1      36.654 -25.932 -12.996  0.00  0.00    -0.019 C 
ATOM      9  C   UNL     1      38.348 -23.816 -11.993  0.00  0.00    -0.077 C 
ATOM     10  C   UNL     1      36.250 -24.991 -11.852  0.00  0.00    -0.077 C 
ATOM     11  C   UNL     1      37.781 -23.144 -15.494  0.00  0.00    +0.069 C 
ATOM     12  C   UNL     1      36.751 -22.736 -16.469  0.00  0.00    +0.034 C 
ATOM     13  C   UNL     1      35.603 -23.471 -16.280  0.00  0.00    +0.220 C 
ATOM     14  C   UNL     1      36.800 -21.833 -17.509  0.00  0.00    +0.002 C 
ATOM     15  C   UNL     1      35.668 -21.700 -18.312  0.00  0.00    +0.021 C 
ATOM     16  C   UNL     1      34.554 -22.493 -18.034  0.00  0.00    +0.102 C 
ATOM     17  H   UNL     1      36.596 -23.059 -11.214  0.00  0.00    -0.080 HD
ENDROOT
TORSDOF 0
ENDMDL
MODEL 7
REMARK VINA RESULT:      -7.1      8.737     11.205
REMARK  Name = 9794392
REMARK  0 active torsions:
REMARK  status: ('A' for Active; 'I' for Inactive)
REMARK                            x       y       z     vdW  Elec       q    Type
REMARK                         _______ _______ _______ _____ _____    ______ ____
ROOT
ATOM      1  O   UNL     1      33.127 -16.517 -21.954  0.00  0.00    -0.469 OA
ATOM      2  N   UNL     1      35.943 -18.304 -20.889  0.00  0.00    +0.389 N 
ATOM      3  N   UNL     1      32.049 -14.406 -21.772  0.00  0.00    -0.210 NA
ATOM      4  C   UNL     1      34.469 -16.907 -22.379  0.00  0.00    +0.120 C 
ATOM      5  C   UNL     1      34.400 -18.337 -22.977  0.00  0.00    +0.031 C 
ATOM      6  C   UNL     1      35.383 -16.950 -21.118  0.00  0.00    -0.036 C 
ATOM      7  C   UNL     1      35.824 -18.793 -23.338  0.00  0.00    -0.019 C 
ATOM      8  C   UNL     1      33.886 -19.302 -21.891  0.00  0.00    -0.019 C 
ATOM      9  C   UNL     1      36.710 -18.715 -22.084  0.00  0.00    -0.077 C 
ATOM     10  C   UNL     1      34.828 -19.252 -20.680  0.00  0.00    -0.077 C 
ATOM     11  C   UNL     1      34.947 -15.865 -23.423  0.00  0.00    +0.069 C 
ATOM     12  C   UNL     1      34.078 -14.730 -23.054  0.00  0.00    +0.034 C 
ATOM     13  C   UNL     1      33.050 -15.164 -22.247  0.00  0.00    +0.220 C 
ATOM     14  C   UNL     1      34.113 -13.405 -23.432  0.00  0.00    +0.002 C 
ATOM     15  C   UNL     1      33.106 -12.564 -22.961  0.00  0.00    +0.021 C 
ATOM     16  C   UNL     1      32.110 -13.105 -22.147  0.00  0.00    +0.102 C 
ATOM     17  H   UNL     1      36.553 -18.297 -20.071  0.00  0.00    -0.080 HD
ENDROOT
TORSDOF 0
ENDMDL
MODEL 8
REMARK VINA RESULT:      -7.1      2.151      2.996
REMARK  Name = 9794392
REMARK  0 active torsions:
REMARK  status: ('A' for Active; 'I' for Inactive)
REMARK                            x       y       z     vdW  Elec       q    Type
REMARK                         _______ _______ _______ _____ _____    ______ ____
ROOT
ATOM      1  O   UNL     1      33.909 -25.196 -13.862  0.00  0.00    -0.469 OA
ATOM      2  N   UNL     1      36.942 -23.709 -12.942  0.00  0.00    +0.389 N 
ATOM      3  N   UNL     1      31.569 -25.129 -13.446  0.00  0.00    -0.210 NA
ATOM      4  C   UNL     1      34.865 -24.177 -14.289  0.00  0.00    +0.120 C 
ATOM      5  C   UNL     1      36.012 -24.873 -15.067  0.00  0.00    +0.031 C 
ATOM      6  C   UNL     1      35.473 -23.520 -13.013  0.00  0.00    -0.036 C 
ATOM      7  C   UNL     1      37.072 -23.822 -15.436  0.00  0.00    -0.019 C 
ATOM      8  C   UNL     1      36.698 -25.888 -14.133  0.00  0.00    -0.019 C 
ATOM      9  C   UNL     1      37.560 -23.129 -14.154  0.00  0.00    -0.077 C 
ATOM     10  C   UNL     1      37.235 -25.157 -12.895  0.00  0.00    -0.077 C 
ATOM     11  C   UNL     1      34.098 -23.161 -15.172  0.00  0.00    +0.069 C 
ATOM     12  C   UNL     1      32.724 -23.402 -14.689  0.00  0.00    +0.034 C 
ATOM     13  C   UNL     1      32.672 -24.580 -13.980  0.00  0.00    +0.220 C 
ATOM     14  C   UNL     1      31.558 -22.694 -14.892  0.00  0.00    +0.002 C 
ATOM     15  C   UNL     1      30.381 -23.208 -14.351  0.00  0.00    +0.021 C 
ATOM     16  C   UNL     1      30.437 -24.412 -13.647  0.00  0.00    +0.102 C 
ATOM     17  H   UNL     1      37.314 -23.250 -12.110  0.00  0.00    -0.080 HD
ENDROOT
TORSDOF 0
ENDMDL
MODEL 9
REMARK VINA RESULT:      -7.0      3.811      5.573
REMARK  Name = 9794392
REMARK  0 active torsions:
REMARK  status: ('A' for Active; 'I' for Inactive)
REMARK                            x       y       z     vdW  Elec       q    Type
REMARK                         _______ _______ _______ _____ _____    ______ ____
ROOT
ATOM      1  O   UNL     1      31.720 -23.294 -17.422  0.00  0.00    -0.469 OA
ATOM      2  N   UNL     1      30.203 -22.832 -14.301  0.00  0.00    +0.389 N 
ATOM      3  N   UNL     1      33.112 -22.220 -19.022  0.00  0.00    -0.210 NA
ATOM      4  C   UNL     1      31.897 -23.593 -16.002  0.00  0.00    +0.120 C 
ATOM      5  C   UNL     1      31.076 -24.864 -15.661  0.00  0.00    +0.031 C 
ATOM      6  C   UNL     1      31.315 -22.402 -15.182  0.00  0.00    -0.036 C 
ATOM      7  C   UNL     1      31.177 -25.130 -14.150  0.00  0.00    -0.019 C 
ATOM      8  C   UNL     1      29.591 -24.589 -15.965  0.00  0.00    -0.019 C 
ATOM      9  C   UNL     1      30.693 -23.887 -13.387  0.00  0.00    -0.077 C 
ATOM     10  C   UNL     1      29.117 -23.385 -15.138  0.00  0.00    -0.077 C 
ATOM     11  C   UNL     1      33.414 -23.799 -15.756  0.00  0.00    +0.069 C 
ATOM     12  C   UNL     1      33.954 -23.055 -16.911  0.00  0.00    +0.034 C 
ATOM     13  C   UNL     1      32.958 -22.823 -17.833  0.00  0.00    +0.220 C 
ATOM     14  C   UNL     1      35.239 -22.648 -17.202  0.00  0.00    +0.002 C 
ATOM     15  C   UNL     1      35.460 -22.005 -18.419  0.00  0.00    +0.021 C 
ATOM     16  C   UNL     1      34.380 -21.819 -19.283  0.00  0.00    +0.102 C 
ATOM     17  H   UNL     1      29.857 -22.039 -13.761  0.00  0.00    -0.080 HD
ENDROOT
TORSDOF 0
ENDMDL
