MODEL 1
REMARK VINA RESULT:      -8.5      0.000      0.000
REMARK  Name = 83969
REMARK  5 active torsions:
REMARK  status: ('A' for Active; 'I' for Inactive)
REMARK    1  A    between atoms: N_4  and  C_11
REMARK    2  A    between atoms: C_6  and  S_16
REMARK    3  A    between atoms: C_12  and  O_21
REMARK    4  A    between atoms: S_16  and  C_18
REMARK    5  A    between atoms: C_18  and  C_19
REMARK                            x       y       z     vdW  Elec       q    Type
REMARK                         _______ _______ _______ _____ _____    ______ ____
ROOT
ATOM      1  N   UNL     1      32.592 -21.985 -18.653  0.00  0.00    -0.302 N 
ATOM      2  N   UNL     1      34.490 -22.771 -17.804  0.00  0.00    -0.302 N 
ATOM      3  C   UNL     1      33.592 -21.379 -19.369  0.00  0.00    +0.061 C 
ATOM      4  C   UNL     1      34.811 -20.046 -20.918  0.00  0.00    +0.057 C 
ATOM      5  C   UNL     1      34.767 -21.886 -18.819  0.00  0.00    +0.060 C 
ATOM      6  C   UNL     1      33.572 -20.459 -20.417  0.00  0.00    +0.024 C 
ATOM      7  C   UNL     1      36.006 -20.538 -20.388  0.00  0.00    +0.010 C 
ATOM      8  C   UNL     1      36.003 -21.461 -19.335  0.00  0.00    +0.016 C 
ATOM      9  C   UNL     1      33.178 -22.807 -17.730  0.00  0.00    +0.229 C 
ATOM     10  H   UNL     1      31.626 -21.852 -18.779  0.00  0.00    +0.150 HD
ATOM     11  H   UNL     1      35.135 -23.270 -17.251  0.00  0.00    +0.150 HD
ENDROOT
BRANCH   9  13
ATOM     12  O   UNL     1      30.322 -22.461 -16.864  0.00  0.00    -0.226 OA
ATOM     13  N   UNL     1      32.407 -23.546 -16.872  0.00  0.00    -0.240 N 
ATOM     14  C   UNL     1      31.067 -23.356 -16.485  0.00  0.00    +0.404 C 
ATOM     15  H   UNL     1      32.856 -24.322 -16.466  0.00  0.00    +0.156 HD
BRANCH  14  16
ATOM     16  O   UNL     1      30.689 -24.332 -15.602  0.00  0.00    -0.431 OA
ATOM     17  C   UNL     1      29.294 -24.658 -15.585  0.00  0.00    +0.257 C 
ENDBRANCH  14  16
ENDBRANCH   9  13
BRANCH   4  18
ATOM     18  S   UNL     1      34.862 -18.863 -22.269  0.00  0.00    +0.065 S 
ATOM     19  O   UNL     1      36.295 -18.415 -22.460  0.00  0.00    -0.251 OA
BRANCH  18  20
ATOM     20  C   UNL     1      33.961 -17.481 -21.512  0.00  0.00    +0.096 C 
BRANCH  20  21
ATOM     21  C   UNL     1      34.930 -16.486 -20.891  0.00  0.00    +0.015 C 
ATOM     22  C   UNL     1      34.240 -15.168 -20.575  0.00  0.00    +0.001 C 
ENDBRANCH  20  21
ENDBRANCH  18  20
ENDBRANCH   4  18
TORSDOF 5
ENDMDL
MODEL 2
REMARK VINA RESULT:      -8.3      5.701      7.141
REMARK  Name = 83969
REMARK  5 active torsions:
REMARK  status: ('A' for Active; 'I' for Inactive)
REMARK    1  A    between atoms: N_4  and  C_11
REMARK    2  A    between atoms: C_6  and  S_16
REMARK    3  A    between atoms: C_12  and  O_21
REMARK    4  A    between atoms: S_16  and  C_18
REMARK    5  A    between atoms: C_18  and  C_19
REMARK                            x       y       z     vdW  Elec       q    Type
REMARK                         _______ _______ _______ _____ _____    ______ ____
ROOT
ATOM      1  N   UNL     1      30.318 -22.966 -14.672  0.00  0.00    -0.302 N 
ATOM      2  N   UNL     1      30.753 -22.725 -16.839  0.00  0.00    -0.302 N 
ATOM      3  C   UNL     1      31.648 -23.269 -14.814  0.00  0.00    +0.061 C 
ATOM      4  C   UNL     1      33.908 -23.887 -14.405  0.00  0.00    +0.057 C 
ATOM      5  C   UNL     1      31.894 -23.111 -16.175  0.00  0.00    +0.060 C 
ATOM      6  C   UNL     1      32.626 -23.655 -13.897  0.00  0.00    +0.024 C 
ATOM      7  C   UNL     1      34.187 -23.737 -15.766  0.00  0.00    +0.010 C 
ATOM      8  C   UNL     1      33.188 -23.349 -16.668  0.00  0.00    +0.016 C 
ATOM      9  C   UNL     1      29.827 -22.648 -15.908  0.00  0.00    +0.229 C 
ATOM     10  H   UNL     1      29.807 -22.977 -13.831  0.00  0.00    +0.150 HD
ATOM     11  H   UNL     1      30.651 -22.546 -17.801  0.00  0.00    +0.150 HD
ENDROOT
BRANCH   9  13
ATOM     12  O   UNL     1      27.806 -23.480 -17.970  0.00  0.00    -0.226 OA
ATOM     13  N   UNL     1      28.511 -22.299 -16.063  0.00  0.00    -0.240 N 
ATOM     14  C   UNL     1      27.588 -22.709 -17.044  0.00  0.00    +0.404 C 
ATOM     15  H   UNL     1      28.160 -21.672 -15.391  0.00  0.00    +0.156 HD
BRANCH  14  16
ATOM     16  O   UNL     1      26.374 -22.114 -16.824  0.00  0.00    -0.431 OA
ATOM     17  C   UNL     1      25.971 -21.133 -17.786  0.00  0.00    +0.257 C 
ENDBRANCH  14  16
ENDBRANCH   9  13
BRANCH   4  18
ATOM     18  S   UNL     1      35.220 -24.387 -13.284  0.00  0.00    +0.065 S 
ATOM     19  O   UNL     1      34.881 -23.888 -11.896  0.00  0.00    -0.251 OA
BRANCH  18  20
ATOM     20  C   UNL     1      36.579 -23.360 -13.909  0.00  0.00    +0.096 C 
BRANCH  20  21
ATOM     21  C   UNL     1      37.638 -24.222 -14.581  0.00  0.00    +0.015 C 
ATOM     22  C   UNL     1      37.197 -25.674 -14.662  0.00  0.00    +0.001 C 
ENDBRANCH  20  21
ENDBRANCH  18  20
ENDBRANCH   4  18
TORSDOF 5
ENDMDL
MODEL 3
REMARK VINA RESULT:      -8.1      4.343      6.212
REMARK  Name = 83969
REMARK  5 active torsions:
REMARK  status: ('A' for Active; 'I' for Inactive)
REMARK    1  A    between atoms: N_4  and  C_11
REMARK    2  A    between atoms: C_6  and  S_16
REMARK    3  A    between atoms: C_12  and  O_21
REMARK    4  A    between atoms: S_16  and  C_18
REMARK    5  A    between atoms: C_18  and  C_19
REMARK                            x       y       z     vdW  Elec       q    Type
REMARK                         _______ _______ _______ _____ _____    ______ ____
ROOT
ATOM      1  N   UNL     1      35.245 -17.428 -20.804  0.00  0.00    -0.302 N 
ATOM      2  N   UNL     1      35.812 -18.515 -22.659  0.00  0.00    -0.302 N 
ATOM      3  C   UNL     1      34.744 -16.677 -21.836  0.00  0.00    +0.061 C 
ATOM      4  C   UNL     1      33.667 -14.992 -23.125  0.00  0.00    +0.057 C 
ATOM      5  C   UNL     1      35.111 -17.376 -22.983  0.00  0.00    +0.060 C 
ATOM      6  C   UNL     1      34.023 -15.483 -21.865  0.00  0.00    +0.024 C 
ATOM      7  C   UNL     1      34.021 -15.671 -24.293  0.00  0.00    +0.010 C 
ATOM      8  C   UNL     1      34.746 -16.868 -24.241  0.00  0.00    +0.016 C 
ATOM      9  C   UNL     1      35.874 -18.515 -21.346  0.00  0.00    +0.229 C 
ATOM     10  H   UNL     1      35.167 -17.222 -19.845  0.00  0.00    +0.150 HD
ATOM     11  H   UNL     1      36.186 -19.184 -23.276  0.00  0.00    +0.150 HD
ENDROOT
BRANCH   9  13
ATOM     12  O   UNL     1      34.793 -21.039 -20.126  0.00  0.00    -0.226 OA
ATOM     13  N   UNL     1      36.471 -19.445 -20.536  0.00  0.00    -0.240 N 
ATOM     14  C   UNL     1      35.934 -20.622 -19.979  0.00  0.00    +0.404 C 
ATOM     15  H   UNL     1      37.412 -19.264 -20.311  0.00  0.00    +0.156 HD
BRANCH  14  16
ATOM     16  O   UNL     1      36.883 -21.261 -19.227  0.00  0.00    -0.431 OA
ATOM     17  C   UNL     1      36.441 -21.782 -17.967  0.00  0.00    +0.257 C 
ENDBRANCH  14  16
ENDBRANCH   9  13
BRANCH   4  18
ATOM     18  S   UNL     1      32.738 -13.459 -23.240  0.00  0.00    +0.065 S 
ATOM     19  O   UNL     1      33.694 -12.343 -23.601  0.00  0.00    -0.251 OA
BRANCH  18  20
ATOM     20  C   UNL     1      32.282 -13.235 -21.497  0.00  0.00    +0.096 C 
BRANCH  20  21
ATOM     21  C   UNL     1      31.539 -11.922 -21.301  0.00  0.00    +0.015 C 
ATOM     22  C   UNL     1      31.578 -11.477 -19.849  0.00  0.00    +0.001 C 
ENDBRANCH  20  21
ENDBRANCH  18  20
ENDBRANCH   4  18
TORSDOF 5
ENDMDL
MODEL 4
REMARK VINA RESULT:      -8.1      4.594      6.667
REMARK  Name = 83969
REMARK  5 active torsions:
REMARK  status: ('A' for Active; 'I' for Inactive)
REMARK    1  A    between atoms: N_4  and  C_11
REMARK    2  A    between atoms: C_6  and  S_16
REMARK    3  A    between atoms: C_12  and  O_21
REMARK    4  A    between atoms: S_16  and  C_18
REMARK    5  A    between atoms: C_18  and  C_19
REMARK                            x       y       z     vdW  Elec       q    Type
REMARK                         _______ _______ _______ _____ _____    ______ ____
ROOT
ATOM      1  N   UNL     1      35.148 -16.973 -21.536  0.00  0.00    -0.302 N 
ATOM      2  N   UNL     1      35.647 -18.626 -22.936  0.00  0.00    -0.302 N 
ATOM      3  C   UNL     1      34.700 -16.559 -22.765  0.00  0.00    +0.061 C 
ATOM      4  C   UNL     1      33.740 -15.309 -24.547  0.00  0.00    +0.057 C 
ATOM      5  C   UNL     1      35.023 -17.609 -23.621  0.00  0.00    +0.060 C 
ATOM      6  C   UNL     1      34.059 -15.395 -23.188  0.00  0.00    +0.024 C 
ATOM      7  C   UNL     1      34.051 -16.345 -25.431  0.00  0.00    +0.010 C 
ATOM      8  C   UNL     1      34.695 -17.506 -24.983  0.00  0.00    +0.016 C 
ATOM      9  C   UNL     1      35.705 -18.212 -21.690  0.00  0.00    +0.229 C 
ATOM     10  H   UNL     1      35.081 -16.467 -20.695  0.00  0.00    +0.150 HD
ATOM     11  H   UNL     1      35.977 -19.479 -23.300  0.00  0.00    +0.150 HD
ENDROOT
BRANCH   9  13
ATOM     12  O   UNL     1      35.279 -21.015 -20.696  0.00  0.00    -0.226 OA
ATOM     13  N   UNL     1      36.237 -18.870 -20.613  0.00  0.00    -0.240 N 
ATOM     14  C   UNL     1      36.016 -20.189 -20.173  0.00  0.00    +0.404 C 
ATOM     15  H   UNL     1      36.866 -18.345 -20.067  0.00  0.00    +0.156 HD
BRANCH  14  16
ATOM     16  O   UNL     1      36.755 -20.440 -19.047  0.00  0.00    -0.431 OA
ATOM     17  C   UNL     1      36.453 -21.658 -18.356  0.00  0.00    +0.257 C 
ENDBRANCH  14  16
ENDBRANCH   9  13
BRANCH   4  18
ATOM     18  S   UNL     1      32.914 -13.838 -25.165  0.00  0.00    +0.065 S 
ATOM     19  O   UNL     1      33.300 -13.644 -26.615  0.00  0.00    -0.251 OA
BRANCH  18  20
ATOM     20  C   UNL     1      33.777 -12.564 -24.202  0.00  0.00    +0.096 C 
BRANCH  20  21
ATOM     21  C   UNL     1      34.149 -11.384 -25.086  0.00  0.00    +0.015 C 
ATOM     22  C   UNL     1      34.429 -10.140 -24.258  0.00  0.00    +0.001 C 
ENDBRANCH  20  21
ENDBRANCH  18  20
ENDBRANCH   4  18
TORSDOF 5
ENDMDL
MODEL 5
REMARK VINA RESULT:      -8.1      2.281      2.823
REMARK  Name = 83969
REMARK  5 active torsions:
REMARK  status: ('A' for Active; 'I' for Inactive)
REMARK    1  A    between atoms: N_4  and  C_11
REMARK    2  A    between atoms: C_6  and  S_16
REMARK    3  A    between atoms: C_12  and  O_21
REMARK    4  A    between atoms: S_16  and  C_18
REMARK    5  A    between atoms: C_18  and  C_19
REMARK                            x       y       z     vdW  Elec       q    Type
REMARK                         _______ _______ _______ _____ _____    ______ ____
ROOT
ATOM      1  N   UNL     1      35.154 -22.049 -18.688  0.00  0.00    -0.302 N 
ATOM      2  N   UNL     1      32.932 -22.080 -18.700  0.00  0.00    -0.302 N 
ATOM      3  C   UNL     1      34.782 -21.170 -19.672  0.00  0.00    +0.061 C 
ATOM      4  C   UNL     1      34.792 -19.578 -21.440  0.00  0.00    +0.057 C 
ATOM      5  C   UNL     1      33.390 -21.208 -19.659  0.00  0.00    +0.060 C 
ATOM      6  C   UNL     1      35.519 -20.370 -20.545  0.00  0.00    +0.024 C 
ATOM      7  C   UNL     1      33.395 -19.594 -21.451  0.00  0.00    +0.010 C 
ATOM      8  C   UNL     1      32.675 -20.406 -20.565  0.00  0.00    +0.016 C 
ATOM      9  C   UNL     1      34.015 -22.567 -18.136  0.00  0.00    +0.229 C 
ATOM     10  H   UNL     1      36.077 -22.269 -18.425  0.00  0.00    +0.150 HD
ATOM     11  H   UNL     1      31.996 -22.293 -18.481  0.00  0.00    +0.150 HD
ENDROOT
BRANCH   9  13
ATOM     12  O   UNL     1      35.586 -22.525 -15.575  0.00  0.00    -0.226 OA
ATOM     13  N   UNL     1      34.091 -23.480 -17.118  0.00  0.00    -0.240 N 
ATOM     14  C   UNL     1      34.840 -23.430 -15.926  0.00  0.00    +0.404 C 
ATOM     15  H   UNL     1      33.542 -24.289 -17.236  0.00  0.00    +0.156 HD
BRANCH  14  16
ATOM     16  O   UNL     1      34.620 -24.561 -15.186  0.00  0.00    -0.431 OA
ATOM     17  C   UNL     1      35.771 -25.373 -14.922  0.00  0.00    +0.257 C 
ENDBRANCH  14  16
ENDBRANCH   9  13
BRANCH   4  18
ATOM     18  S   UNL     1      35.674 -18.522 -22.595  0.00  0.00    +0.065 S 
ATOM     19  O   UNL     1      37.094 -18.352 -22.101  0.00  0.00    -0.251 OA
BRANCH  18  20
ATOM     20  C   UNL     1      34.812 -16.951 -22.307  0.00  0.00    +0.096 C 
BRANCH  20  21
ATOM     21  C   UNL     1      34.941 -16.527 -20.851  0.00  0.00    +0.015 C 
ATOM     22  C   UNL     1      34.247 -15.198 -20.599  0.00  0.00    +0.001 C 
ENDBRANCH  20  21
ENDBRANCH  18  20
ENDBRANCH   4  18
TORSDOF 5
ENDMDL
MODEL 6
REMARK VINA RESULT:      -8.1      8.350     11.258
REMARK  Name = 83969
REMARK  5 active torsions:
REMARK  status: ('A' for Active; 'I' for Inactive)
REMARK    1  A    between atoms: N_4  and  C_11
REMARK    2  A    between atoms: C_6  and  S_16
REMARK    3  A    between atoms: C_12  and  O_21
REMARK    4  A    between atoms: S_16  and  C_18
REMARK    5  A    between atoms: C_18  and  C_19
REMARK                            x       y       z     vdW  Elec       q    Type
REMARK                         _______ _______ _______ _____ _____    ______ ____
ROOT
ATOM      1  N   UNL     1      34.053 -12.888 -24.432  0.00  0.00    -0.302 N 
ATOM      2  N   UNL     1      32.460 -13.604 -23.057  0.00  0.00    -0.302 N 
ATOM      3  C   UNL     1      33.544 -11.759 -23.842  0.00  0.00    +0.061 C 
ATOM      4  C   UNL     1      33.116  -9.508 -23.200  0.00  0.00    +0.057 C 
ATOM      5  C   UNL     1      32.551 -12.234 -22.988  0.00  0.00    +0.060 C 
ATOM      6  C   UNL     1      33.856 -10.406 -23.976  0.00  0.00    +0.024 C 
ATOM      7  C   UNL     1      32.115  -9.954 -22.335  0.00  0.00    +0.010 C 
ATOM      8  C   UNL     1      31.817 -11.318 -22.216  0.00  0.00    +0.016 C 
ATOM      9  C   UNL     1      33.374 -13.964 -23.931  0.00  0.00    +0.229 C 
ATOM     10  H   UNL     1      34.776 -12.917 -25.098  0.00  0.00    +0.150 HD
ATOM     11  H   UNL     1      31.844 -14.190 -22.559  0.00  0.00    +0.150 HD
ENDROOT
BRANCH   9  13
ATOM     12  O   UNL     1      33.552 -15.130 -26.695  0.00  0.00    -0.226 OA
ATOM     13  N   UNL     1      33.679 -15.232 -24.350  0.00  0.00    -0.240 N 
ATOM     14  C   UNL     1      33.755 -15.748 -25.658  0.00  0.00    +0.404 C 
ATOM     15  H   UNL     1      33.875 -15.876 -23.631  0.00  0.00    +0.156 HD
BRANCH  14  16
ATOM     16  O   UNL     1      34.094 -17.074 -25.621  0.00  0.00    -0.431 OA
ATOM     17  C   UNL     1      34.777 -17.516 -24.441  0.00  0.00    +0.257 C 
ENDBRANCH  14  16
ENDBRANCH   9  13
BRANCH   4  18
ATOM     18  S   UNL     1      33.463  -7.750 -23.321  0.00  0.00    +0.065 S 
ATOM     19  O   UNL     1      34.964  -7.556 -23.322  0.00  0.00    -0.251 OA
BRANCH  18  20
ATOM     20  C   UNL     1      32.848  -7.195 -21.706  0.00  0.00    +0.096 C 
BRANCH  20  21
ATOM     21  C   UNL     1      31.893  -6.023 -21.869  0.00  0.00    +0.015 C 
ATOM     22  C   UNL     1      31.484  -5.842 -23.322  0.00  0.00    +0.001 C 
ENDBRANCH  20  21
ENDBRANCH  18  20
ENDBRANCH   4  18
TORSDOF 5
ENDMDL
MODEL 7
REMARK VINA RESULT:      -8.1      8.076     10.517
REMARK  Name = 83969
REMARK  5 active torsions:
REMARK  status: ('A' for Active; 'I' for Inactive)
REMARK    1  A    between atoms: N_4  and  C_11
REMARK    2  A    between atoms: C_6  and  S_16
REMARK    3  A    between atoms: C_12  and  O_21
REMARK    4  A    between atoms: S_16  and  C_18
REMARK    5  A    between atoms: C_18  and  C_19
REMARK                            x       y       z     vdW  Elec       q    Type
REMARK                         _______ _______ _______ _____ _____    ______ ____
ROOT
ATOM      1  N   UNL     1      33.470 -13.371 -24.101  0.00  0.00    -0.302 N 
ATOM      2  N   UNL     1      32.773 -14.540 -22.343  0.00  0.00    -0.302 N 
ATOM      3  C   UNL     1      32.856 -12.462 -23.277  0.00  0.00    +0.061 C 
ATOM      4  C   UNL     1      31.964 -10.469 -22.332  0.00  0.00    +0.057 C 
ATOM      5  C   UNL     1      32.429 -13.218 -22.187  0.00  0.00    +0.060 C 
ATOM      6  C   UNL     1      32.643 -11.088 -23.387  0.00  0.00    +0.024 C 
ATOM      7  C   UNL     1      31.525 -11.200 -21.226  0.00  0.00    +0.010 C 
ATOM      8  C   UNL     1      31.749 -12.580 -21.137  0.00  0.00    +0.016 C 
ATOM      9  C   UNL     1      33.395 -14.597 -23.500  0.00  0.00    +0.229 C 
ATOM     10  H   UNL     1      33.889 -13.175 -24.969  0.00  0.00    +0.150 HD
ATOM     11  H   UNL     1      32.592 -15.284 -21.723  0.00  0.00    +0.150 HD
ENDROOT
BRANCH   9  13
ATOM     12  O   UNL     1      33.511 -15.383 -26.398  0.00  0.00    -0.226 OA
ATOM     13  N   UNL     1      33.934 -15.700 -24.108  0.00  0.00    -0.240 N 
ATOM     14  C   UNL     1      33.972 -16.040 -25.473  0.00  0.00    +0.404 C 
ATOM     15  H   UNL     1      34.358 -16.350 -23.501  0.00  0.00    +0.156 HD
BRANCH  14  16
ATOM     16  O   UNL     1      34.612 -17.239 -25.642  0.00  0.00    -0.431 OA
ATOM     17  C   UNL     1      34.813 -18.017 -24.456  0.00  0.00    +0.257 C 
ENDBRANCH  14  16
ENDBRANCH   9  13
BRANCH   4  18
ATOM     18  S   UNL     1      31.655  -8.701 -22.405  0.00  0.00    +0.065 S 
ATOM     19  O   UNL     1      31.416  -8.315 -23.848  0.00  0.00    -0.251 OA
BRANCH  18  20
ATOM     20  C   UNL     1      33.294  -8.075 -21.942  0.00  0.00    +0.096 C 
BRANCH  20  21
ATOM     21  C   UNL     1      33.927  -7.320 -23.103  0.00  0.00    +0.015 C 
ATOM     22  C   UNL     1      34.895  -8.203 -23.873  0.00  0.00    +0.001 C 
ENDBRANCH  20  21
ENDBRANCH  18  20
ENDBRANCH   4  18
TORSDOF 5
ENDMDL
MODEL 8
REMARK VINA RESULT:      -8.0      6.065     10.295
REMARK  Name = 83969
REMARK  5 active torsions:
REMARK  status: ('A' for Active; 'I' for Inactive)
REMARK    1  A    between atoms: N_4  and  C_11
REMARK    2  A    between atoms: C_6  and  S_16
REMARK    3  A    between atoms: C_12  and  O_21
REMARK    4  A    between atoms: S_16  and  C_18
REMARK    5  A    between atoms: C_18  and  C_19
REMARK                            x       y       z     vdW  Elec       q    Type
REMARK                         _______ _______ _______ _____ _____    ______ ____
ROOT
ATOM      1  N   UNL     1      34.186 -13.375 -22.931  0.00  0.00    -0.302 N 
ATOM      2  N   UNL     1      33.320 -13.351 -24.978  0.00  0.00    -0.302 N 
ATOM      3  C   UNL     1      34.325 -14.655 -23.402  0.00  0.00    +0.061 C 
ATOM      4  C   UNL     1      34.840 -16.967 -23.622  0.00  0.00    +0.057 C 
ATOM      5  C   UNL     1      33.776 -14.614 -24.681  0.00  0.00    +0.060 C 
ATOM      6  C   UNL     1      34.866 -15.810 -22.837  0.00  0.00    +0.024 C 
ATOM      7  C   UNL     1      34.297 -16.958 -24.909  0.00  0.00    +0.010 C 
ATOM      8  C   UNL     1      33.758 -15.786 -25.456  0.00  0.00    +0.016 C 
ATOM      9  C   UNL     1      33.581 -12.633 -23.908  0.00  0.00    +0.229 C 
ATOM     10  H   UNL     1      34.471 -13.048 -22.048  0.00  0.00    +0.150 HD
ATOM     11  H   UNL     1      32.890 -13.050 -25.811  0.00  0.00    +0.150 HD
ENDROOT
BRANCH   9  13
ATOM     12  O   UNL     1      35.095 -10.182 -24.760  0.00  0.00    -0.226 OA
ATOM     13  N   UNL     1      33.318 -11.304 -23.707  0.00  0.00    -0.240 N 
ATOM     14  C   UNL     1      34.051 -10.175 -24.121  0.00  0.00    +0.404 C 
ATOM     15  H   UNL     1      32.497 -11.110 -23.199  0.00  0.00    +0.156 HD
BRANCH  14  16
ATOM     16  O   UNL     1      33.426  -9.030 -23.703  0.00  0.00    -0.431 OA
ATOM     17  C   UNL     1      32.154  -9.204 -23.066  0.00  0.00    +0.257 C 
ENDBRANCH  14  16
ENDBRANCH   9  13
BRANCH   4  18
ATOM     18  S   UNL     1      35.520 -18.493 -22.960  0.00  0.00    +0.065 S 
ATOM     19  O   UNL     1      34.870 -19.658 -23.675  0.00  0.00    -0.251 OA
BRANCH  18  20
ATOM     20  C   UNL     1      34.833 -18.441 -21.281  0.00  0.00    +0.096 C 
BRANCH  20  21
ATOM     21  C   UNL     1      34.401 -19.831 -20.835  0.00  0.00    +0.015 C 
ATOM     22  C   UNL     1      32.891 -19.919 -20.689  0.00  0.00    +0.001 C 
ENDBRANCH  20  21
ENDBRANCH  18  20
ENDBRANCH   4  18
TORSDOF 5
ENDMDL
MODEL 9
REMARK VINA RESULT:      -8.0      3.277      7.560
REMARK  Name = 83969
REMARK  5 active torsions:
REMARK  status: ('A' for Active; 'I' for Inactive)
REMARK    1  A    between atoms: N_4  and  C_11
REMARK    2  A    between atoms: C_6  and  S_16
REMARK    3  A    between atoms: C_12  and  O_21
REMARK    4  A    between atoms: S_16  and  C_18
REMARK    5  A    between atoms: C_18  and  C_19
REMARK                            x       y       z     vdW  Elec       q    Type
REMARK                         _______ _______ _______ _____ _____    ______ ____
ROOT
ATOM      1  N   UNL     1      34.014 -19.273 -21.544  0.00  0.00    -0.302 N 
ATOM      2  N   UNL     1      36.222 -19.137 -21.331  0.00  0.00    -0.302 N 
ATOM      3  C   UNL     1      34.349 -20.213 -20.603  0.00  0.00    +0.061 C 
ATOM      4  C   UNL     1      34.276 -21.945 -18.974  0.00  0.00    +0.057 C 
ATOM      5  C   UNL     1      35.733 -20.107 -20.488  0.00  0.00    +0.060 C 
ATOM      6  C   UNL     1      33.586 -21.117 -19.865  0.00  0.00    +0.024 C 
ATOM      7  C   UNL     1      35.664 -21.863 -18.836  0.00  0.00    +0.010 C 
ATOM      8  C   UNL     1      36.411 -20.947 -19.588  0.00  0.00    +0.016 C 
ATOM      9  C   UNL     1      35.166 -18.657 -21.948  0.00  0.00    +0.229 C 
ATOM     10  H   UNL     1      33.106 -19.078 -21.871  0.00  0.00    +0.150 HD
ATOM     11  H   UNL     1      37.160 -18.861 -21.446  0.00  0.00    +0.150 HD
ENDROOT
BRANCH   9  13
ATOM     12  O   UNL     1      34.285 -18.713 -24.820  0.00  0.00    -0.226 OA
ATOM     13  N   UNL     1      35.126 -17.665 -22.892  0.00  0.00    -0.240 N 
ATOM     14  C   UNL     1      34.707 -17.724 -24.235  0.00  0.00    +0.404 C 
ATOM     15  H   UNL     1      35.436 -16.782 -22.587  0.00  0.00    +0.156 HD
BRANCH  14  16
ATOM     16  O   UNL     1      34.834 -16.493 -24.822  0.00  0.00    -0.431 OA
ATOM     17  C   UNL     1      33.987 -15.459 -24.305  0.00  0.00    +0.257 C 
ENDBRANCH  14  16
ENDBRANCH   9  13
BRANCH   4  18
ATOM     18  S   UNL     1      33.358 -23.135 -17.989  0.00  0.00    +0.065 S 
ATOM     19  O   UNL     1      32.031 -22.518 -17.605  0.00  0.00    -0.251 OA
BRANCH  18  20
ATOM     20  C   UNL     1      34.389 -23.170 -16.495  0.00  0.00    +0.096 C 
BRANCH  20  21
ATOM     21  C   UNL     1      33.521 -23.211 -15.246  0.00  0.00    +0.015 C 
ATOM     22  C   UNL     1      34.153 -24.070 -14.163  0.00  0.00    +0.001 C 
ENDBRANCH  20  21
ENDBRANCH  18  20
ENDBRANCH   4  18
TORSDOF 5
ENDMDL
