MODEL 1
REMARK VINA RESULT:     -10.1      0.000      0.000
REMARK  Name = 119032
REMARK  8 active torsions:
REMARK  status: ('A' for Active; 'I' for Inactive)
REMARK    1  A    between atoms: O_1  and  C_3
REMARK    2  A    between atoms: O_1  and  C_14
REMARK    3  A    between atoms: C_2  and  C_8
REMARK    4  A    between atoms: C_8  and  O_9
REMARK    5  A    between atoms: O_9  and  N_12
REMARK    6  A    between atoms: C_14  and  C_15
REMARK    7  A    between atoms: C_16  and  O_21
REMARK    8  A    between atoms: O_21  and  C_23
REMARK                            x       y       z     vdW  Elec       q    Type
REMARK                         _______ _______ _______ _____ _____    ______ ____
ROOT
ATOM      1  O   UNL     1      33.040 -22.520 -16.755  0.00  0.00    -0.421 OA
ENDROOT
BRANCH   1   3
ATOM      2  C   UNL     1      29.534 -23.455 -16.288  0.00  0.00    +0.027 C 
ATOM      3  C   UNL     1      31.892 -23.114 -16.222  0.00  0.00    +0.149 C 
ATOM      4  C   UNL     1      30.679 -22.862 -16.821  0.00  0.00    +0.037 C 
ATOM      5  C   UNL     1      29.633 -24.285 -15.171  0.00  0.00    -0.000 C 
ATOM      6  C   UNL     1      32.022 -23.928 -15.118  0.00  0.00    +0.038 C 
ATOM      7  C   UNL     1      30.877 -24.521 -14.586  0.00  0.00    +0.003 C 
BRANCH   2   8
ATOM      8  C   UNL     1      28.203 -23.202 -16.913  0.00  0.00    +0.270 C 
BRANCH   8   9
ATOM      9  O   UNL     1      27.953 -21.803 -16.940  0.00  0.00    -0.331 OA
BRANCH   9  12
ATOM     10  O   UNL     1      26.370 -20.654 -17.976  0.00  0.00    -0.090 OA
ATOM     11  O   UNL     1      25.775 -22.030 -16.325  0.00  0.00    -0.090 OA
ATOM     12  N   UNL     1      26.576 -21.476 -17.083  0.00  0.00    +0.218 N 
ENDBRANCH   9  12
ENDBRANCH   8   9
ENDBRANCH   2   8
ENDBRANCH   1   3
BRANCH   1  14
ATOM     13  O   UNL     1      33.492 -24.243 -18.259  0.00  0.00    -0.244 OA
ATOM     14  C   UNL     1      33.425 -23.038 -17.988  0.00  0.00    +0.349 C 
BRANCH  14  15
ATOM     15  C   UNL     1      33.758 -21.968 -18.919  0.00  0.00    +0.111 C 
ATOM     16  C   UNL     1      35.087 -21.664 -19.214  0.00  0.00    +0.155 C 
ATOM     17  C   UNL     1      32.728 -21.243 -19.517  0.00  0.00    +0.010 C 
ATOM     18  C   UNL     1      35.385 -20.634 -20.107  0.00  0.00    +0.038 C 
ATOM     19  C   UNL     1      33.026 -20.214 -20.409  0.00  0.00    +0.000 C 
ATOM     20  C   UNL     1      34.354 -19.909 -20.705  0.00  0.00    +0.003 C 
BRANCH  16  21
ATOM     21  O   UNL     1      36.109 -22.359 -18.638  0.00  0.00    -0.424 OA
BRANCH  21  23
ATOM     22  O   UNL     1      37.219 -20.578 -17.601  0.00  0.00    -0.250 OA
ATOM     23  C   UNL     1      36.718 -21.694 -17.562  0.00  0.00    +0.322 C 
ATOM     24  C   UNL     1      36.673 -22.557 -16.336  0.00  0.00    +0.122 C 
ENDBRANCH  21  23
ENDBRANCH  16  21
ENDBRANCH  14  15
ENDBRANCH   1  14
TORSDOF 8
ENDMDL
MODEL 2
REMARK VINA RESULT:      -9.9      5.118      8.178
REMARK  Name = 119032
REMARK  8 active torsions:
REMARK  status: ('A' for Active; 'I' for Inactive)
REMARK    1  A    between atoms: O_1  and  C_3
REMARK    2  A    between atoms: O_1  and  C_14
REMARK    3  A    between atoms: C_2  and  C_8
REMARK    4  A    between atoms: C_8  and  O_9
REMARK    5  A    between atoms: O_9  and  N_12
REMARK    6  A    between atoms: C_14  and  C_15
REMARK    7  A    between atoms: C_16  and  O_21
REMARK    8  A    between atoms: O_21  and  C_23
REMARK                            x       y       z     vdW  Elec       q    Type
REMARK                         _______ _______ _______ _____ _____    ______ ____
ROOT
ATOM      1  O   UNL     1      34.370 -18.032 -22.000  0.00  0.00    -0.421 OA
ENDROOT
BRANCH   1   3
ATOM      2  C   UNL     1      35.168 -20.907 -19.882  0.00  0.00    +0.027 C 
ATOM      3  C   UNL     1      34.208 -19.146 -21.171  0.00  0.00    +0.149 C 
ATOM      4  C   UNL     1      35.330 -19.795 -20.709  0.00  0.00    +0.037 C 
ATOM      5  C   UNL     1      33.887 -21.339 -19.538  0.00  0.00    -0.000 C 
ATOM      6  C   UNL     1      32.931 -19.549 -20.849  0.00  0.00    +0.038 C 
ATOM      7  C   UNL     1      32.769 -20.660 -20.022  0.00  0.00    +0.003 C 
BRANCH   2   8
ATOM      8  C   UNL     1      36.364 -21.633 -19.365  0.00  0.00    +0.270 C 
BRANCH   8   9
ATOM      9  O   UNL     1      36.796 -21.028 -18.152  0.00  0.00    -0.331 OA
BRANCH   9  12
ATOM     10  O   UNL     1      37.609 -21.642 -16.188  0.00  0.00    -0.090 OA
ATOM     11  O   UNL     1      35.905 -22.801 -17.041  0.00  0.00    -0.090 OA
ATOM     12  N   UNL     1      36.756 -21.907 -17.035  0.00  0.00    +0.218 N 
ENDBRANCH   9  12
ENDBRANCH   8   9
ENDBRANCH   2   8
ENDBRANCH   1   3
BRANCH   1  14
ATOM     13  O   UNL     1      35.373 -16.759 -20.323  0.00  0.00    -0.244 OA
ATOM     14  C   UNL     1      34.640 -16.850 -21.314  0.00  0.00    +0.349 C 
BRANCH  14  15
ATOM     15  C   UNL     1      33.924 -15.730 -21.911  0.00  0.00    +0.111 C 
ATOM     16  C   UNL     1      34.147 -15.365 -23.239  0.00  0.00    +0.155 C 
ATOM     17  C   UNL     1      33.006 -15.021 -21.137  0.00  0.00    +0.010 C 
ATOM     18  C   UNL     1      33.452 -14.288 -23.791  0.00  0.00    +0.038 C 
ATOM     19  C   UNL     1      32.312 -13.945 -21.689  0.00  0.00    +0.000 C 
ATOM     20  C   UNL     1      32.534 -13.578 -23.017  0.00  0.00    +0.003 C 
BRANCH  16  21
ATOM     21  O   UNL     1      35.041 -16.045 -24.011  0.00  0.00    -0.424 OA
BRANCH  21  23
ATOM     22  O   UNL     1      34.092 -15.964 -26.150  0.00  0.00    -0.250 OA
ATOM     23  C   UNL     1      34.486 -16.595 -25.178  0.00  0.00    +0.322 C 
ATOM     24  C   UNL     1      34.438 -18.090 -25.066  0.00  0.00    +0.122 C 
ENDBRANCH  21  23
ENDBRANCH  16  21
ENDBRANCH  14  15
ENDBRANCH   1  14
TORSDOF 8
ENDMDL
MODEL 3
REMARK VINA RESULT:      -9.7      4.862      7.727
REMARK  Name = 119032
REMARK  8 active torsions:
REMARK  status: ('A' for Active; 'I' for Inactive)
REMARK    1  A    between atoms: O_1  and  C_3
REMARK    2  A    between atoms: O_1  and  C_14
REMARK    3  A    between atoms: C_2  and  C_8
REMARK    4  A    between atoms: C_8  and  O_9
REMARK    5  A    between atoms: O_9  and  N_12
REMARK    6  A    between atoms: C_14  and  C_15
REMARK    7  A    between atoms: C_16  and  O_21
REMARK    8  A    between atoms: O_21  and  C_23
REMARK                            x       y       z     vdW  Elec       q    Type
REMARK                         _______ _______ _______ _____ _____    ______ ____
ROOT
ATOM      1  O   UNL     1      34.126 -17.916 -21.734  0.00  0.00    -0.421 OA
ENDROOT
BRANCH   1   3
ATOM      2  C   UNL     1      34.378 -21.048 -19.859  0.00  0.00    +0.027 C 
ATOM      3  C   UNL     1      34.677 -19.020 -21.076  0.00  0.00    +0.149 C 
ATOM      4  C   UNL     1      33.827 -19.946 -20.515  0.00  0.00    +0.037 C 
ATOM      5  C   UNL     1      35.763 -21.194 -19.782  0.00  0.00    -0.000 C 
ATOM      6  C   UNL     1      36.048 -19.136 -21.016  0.00  0.00    +0.038 C 
ATOM      7  C   UNL     1      36.598 -20.238 -20.361  0.00  0.00    +0.003 C 
BRANCH   2   8
ATOM      8  C   UNL     1      33.485 -22.070 -19.240  0.00  0.00    +0.270 C 
BRANCH   8   9
ATOM      9  O   UNL     1      34.277 -23.053 -18.585  0.00  0.00    -0.331 OA
BRANCH   9  12
ATOM     10  O   UNL     1      32.657 -23.096 -17.077  0.00  0.00    -0.090 OA
ATOM     11  O   UNL     1      34.698 -23.752 -16.462  0.00  0.00    -0.090 OA
ATOM     12  N   UNL     1      33.853 -23.329 -17.256  0.00  0.00    +0.218 N 
ENDBRANCH   9  12
ENDBRANCH   8   9
ENDBRANCH   2   8
ENDBRANCH   1   3
BRANCH   1  14
ATOM     13  O   UNL     1      35.253 -16.546 -20.221  0.00  0.00    -0.244 OA
ATOM     14  C   UNL     1      34.495 -16.690 -21.187  0.00  0.00    +0.349 C 
BRANCH  14  15
ATOM     15  C   UNL     1      33.852 -15.591 -21.897  0.00  0.00    +0.111 C 
ATOM     16  C   UNL     1      34.168 -15.317 -23.228  0.00  0.00    +0.155 C 
ATOM     17  C   UNL     1      32.911 -14.810 -21.229  0.00  0.00    +0.010 C 
ATOM     18  C   UNL     1      33.542 -14.260 -23.889  0.00  0.00    +0.038 C 
ATOM     19  C   UNL     1      32.285 -13.754 -21.890  0.00  0.00    +0.000 C 
ATOM     20  C   UNL     1      32.600 -13.478 -23.221  0.00  0.00    +0.003 C 
BRANCH  16  21
ATOM     21  O   UNL     1      35.087 -16.069 -23.898  0.00  0.00    -0.424 OA
BRANCH  21  23
ATOM     22  O   UNL     1      34.212 -16.139 -26.068  0.00  0.00    -0.250 OA
ATOM     23  C   UNL     1      34.582 -16.700 -25.046  0.00  0.00    +0.322 C 
ATOM     24  C   UNL     1      34.554 -18.186 -24.841  0.00  0.00    +0.122 C 
ENDBRANCH  21  23
ENDBRANCH  16  21
ENDBRANCH  14  15
ENDBRANCH   1  14
TORSDOF 8
ENDMDL
MODEL 4
REMARK VINA RESULT:      -9.6      4.587      7.581
REMARK  Name = 119032
REMARK  8 active torsions:
REMARK  status: ('A' for Active; 'I' for Inactive)
REMARK    1  A    between atoms: O_1  and  C_3
REMARK    2  A    between atoms: O_1  and  C_14
REMARK    3  A    between atoms: C_2  and  C_8
REMARK    4  A    between atoms: C_8  and  O_9
REMARK    5  A    between atoms: O_9  and  N_12
REMARK    6  A    between atoms: C_14  and  C_15
REMARK    7  A    between atoms: C_16  and  O_21
REMARK    8  A    between atoms: O_21  and  C_23
REMARK                            x       y       z     vdW  Elec       q    Type
REMARK                         _______ _______ _______ _____ _____    ______ ____
ROOT
ATOM      1  O   UNL     1      35.696 -18.676 -21.726  0.00  0.00    -0.421 OA
ENDROOT
BRANCH   1   3
ATOM      2  C   UNL     1      34.787 -21.346 -19.394  0.00  0.00    +0.027 C 
ATOM      3  C   UNL     1      34.923 -19.575 -20.985  0.00  0.00    +0.149 C 
ATOM      4  C   UNL     1      35.559 -20.449 -20.133  0.00  0.00    +0.037 C 
ATOM      5  C   UNL     1      33.398 -21.344 -19.527  0.00  0.00    -0.000 C 
ATOM      6  C   UNL     1      33.554 -19.551 -21.138  0.00  0.00    +0.038 C 
ATOM      7  C   UNL     1      32.782 -20.447 -20.399  0.00  0.00    +0.003 C 
BRANCH   2   8
ATOM      8  C   UNL     1      35.445 -22.306 -18.462  0.00  0.00    +0.270 C 
BRANCH   8   9
ATOM      9  O   UNL     1      34.454 -23.110 -17.835  0.00  0.00    -0.331 OA
BRANCH   9  12
ATOM     10  O   UNL     1      35.823 -23.425 -16.124  0.00  0.00    -0.090 OA
ATOM     11  O   UNL     1      33.644 -23.192 -15.712  0.00  0.00    -0.090 OA
ATOM     12  N   UNL     1      34.643 -23.253 -16.433  0.00  0.00    +0.218 N 
ENDBRANCH   9  12
ENDBRANCH   8   9
ENDBRANCH   2   8
ENDBRANCH   1   3
BRANCH   1  14
ATOM     13  O   UNL     1      35.296 -16.690 -20.571  0.00  0.00    -0.244 OA
ATOM     14  C   UNL     1      35.284 -17.351 -21.617  0.00  0.00    +0.349 C 
BRANCH  14  15
ATOM     15  C   UNL     1      34.814 -16.847 -22.901  0.00  0.00    +0.111 C 
ATOM     16  C   UNL     1      34.207 -15.595 -22.999  0.00  0.00    +0.155 C 
ATOM     17  C   UNL     1      34.978 -17.634 -24.040  0.00  0.00    +0.010 C 
ATOM     18  C   UNL     1      33.764 -15.132 -24.238  0.00  0.00    +0.038 C 
ATOM     19  C   UNL     1      34.535 -17.171 -25.278  0.00  0.00    +0.000 C 
ATOM     20  C   UNL     1      33.927 -15.919 -25.378  0.00  0.00    +0.003 C 
BRANCH  16  21
ATOM     21  O   UNL     1      34.036 -14.811 -21.897  0.00  0.00    -0.424 OA
BRANCH  21  23
ATOM     22  O   UNL     1      31.986 -15.650 -21.141  0.00  0.00    -0.250 OA
ATOM     23  C   UNL     1      32.704 -14.714 -21.466  0.00  0.00    +0.322 C 
ATOM     24  C   UNL     1      32.271 -13.277 -21.462  0.00  0.00    +0.122 C 
ENDBRANCH  21  23
ENDBRANCH  16  21
ENDBRANCH  14  15
ENDBRANCH   1  14
TORSDOF 8
ENDMDL
MODEL 5
REMARK VINA RESULT:      -9.6      3.208      4.812
REMARK  Name = 119032
REMARK  8 active torsions:
REMARK  status: ('A' for Active; 'I' for Inactive)
REMARK    1  A    between atoms: O_1  and  C_3
REMARK    2  A    between atoms: O_1  and  C_14
REMARK    3  A    between atoms: C_2  and  C_8
REMARK    4  A    between atoms: C_8  and  O_9
REMARK    5  A    between atoms: O_9  and  N_12
REMARK    6  A    between atoms: C_14  and  C_15
REMARK    7  A    between atoms: C_16  and  O_21
REMARK    8  A    between atoms: O_21  and  C_23
REMARK                            x       y       z     vdW  Elec       q    Type
REMARK                         _______ _______ _______ _____ _____    ______ ____
ROOT
ATOM      1  O   UNL     1      32.376 -22.379 -17.760  0.00  0.00    -0.421 OA
ENDROOT
BRANCH   1   3
ATOM      2  C   UNL     1      33.412 -23.909 -14.602  0.00  0.00    +0.027 C 
ATOM      3  C   UNL     1      32.317 -23.069 -16.545  0.00  0.00    +0.149 C 
ATOM      4  C   UNL     1      33.473 -23.221 -15.814  0.00  0.00    +0.037 C 
ATOM      5  C   UNL     1      32.197 -24.426 -14.153  0.00  0.00    -0.000 C 
ATOM      6  C   UNL     1      31.102 -23.569 -16.128  0.00  0.00    +0.038 C 
ATOM      7  C   UNL     1      31.042 -24.256 -14.917  0.00  0.00    +0.003 C 
BRANCH   2   8
ATOM      8  C   UNL     1      34.647 -24.092 -13.785  0.00  0.00    +0.270 C 
BRANCH   8   9
ATOM      9  O   UNL     1      34.285 -24.405 -12.446  0.00  0.00    -0.331 OA
BRANCH   9  12
ATOM     10  O   UNL     1      36.305 -23.667 -11.923  0.00  0.00    -0.090 OA
ATOM     11  O   UNL     1      35.296 -25.082 -10.525  0.00  0.00    -0.090 OA
ATOM     12  N   UNL     1      35.385 -24.392 -11.544  0.00  0.00    +0.218 N 
ENDBRANCH   9  12
ENDBRANCH   8   9
ENDBRANCH   2   8
ENDBRANCH   1   3
BRANCH   1  14
ATOM     13  O   UNL     1      33.823 -23.966 -18.670  0.00  0.00    -0.244 OA
ATOM     14  C   UNL     1      33.398 -22.806 -18.603  0.00  0.00    +0.349 C 
BRANCH  14  15
ATOM     15  C   UNL     1      33.918 -21.696 -19.390  0.00  0.00    +0.111 C 
ATOM     16  C   UNL     1      35.288 -21.440 -19.448  0.00  0.00    +0.155 C 
ATOM     17  C   UNL     1      33.027 -20.883 -20.090  0.00  0.00    +0.010 C 
ATOM     18  C   UNL     1      35.766 -20.370 -20.207  0.00  0.00    +0.038 C 
ATOM     19  C   UNL     1      33.505 -19.815 -20.848  0.00  0.00    +0.000 C 
ATOM     20  C   UNL     1      34.875 -19.558 -20.907  0.00  0.00    +0.003 C 
BRANCH  16  21
ATOM     21  O   UNL     1      36.176 -22.221 -18.770  0.00  0.00    -0.424 OA
BRANCH  21  23
ATOM     22  O   UNL     1      37.234 -20.429 -17.697  0.00  0.00    -0.250 OA
ATOM     23  C   UNL     1      36.800 -21.573 -17.692  0.00  0.00    +0.322 C 
ATOM     24  C   UNL     1      36.867 -22.495 -16.510  0.00  0.00    +0.122 C 
ENDBRANCH  21  23
ENDBRANCH  16  21
ENDBRANCH  14  15
ENDBRANCH   1  14
TORSDOF 8
ENDMDL
MODEL 6
REMARK VINA RESULT:      -9.4      4.066      6.991
REMARK  Name = 119032
REMARK  8 active torsions:
REMARK  status: ('A' for Active; 'I' for Inactive)
REMARK    1  A    between atoms: O_1  and  C_3
REMARK    2  A    between atoms: O_1  and  C_14
REMARK    3  A    between atoms: C_2  and  C_8
REMARK    4  A    between atoms: C_8  and  O_9
REMARK    5  A    between atoms: O_9  and  N_12
REMARK    6  A    between atoms: C_14  and  C_15
REMARK    7  A    between atoms: C_16  and  O_21
REMARK    8  A    between atoms: O_21  and  C_23
REMARK                            x       y       z     vdW  Elec       q    Type
REMARK                         _______ _______ _______ _____ _____    ______ ____
ROOT
ATOM      1  O   UNL     1      35.000 -22.266 -18.562  0.00  0.00    -0.421 OA
ENDROOT
BRANCH   1   3
ATOM      2  C   UNL     1      35.060 -19.560 -21.024  0.00  0.00    +0.027 C 
ATOM      3  C   UNL     1      34.561 -21.285 -19.456  0.00  0.00    +0.149 C 
ATOM      4  C   UNL     1      35.499 -20.539 -20.132  0.00  0.00    +0.037 C 
ATOM      5  C   UNL     1      33.694 -19.353 -21.216  0.00  0.00    -0.000 C 
ATOM      6  C   UNL     1      33.205 -21.103 -19.624  0.00  0.00    +0.038 C 
ATOM      7  C   UNL     1      32.767 -20.125 -20.516  0.00  0.00    +0.003 C 
BRANCH   2   8
ATOM      8  C   UNL     1      36.052 -18.734 -21.773  0.00  0.00    +0.270 C 
BRANCH   8   9
ATOM      9  O   UNL     1      35.573 -17.399 -21.873  0.00  0.00    -0.331 OA
BRANCH   9  12
ATOM     10  O   UNL     1      35.319 -15.744 -23.321  0.00  0.00    -0.090 OA
ATOM     11  O   UNL     1      35.268 -17.839 -24.083  0.00  0.00    -0.090 OA
ATOM     12  N   UNL     1      35.369 -16.969 -23.214  0.00  0.00    +0.218 N 
ENDBRANCH   9  12
ENDBRANCH   8   9
ENDBRANCH   2   8
ENDBRANCH   1   3
BRANCH   1  14
ATOM     13  O   UNL     1      33.844 -24.155 -19.293  0.00  0.00    -0.244 OA
ATOM     14  C   UNL     1      34.115 -23.331 -18.411  0.00  0.00    +0.349 C 
BRANCH  14  15
ATOM     15  C   UNL     1      33.533 -23.335 -17.076  0.00  0.00    +0.111 C 
ATOM     16  C   UNL     1      34.324 -23.571 -15.951  0.00  0.00    +0.155 C 
ATOM     17  C   UNL     1      32.166 -23.100 -16.930  0.00  0.00    +0.010 C 
ATOM     18  C   UNL     1      33.747 -23.573 -14.681  0.00  0.00    +0.038 C 
ATOM     19  C   UNL     1      31.590 -23.102 -15.660  0.00  0.00    +0.000 C 
ATOM     20  C   UNL     1      32.380 -23.338 -14.535  0.00  0.00    +0.003 C 
BRANCH  16  21
ATOM     21  O   UNL     1      35.662 -23.805 -16.073  0.00  0.00    -0.424 OA
BRANCH  21  23
ATOM     22  O   UNL     1      35.738 -26.097 -15.603  0.00  0.00    -0.250 OA
ATOM     23  C   UNL     1      36.106 -24.949 -15.392  0.00  0.00    +0.322 C 
ATOM     24  C   UNL     1      37.113 -24.564 -14.348  0.00  0.00    +0.122 C 
ENDBRANCH  21  23
ENDBRANCH  16  21
ENDBRANCH  14  15
ENDBRANCH   1  14
TORSDOF 8
ENDMDL
MODEL 7
REMARK VINA RESULT:      -9.4      1.028      2.745
REMARK  Name = 119032
REMARK  8 active torsions:
REMARK  status: ('A' for Active; 'I' for Inactive)
REMARK    1  A    between atoms: O_1  and  C_3
REMARK    2  A    between atoms: O_1  and  C_14
REMARK    3  A    between atoms: C_2  and  C_8
REMARK    4  A    between atoms: C_8  and  O_9
REMARK    5  A    between atoms: O_9  and  N_12
REMARK    6  A    between atoms: C_14  and  C_15
REMARK    7  A    between atoms: C_16  and  O_21
REMARK    8  A    between atoms: O_21  and  C_23
REMARK                            x       y       z     vdW  Elec       q    Type
REMARK                         _______ _______ _______ _____ _____    ______ ____
ROOT
ATOM      1  O   UNL     1      32.638 -22.802 -15.806  0.00  0.00    -0.421 OA
ENDROOT
BRANCH   1   3
ATOM      2  C   UNL     1      29.112 -23.629 -16.330  0.00  0.00    +0.027 C 
ATOM      3  C   UNL     1      31.399 -23.439 -15.684  0.00  0.00    +0.149 C 
ATOM      4  C   UNL     1      30.348 -22.993 -16.452  0.00  0.00    +0.037 C 
ATOM      5  C   UNL     1      28.962 -24.696 -15.444  0.00  0.00    -0.000 C 
ATOM      6  C   UNL     1      31.281 -24.490 -14.801  0.00  0.00    +0.038 C 
ATOM      7  C   UNL     1      30.047 -25.126 -14.680  0.00  0.00    +0.003 C 
BRANCH   2   8
ATOM      8  C   UNL     1      27.952 -23.169 -17.146  0.00  0.00    +0.270 C 
BRANCH   8   9
ATOM      9  O   UNL     1      27.766 -21.772 -16.958  0.00  0.00    -0.331 OA
BRANCH   9  12
ATOM     10  O   UNL     1      25.635 -21.909 -16.377  0.00  0.00    -0.090 OA
ATOM     11  O   UNL     1      26.202 -20.503 -18.013  0.00  0.00    -0.090 OA
ATOM     12  N   UNL     1      26.421 -21.349 -17.141  0.00  0.00    +0.218 N 
ENDBRANCH   9  12
ENDBRANCH   8   9
ENDBRANCH   2   8
ENDBRANCH   1   3
BRANCH   1  14
ATOM     13  O   UNL     1      32.969 -23.936 -17.816  0.00  0.00    -0.244 OA
ATOM     14  C   UNL     1      33.397 -23.242 -16.886  0.00  0.00    +0.349 C 
BRANCH  14  15
ATOM     15  C   UNL     1      34.777 -22.791 -16.767  0.00  0.00    +0.111 C 
ATOM     16  C   UNL     1      35.494 -22.376 -17.890  0.00  0.00    +0.155 C 
ATOM     17  C   UNL     1      35.382 -22.777 -15.511  0.00  0.00    +0.010 C 
ATOM     18  C   UNL     1      36.815 -21.948 -17.754  0.00  0.00    +0.038 C 
ATOM     19  C   UNL     1      36.701 -22.349 -15.376  0.00  0.00    +0.000 C 
ATOM     20  C   UNL     1      37.419 -21.934 -16.498  0.00  0.00    +0.003 C 
BRANCH  16  21
ATOM     21  O   UNL     1      34.922 -22.383 -19.127  0.00  0.00    -0.424 OA
BRANCH  21  23
ATOM     22  O   UNL     1      35.569 -20.302 -19.983  0.00  0.00    -0.250 OA
ATOM     23  C   UNL     1      34.702 -21.104 -19.663  0.00  0.00    +0.322 C 
ATOM     24  C   UNL     1      33.229 -20.850 -19.790  0.00  0.00    +0.122 C 
ENDBRANCH  21  23
ENDBRANCH  16  21
ENDBRANCH  14  15
ENDBRANCH   1  14
TORSDOF 8
ENDMDL
MODEL 8
REMARK VINA RESULT:      -9.4      4.209      6.819
REMARK  Name = 119032
REMARK  8 active torsions:
REMARK  status: ('A' for Active; 'I' for Inactive)
REMARK    1  A    between atoms: O_1  and  C_3
REMARK    2  A    between atoms: O_1  and  C_14
REMARK    3  A    between atoms: C_2  and  C_8
REMARK    4  A    between atoms: C_8  and  O_9
REMARK    5  A    between atoms: O_9  and  N_12
REMARK    6  A    between atoms: C_14  and  C_15
REMARK    7  A    between atoms: C_16  and  O_21
REMARK    8  A    between atoms: O_21  and  C_23
REMARK                            x       y       z     vdW  Elec       q    Type
REMARK                         _______ _______ _______ _____ _____    ______ ____
ROOT
ATOM      1  O   UNL     1      33.856 -18.982 -21.282  0.00  0.00    -0.421 OA
ENDROOT
BRANCH   1   3
ATOM      2  C   UNL     1      34.253 -21.912 -19.127  0.00  0.00    +0.027 C 
ATOM      3  C   UNL     1      34.456 -20.019 -20.561  0.00  0.00    +0.149 C 
ATOM      4  C   UNL     1      33.653 -20.878 -19.846  0.00  0.00    +0.037 C 
ATOM      5  C   UNL     1      35.640 -22.059 -19.142  0.00  0.00    -0.000 C 
ATOM      6  C   UNL     1      35.828 -20.139 -20.595  0.00  0.00    +0.038 C 
ATOM      7  C   UNL     1      36.427 -21.172 -19.876  0.00  0.00    +0.003 C 
BRANCH   2   8
ATOM      8  C   UNL     1      33.411 -22.861 -18.342  0.00  0.00    +0.270 C 
BRANCH   8   9
ATOM      9  O   UNL     1      32.152 -22.258 -18.067  0.00  0.00    -0.331 OA
BRANCH   9  12
ATOM     10  O   UNL     1      32.299 -23.265 -16.101  0.00  0.00    -0.090 OA
ATOM     11  O   UNL     1      30.276 -22.726 -16.870  0.00  0.00    -0.090 OA
ATOM     12  N   UNL     1      31.507 -22.792 -16.917  0.00  0.00    +0.218 N 
ENDBRANCH   9  12
ENDBRANCH   8   9
ENDBRANCH   2   8
ENDBRANCH   1   3
BRANCH   1  14
ATOM     13  O   UNL     1      35.388 -17.383 -20.553  0.00  0.00    -0.244 OA
ATOM     14  C   UNL     1      34.663 -17.858 -21.435  0.00  0.00    +0.349 C 
BRANCH  14  15
ATOM     15  C   UNL     1      34.525 -17.299 -22.773  0.00  0.00    +0.111 C 
ATOM     16  C   UNL     1      34.219 -15.951 -22.958  0.00  0.00    +0.155 C 
ATOM     17  C   UNL     1      34.704 -18.131 -23.878  0.00  0.00    +0.010 C 
ATOM     18  C   UNL     1      34.090 -15.436 -24.248  0.00  0.00    +0.038 C 
ATOM     19  C   UNL     1      34.576 -17.616 -25.167  0.00  0.00    +0.000 C 
ATOM     20  C   UNL     1      34.269 -16.268 -25.353  0.00  0.00    +0.003 C 
BRANCH  16  21
ATOM     21  O   UNL     1      34.038 -15.122 -21.891  0.00  0.00    -0.424 OA
BRANCH  21  23
ATOM     22  O   UNL     1      31.951 -15.748 -21.035  0.00  0.00    -0.250 OA
ATOM     23  C   UNL     1      32.693 -14.919 -21.546  0.00  0.00    +0.322 C 
ATOM     24  C   UNL     1      32.279 -13.521 -21.898  0.00  0.00    +0.122 C 
ENDBRANCH  21  23
ENDBRANCH  16  21
ENDBRANCH  14  15
ENDBRANCH   1  14
TORSDOF 8
ENDMDL
MODEL 9
REMARK VINA RESULT:      -9.4      1.753      2.291
REMARK  Name = 119032
REMARK  8 active torsions:
REMARK  status: ('A' for Active; 'I' for Inactive)
REMARK    1  A    between atoms: O_1  and  C_3
REMARK    2  A    between atoms: O_1  and  C_14
REMARK    3  A    between atoms: C_2  and  C_8
REMARK    4  A    between atoms: C_8  and  O_9
REMARK    5  A    between atoms: O_9  and  N_12
REMARK    6  A    between atoms: C_14  and  C_15
REMARK    7  A    between atoms: C_16  and  O_21
REMARK    8  A    between atoms: O_21  and  C_23
REMARK                            x       y       z     vdW  Elec       q    Type
REMARK                         _______ _______ _______ _____ _____    ______ ____
ROOT
ATOM      1  O   UNL     1      32.644 -22.934 -14.899  0.00  0.00    -0.421 OA
ENDROOT
BRANCH   1   3
ATOM      2  C   UNL     1      29.254 -23.581 -16.113  0.00  0.00    +0.027 C 
ATOM      3  C   UNL     1      31.381 -23.517 -15.040  0.00  0.00    +0.149 C 
ATOM      4  C   UNL     1      30.514 -22.998 -15.974  0.00  0.00    +0.037 C 
ATOM      5  C   UNL     1      28.896 -24.668 -15.315  0.00  0.00    -0.000 C 
ATOM      6  C   UNL     1      31.056 -24.589 -14.238  0.00  0.00    +0.038 C 
ATOM      7  C   UNL     1      29.797 -25.172 -14.378  0.00  0.00    +0.003 C 
BRANCH   2   8
ATOM      8  C   UNL     1      28.289 -23.042 -17.115  0.00  0.00    +0.270 C 
BRANCH   8   9
ATOM      9  O   UNL     1      27.880 -21.738 -16.723  0.00  0.00    -0.331 OA
BRANCH   9  12
ATOM     10  O   UNL     1      26.388 -20.699 -17.985  0.00  0.00    -0.090 OA
ATOM     11  O   UNL     1      25.657 -21.981 -16.313  0.00  0.00    -0.090 OA
ATOM     12  N   UNL     1      26.519 -21.457 -17.023  0.00  0.00    +0.218 N 
ENDBRANCH   9  12
ENDBRANCH   8   9
ENDBRANCH   2   8
ENDBRANCH   1   3
BRANCH   1  14
ATOM     13  O   UNL     1      34.013 -24.821 -14.871  0.00  0.00    -0.244 OA
ATOM     14  C   UNL     1      33.690 -23.731 -15.357  0.00  0.00    +0.349 C 
BRANCH  14  15
ATOM     15  C   UNL     1      34.370 -23.099 -16.480  0.00  0.00    +0.111 C 
ATOM     16  C   UNL     1      35.650 -22.565 -16.333  0.00  0.00    +0.155 C 
ATOM     17  C   UNL     1      33.724 -23.030 -17.714  0.00  0.00    +0.010 C 
ATOM     18  C   UNL     1      36.283 -21.963 -17.421  0.00  0.00    +0.038 C 
ATOM     19  C   UNL     1      34.356 -22.429 -18.801  0.00  0.00    +0.000 C 
ATOM     20  C   UNL     1      35.637 -21.895 -18.655  0.00  0.00    +0.003 C 
BRANCH  16  21
ATOM     21  O   UNL     1      36.298 -22.620 -15.135  0.00  0.00    -0.424 OA
BRANCH  21  23
ATOM     22  O   UNL     1      38.448 -23.193 -15.864  0.00  0.00    -0.250 OA
ATOM     23  C   UNL     1      37.471 -23.392 -15.155  0.00  0.00    +0.322 C 
ATOM     24  C   UNL     1      37.360 -24.517 -14.169  0.00  0.00    +0.122 C 
ENDBRANCH  21  23
ENDBRANCH  16  21
ENDBRANCH  14  15
ENDBRANCH   1  14
TORSDOF 8
ENDMDL
