MODEL 1
REMARK VINA RESULT:      -9.1      0.000      0.000
REMARK  Name = 11840981
REMARK  4 active torsions:
REMARK  status: ('A' for Active; 'I' for Inactive)
REMARK    1  A    between atoms: C_5  and  C_13
REMARK    2  A    between atoms: C_5  and  C_14
REMARK    3  A    between atoms: C_14  and  C_15
REMARK    4  A    between atoms: C_14  and  O_21
REMARK                            x       y       z     vdW  Elec       q    Type
REMARK                         _______ _______ _______ _____ _____    ______ ____
ROOT
ATOM      1  O   UNL     1      37.888 -24.566 -14.489  0.00  0.00    -0.356 OA
ATOM      2  O   UNL     1      36.452 -24.051 -10.716  0.00  0.00    -0.275 OA
ATOM      3  N   UNL     1      35.662 -23.391 -12.814  0.00  0.00    -0.297 N 
ATOM      4  C   UNL     1      36.581 -25.078 -14.141  0.00  0.00    +0.125 C 
ATOM      5  C   UNL     1      35.523 -23.957 -14.138  0.00  0.00    +0.163 C 
ATOM      6  C   UNL     1      36.683 -25.498 -12.669  0.00  0.00    +0.106 C 
ATOM      7  C   UNL     1      38.144 -25.822 -12.489  0.00  0.00    +0.044 C 
ATOM      8  C   UNL     1      36.274 -24.249 -11.909  0.00  0.00    +0.225 C 
ATOM      9  C   UNL     1      36.297 -26.248 -15.079  0.00  0.00    +0.032 C 
ATOM     10  C   UNL     1      38.818 -24.852 -13.437  0.00  0.00    +0.143 C 
ATOM     11  H   UNL     1      35.353 -22.486 -12.577  0.00  0.00    +0.150 HD
ENDROOT
BRANCH   5  13
ATOM     12  O   UNL     1      36.198 -23.053 -16.264  0.00  0.00    -0.286 OA
ATOM     13  C   UNL     1      35.815 -22.854 -15.116  0.00  0.00    +0.229 C 
ENDBRANCH   5  13
BRANCH   5  14
ATOM     14  C   UNL     1      34.082 -24.425 -14.339  0.00  0.00    +0.140 C 
BRANCH  14  15
ATOM     15  C   UNL     1      33.211 -23.326 -14.948  0.00  0.00    +0.051 C 
ATOM     16  C   UNL     1      32.818 -23.702 -16.388  0.00  0.00    +0.007 C 
ATOM     17  C   UNL     1      32.011 -23.048 -14.079  0.00  0.00    -0.029 C 
ATOM     18  C   UNL     1      31.708 -22.797 -16.914  0.00  0.00    +0.005 C 
ATOM     19  C   UNL     1      30.461 -22.883 -16.033  0.00  0.00    +0.026 C 
ATOM     20  C   UNL     1      30.776 -22.865 -14.568  0.00  0.00    -0.031 C 
ENDBRANCH  14  15
BRANCH  14  21
ATOM     21  O   UNL     1      33.545 -24.815 -13.081  0.00  0.00    -0.382 OA
ATOM     22  H   UNL     1      34.202 -24.654 -12.384  0.00  0.00    +0.210 HD
ENDBRANCH  14  21
ENDBRANCH   5  14
TORSDOF 4
ENDMDL
MODEL 2
REMARK VINA RESULT:      -8.5      1.618      2.914
REMARK  Name = 11840981
REMARK  4 active torsions:
REMARK  status: ('A' for Active; 'I' for Inactive)
REMARK    1  A    between atoms: C_5  and  C_13
REMARK    2  A    between atoms: C_5  and  C_14
REMARK    3  A    between atoms: C_14  and  C_15
REMARK    4  A    between atoms: C_14  and  O_21
REMARK                            x       y       z     vdW  Elec       q    Type
REMARK                         _______ _______ _______ _____ _____    ______ ____
ROOT
ATOM      1  O   UNL     1      36.662 -25.898 -12.751  0.00  0.00    -0.356 OA
ATOM      2  O   UNL     1      39.681 -24.210 -14.896  0.00  0.00    -0.275 OA
ATOM      3  N   UNL     1      37.484 -24.791 -15.442  0.00  0.00    -0.297 N 
ATOM      4  C   UNL     1      36.480 -24.591 -13.344  0.00  0.00    +0.125 C 
ATOM      5  C   UNL     1      36.168 -24.698 -14.849  0.00  0.00    +0.163 C 
ATOM      6  C   UNL     1      37.860 -23.922 -13.295  0.00  0.00    +0.106 C 
ATOM      7  C   UNL     1      38.537 -24.582 -12.122  0.00  0.00    +0.044 C 
ATOM      8  C   UNL     1      38.495 -24.311 -14.619  0.00  0.00    +0.225 C 
ATOM      9  C   UNL     1      35.432 -23.864 -12.505  0.00  0.00    +0.032 C 
ATOM     10  C   UNL     1      37.961 -25.982 -12.150  0.00  0.00    +0.143 C 
ATOM     11  H   UNL     1      37.648 -25.159 -16.341  0.00  0.00    +0.150 HD
ENDROOT
BRANCH   5  13
ATOM     12  O   UNL     1      35.955 -26.891 -15.817  0.00  0.00    -0.286 OA
ATOM     13  C   UNL     1      35.433 -25.954 -15.222  0.00  0.00    +0.229 C 
ENDBRANCH   5  13
BRANCH   5  14
ATOM     14  C   UNL     1      35.430 -23.500 -15.445  0.00  0.00    +0.140 C 
BRANCH  14  15
ATOM     15  C   UNL     1      34.034 -23.884 -15.936  0.00  0.00    +0.051 C 
ATOM     16  C   UNL     1      32.973 -23.429 -14.917  0.00  0.00    +0.007 C 
ATOM     17  C   UNL     1      33.778 -23.332 -17.316  0.00  0.00    -0.029 C 
ATOM     18  C   UNL     1      31.567 -23.510 -15.506  0.00  0.00    +0.005 C 
ATOM     19  C   UNL     1      31.442 -22.640 -16.758  0.00  0.00    +0.026 C 
ATOM     20  C   UNL     1      32.620 -22.761 -17.676  0.00  0.00    -0.031 C 
ENDBRANCH  14  15
BRANCH  14  21
ATOM     21  O   UNL     1      36.190 -22.983 -16.530  0.00  0.00    -0.382 OA
ATOM     22  H   UNL     1      37.132 -22.991 -16.298  0.00  0.00    +0.210 HD
ENDBRANCH  14  21
ENDBRANCH   5  14
TORSDOF 4
ENDMDL
MODEL 3
REMARK VINA RESULT:      -8.2      1.484      2.926
REMARK  Name = 11840981
REMARK  4 active torsions:
REMARK  status: ('A' for Active; 'I' for Inactive)
REMARK    1  A    between atoms: C_5  and  C_13
REMARK    2  A    between atoms: C_5  and  C_14
REMARK    3  A    between atoms: C_14  and  C_15
REMARK    4  A    between atoms: C_14  and  O_21
REMARK                            x       y       z     vdW  Elec       q    Type
REMARK                         _______ _______ _______ _____ _____    ______ ____
ROOT
ATOM      1  O   UNL     1      37.621 -24.982 -12.588  0.00  0.00    -0.356 OA
ATOM      2  O   UNL     1      36.673 -27.028 -15.976  0.00  0.00    -0.275 OA
ATOM      3  N   UNL     1      35.416 -25.688 -14.532  0.00  0.00    -0.297 N 
ATOM      4  C   UNL     1      37.091 -24.273 -13.733  0.00  0.00    +0.125 C 
ATOM      5  C   UNL     1      35.562 -24.432 -13.830  0.00  0.00    +0.163 C 
ATOM      6  C   UNL     1      37.624 -25.021 -14.962  0.00  0.00    +0.106 C 
ATOM      7  C   UNL     1      38.904 -25.648 -14.474  0.00  0.00    +0.044 C 
ATOM      8  C   UNL     1      36.549 -26.056 -15.246  0.00  0.00    +0.225 C 
ATOM      9  C   UNL     1      37.599 -22.836 -13.640  0.00  0.00    +0.032 C 
ATOM     10  C   UNL     1      38.599 -25.938 -13.019  0.00  0.00    +0.143 C 
ATOM     11  H   UNL     1      34.594 -26.230 -14.507  0.00  0.00    +0.150 HD
ENDROOT
BRANCH   5  13
ATOM     12  O   UNL     1      34.699 -23.670 -11.717  0.00  0.00    -0.286 OA
ATOM     13  C   UNL     1      34.889 -24.597 -12.497  0.00  0.00    +0.229 C 
ENDBRANCH   5  13
BRANCH   5  14
ATOM     14  C   UNL     1      34.844 -23.331 -14.611  0.00  0.00    +0.140 C 
BRANCH  14  15
ATOM     15  C   UNL     1      33.521 -23.825 -15.196  0.00  0.00    +0.051 C 
ATOM     16  C   UNL     1      32.341 -23.248 -14.392  0.00  0.00    +0.007 C 
ATOM     17  C   UNL     1      33.428 -23.500 -16.665  0.00  0.00    -0.029 C 
ATOM     18  C   UNL     1      31.017 -23.458 -15.122  0.00  0.00    +0.005 C 
ATOM     19  C   UNL     1      31.035 -22.795 -16.500  0.00  0.00    +0.026 C 
ATOM     20  C   UNL     1      32.316 -23.023 -17.244  0.00  0.00    -0.031 C 
ENDBRANCH  14  15
BRANCH  14  21
ATOM     21  O   UNL     1      35.692 -22.885 -15.662  0.00  0.00    -0.382 OA
ATOM     22  H   UNL     1      36.091 -23.651 -16.103  0.00  0.00    +0.210 HD
ENDBRANCH  14  21
ENDBRANCH   5  14
TORSDOF 4
ENDMDL
MODEL 4
REMARK VINA RESULT:      -7.8      8.415     11.268
REMARK  Name = 11840981
REMARK  4 active torsions:
REMARK  status: ('A' for Active; 'I' for Inactive)
REMARK    1  A    between atoms: C_5  and  C_13
REMARK    2  A    between atoms: C_5  and  C_14
REMARK    3  A    between atoms: C_14  and  C_15
REMARK    4  A    between atoms: C_14  and  O_21
REMARK                            x       y       z     vdW  Elec       q    Type
REMARK                         _______ _______ _______ _____ _____    ______ ____
ROOT
ATOM      1  O   UNL     1      34.853 -15.255 -21.923  0.00  0.00    -0.356 OA
ATOM      2  O   UNL     1      34.575 -16.252 -25.859  0.00  0.00    -0.275 OA
ATOM      3  N   UNL     1      35.356 -17.409 -23.985  0.00  0.00    -0.297 N 
ATOM      4  C   UNL     1      34.065 -16.401 -22.321  0.00  0.00    +0.125 C 
ATOM      5  C   UNL     1      34.960 -17.622 -22.610  0.00  0.00    +0.163 C 
ATOM      6  C   UNL     1      33.475 -16.038 -23.690  0.00  0.00    +0.106 C 
ATOM      7  C   UNL     1      33.407 -14.533 -23.664  0.00  0.00    +0.044 C 
ATOM      8  C   UNL     1      34.512 -16.549 -24.675  0.00  0.00    +0.225 C 
ATOM      9  C   UNL     1      33.000 -16.604 -21.246  0.00  0.00    +0.032 C 
ATOM     10  C   UNL     1      34.604 -14.161 -22.815  0.00  0.00    +0.143 C 
ATOM     11  H   UNL     1      36.147 -17.832 -24.391  0.00  0.00    +0.150 HD
ENDROOT
BRANCH   5  13
ATOM     12  O   UNL     1      37.226 -18.268 -22.123  0.00  0.00    -0.286 OA
ATOM     13  C   UNL     1      36.219 -17.650 -21.792  0.00  0.00    +0.229 C 
ENDBRANCH   5  13
BRANCH   5  14
ATOM     14  C   UNL     1      34.264 -18.978 -22.490  0.00  0.00    +0.140 C 
BRANCH  14  15
ATOM     15  C   UNL     1      34.176 -19.440 -21.035  0.00  0.00    +0.051 C 
ATOM     16  C   UNL     1      32.831 -20.147 -20.786  0.00  0.00    +0.007 C 
ATOM     17  C   UNL     1      35.356 -20.307 -20.674  0.00  0.00    -0.029 C 
ATOM     18  C   UNL     1      32.833 -20.890 -19.453  0.00  0.00    +0.005 C 
ATOM     19  C   UNL     1      33.947 -21.937 -19.406  0.00  0.00    +0.026 C 
ATOM     20  C   UNL     1      35.247 -21.434 -19.957  0.00  0.00    -0.031 C 
ENDBRANCH  14  15
BRANCH  14  21
ATOM     21  O   UNL     1      34.988 -19.936 -23.251  0.00  0.00    -0.382 OA
ATOM     22  H   UNL     1      34.501 -20.138 -24.066  0.00  0.00    +0.210 HD
ENDBRANCH  14  21
ENDBRANCH   5  14
TORSDOF 4
ENDMDL
MODEL 5
REMARK VINA RESULT:      -7.5      1.947      3.534
REMARK  Name = 11840981
REMARK  4 active torsions:
REMARK  status: ('A' for Active; 'I' for Inactive)
REMARK    1  A    between atoms: C_5  and  C_13
REMARK    2  A    between atoms: C_5  and  C_14
REMARK    3  A    between atoms: C_14  and  C_15
REMARK    4  A    between atoms: C_14  and  O_21
REMARK                            x       y       z     vdW  Elec       q    Type
REMARK                         _______ _______ _______ _____ _____    ______ ____
ROOT
ATOM      1  O   UNL     1      36.347 -25.272 -12.238  0.00  0.00    -0.356 OA
ATOM      2  O   UNL     1      36.520 -26.873 -15.976  0.00  0.00    -0.275 OA
ATOM      3  N   UNL     1      35.001 -25.429 -14.942  0.00  0.00    -0.297 N 
ATOM      4  C   UNL     1      36.413 -24.401 -13.392  0.00  0.00    +0.125 C 
ATOM      5  C   UNL     1      35.037 -24.272 -14.074  0.00  0.00    +0.163 C 
ATOM      6  C   UNL     1      37.271 -25.147 -14.421  0.00  0.00    +0.106 C 
ATOM      7  C   UNL     1      38.156 -26.029 -13.579  0.00  0.00    +0.044 C 
ATOM      8  C   UNL     1      36.259 -25.947 -15.222  0.00  0.00    +0.225 C 
ATOM      9  C   UNL     1      37.041 -23.090 -12.925  0.00  0.00    +0.032 C 
ATOM     10  C   UNL     1      37.269 -26.358 -12.397  0.00  0.00    +0.143 C 
ATOM     11  H   UNL     1      34.167 -25.812 -15.298  0.00  0.00    +0.150 HD
ENDROOT
BRANCH   5  13
ATOM     12  O   UNL     1      32.729 -24.100 -13.415  0.00  0.00    -0.286 OA
ATOM     13  C   UNL     1      33.881 -24.404 -13.124  0.00  0.00    +0.229 C 
ENDBRANCH   5  13
BRANCH   5  14
ATOM     14  C   UNL     1      34.845 -23.008 -14.911  0.00  0.00    +0.140 C 
BRANCH  14  15
ATOM     15  C   UNL     1      34.928 -23.304 -16.409  0.00  0.00    +0.051 C 
ATOM     16  C   UNL     1      33.561 -23.057 -17.072  0.00  0.00    +0.007 C 
ATOM     17  C   UNL     1      36.032 -22.506 -17.055  0.00  0.00    -0.029 C 
ATOM     18  C   UNL     1      33.677 -23.039 -18.593  0.00  0.00    +0.005 C 
ATOM     19  C   UNL     1      34.646 -21.950 -19.059  0.00  0.00    +0.026 C 
ATOM     20  C   UNL     1      35.897 -21.887 -18.237  0.00  0.00    -0.031 C 
ENDBRANCH  14  15
BRANCH  14  21
ATOM     21  O   UNL     1      35.849 -22.064 -14.557  0.00  0.00    -0.382 OA
ATOM     22  H   UNL     1      36.720 -22.491 -14.589  0.00  0.00    +0.210 HD
ENDBRANCH  14  21
ENDBRANCH   5  14
TORSDOF 4
ENDMDL
MODEL 6
REMARK VINA RESULT:      -7.3      9.549     11.682
REMARK  Name = 11840981
REMARK  4 active torsions:
REMARK  status: ('A' for Active; 'I' for Inactive)
REMARK    1  A    between atoms: C_5  and  C_13
REMARK    2  A    between atoms: C_5  and  C_14
REMARK    3  A    between atoms: C_14  and  C_15
REMARK    4  A    between atoms: C_14  and  O_21
REMARK                            x       y       z     vdW  Elec       q    Type
REMARK                         _______ _______ _______ _____ _____    ______ ____
ROOT
ATOM      1  O   UNL     1      36.064 -17.276 -22.597  0.00  0.00    -0.356 OA
ATOM      2  O   UNL     1      33.246 -19.845 -21.174  0.00  0.00    -0.275 OA
ATOM      3  N   UNL     1      33.634 -17.568 -20.821  0.00  0.00    -0.297 N 
ATOM      4  C   UNL     1      34.662 -17.014 -22.843  0.00  0.00    +0.125 C 
ATOM      5  C   UNL     1      33.982 -16.402 -21.603  0.00  0.00    +0.163 C 
ATOM      6  C   UNL     1      34.006 -18.394 -22.985  0.00  0.00    +0.106 C 
ATOM      7  C   UNL     1      35.126 -19.276 -23.472  0.00  0.00    +0.044 C 
ATOM      8  C   UNL     1      33.579 -18.737 -21.568  0.00  0.00    +0.225 C 
ATOM      9  C   UNL     1      34.582 -16.179 -24.118  0.00  0.00    +0.032 C 
ATOM     10  C   UNL     1      36.342 -18.667 -22.806  0.00  0.00    +0.143 C 
ATOM     11  H   UNL     1      33.455 -17.536 -19.853  0.00  0.00    +0.150 HD
ENDROOT
BRANCH   5  13
ATOM     12  O   UNL     1      34.992 -15.681 -19.541  0.00  0.00    -0.286 OA
ATOM     13  C   UNL     1      34.907 -15.571 -20.760  0.00  0.00    +0.229 C 
ENDBRANCH   5  13
BRANCH   5  14
ATOM     14  C   UNL     1      32.718 -15.592 -21.891  0.00  0.00    +0.140 C 
BRANCH  14  15
ATOM     15  C   UNL     1      32.984 -14.088 -21.830  0.00  0.00    +0.051 C 
ATOM     16  C   UNL     1      32.525 -13.417 -23.137  0.00  0.00    +0.007 C 
ATOM     17  C   UNL     1      32.338 -13.477 -20.613  0.00  0.00    -0.029 C 
ATOM     18  C   UNL     1      32.484 -11.898 -22.996  0.00  0.00    +0.005 C 
ATOM     19  C   UNL     1      31.535 -11.474 -21.874  0.00  0.00    +0.026 C 
ATOM     20  C   UNL     1      31.675 -12.312 -20.640  0.00  0.00    -0.031 C 
ENDBRANCH  14  15
BRANCH  14  21
ATOM     21  O   UNL     1      31.721 -15.938 -20.937  0.00  0.00    -0.382 OA
ATOM     22  H   UNL     1      32.054 -16.648 -20.365  0.00  0.00    +0.210 HD
ENDBRANCH  14  21
ENDBRANCH   5  14
TORSDOF 4
ENDMDL
MODEL 7
REMARK VINA RESULT:      -7.1     17.361     19.545
REMARK  Name = 11840981
REMARK  4 active torsions:
REMARK  status: ('A' for Active; 'I' for Inactive)
REMARK    1  A    between atoms: C_5  and  C_13
REMARK    2  A    between atoms: C_5  and  C_14
REMARK    3  A    between atoms: C_14  and  C_15
REMARK    4  A    between atoms: C_14  and  O_21
REMARK                            x       y       z     vdW  Elec       q    Type
REMARK                         _______ _______ _______ _____ _____    ______ ____
ROOT
ATOM      1  O   UNL     1      32.689  -9.574 -23.576  0.00  0.00    -0.356 OA
ATOM      2  O   UNL     1      32.529  -9.262 -19.521  0.00  0.00    -0.275 OA
ATOM      3  N   UNL     1      33.011  -7.719 -21.210  0.00  0.00    -0.297 N 
ATOM      4  C   UNL     1      31.772  -8.638 -22.962  0.00  0.00    +0.125 C 
ATOM      5  C   UNL     1      32.499  -7.356 -22.513  0.00  0.00    +0.163 C 
ATOM      6  C   UNL     1      31.331  -9.298 -21.648  0.00  0.00    +0.106 C 
ATOM      7  C   UNL     1      31.478 -10.772 -21.920  0.00  0.00    +0.044 C 
ATOM      8  C   UNL     1      32.346  -8.796 -20.636  0.00  0.00    +0.225 C 
ATOM      9  C   UNL     1      30.622  -8.433 -23.944  0.00  0.00    +0.032 C 
ATOM     10  C   UNL     1      32.659 -10.820 -22.867  0.00  0.00    +0.143 C 
ATOM     11  H   UNL     1      33.758  -7.250 -20.772  0.00  0.00    +0.150 HD
ENDROOT
BRANCH   5  13
ATOM     12  O   UNL     1      34.825  -7.398 -23.130  0.00  0.00    -0.286 OA
ATOM     13  C   UNL     1      33.686  -7.009 -23.366  0.00  0.00    +0.229 C 
ENDBRANCH   5  13
BRANCH   5  14
ATOM     14  C   UNL     1      31.609  -6.120 -22.379  0.00  0.00    +0.140 C 
BRANCH  14  15
ATOM     15  C   UNL     1      31.997  -5.035 -23.383  0.00  0.00    +0.051 C 
ATOM     16  C   UNL     1      31.244  -5.249 -24.709  0.00  0.00    +0.007 C 
ATOM     17  C   UNL     1      31.763  -3.661 -22.807  0.00  0.00    -0.029 C 
ATOM     18  C   UNL     1      31.360  -4.029 -25.617  0.00  0.00    +0.005 C 
ATOM     19  C   UNL     1      30.797  -2.780 -24.937  0.00  0.00    +0.026 C 
ATOM     20  C   UNL     1      31.210  -2.657 -23.502  0.00  0.00    -0.031 C 
ENDBRANCH  14  15
BRANCH  14  21
ATOM     21  O   UNL     1      31.727  -5.609 -21.057  0.00  0.00    -0.382 OA
ATOM     22  H   UNL     1      32.156  -4.739 -21.083  0.00  0.00    +0.210 HD
ENDBRANCH  14  21
ENDBRANCH   5  14
TORSDOF 4
ENDMDL
MODEL 8
REMARK VINA RESULT:      -7.1      9.127     11.337
REMARK  Name = 11840981
REMARK  4 active torsions:
REMARK  status: ('A' for Active; 'I' for Inactive)
REMARK    1  A    between atoms: C_5  and  C_13
REMARK    2  A    between atoms: C_5  and  C_14
REMARK    3  A    between atoms: C_14  and  C_15
REMARK    4  A    between atoms: C_14  and  O_21
REMARK                            x       y       z     vdW  Elec       q    Type
REMARK                         _______ _______ _______ _____ _____    ______ ____
ROOT
ATOM      1  O   UNL     1      34.088 -19.663 -21.985  0.00  0.00    -0.356 OA
ATOM      2  O   UNL     1      38.104 -19.041 -21.749  0.00  0.00    -0.275 OA
ATOM      3  N   UNL     1      36.439 -18.131 -23.114  0.00  0.00    -0.297 N 
ATOM      4  C   UNL     1      34.596 -18.339 -21.696  0.00  0.00    +0.125 C 
ATOM      5  C   UNL     1      35.087 -17.636 -22.976  0.00  0.00    +0.163 C 
ATOM      6  C   UNL     1      35.875 -18.560 -20.877  0.00  0.00    +0.106 C 
ATOM      7  C   UNL     1      35.646 -19.889 -20.206  0.00  0.00    +0.044 C 
ATOM      8  C   UNL     1      36.968 -18.628 -21.929  0.00  0.00    +0.225 C 
ATOM      9  C   UNL     1      33.507 -17.604 -20.918  0.00  0.00    +0.032 C 
ATOM     10  C   UNL     1      34.815 -20.638 -21.226  0.00  0.00    +0.143 C 
ATOM     11  H   UNL     1      36.936 -18.119 -23.964  0.00  0.00    +0.150 HD
ENDROOT
BRANCH   5  13
ATOM     12  O   UNL     1      34.718 -17.785 -25.349  0.00  0.00    -0.286 OA
ATOM     13  C   UNL     1      34.342 -18.052 -24.213  0.00  0.00    +0.229 C 
ENDBRANCH   5  13
BRANCH   5  14
ATOM     14  C   UNL     1      35.114 -16.109 -22.907  0.00  0.00    +0.140 C 
BRANCH  14  15
ATOM     15  C   UNL     1      33.706 -15.525 -22.792  0.00  0.00    +0.051 C 
ATOM     16  C   UNL     1      33.600 -14.646 -21.532  0.00  0.00    +0.007 C 
ATOM     17  C   UNL     1      33.330 -14.776 -24.046  0.00  0.00    -0.029 C 
ATOM     18  C   UNL     1      32.328 -13.805 -21.547  0.00  0.00    +0.005 C 
ATOM     19  C   UNL     1      32.282 -12.896 -22.777  0.00  0.00    +0.026 C 
ATOM     20  C   UNL     1      32.705 -13.590 -24.035  0.00  0.00    -0.031 C 
ENDBRANCH  14  15
BRANCH  14  21
ATOM     21  O   UNL     1      35.743 -15.606 -24.079  0.00  0.00    -0.382 OA
ATOM     22  H   UNL     1      35.862 -14.646 -23.996  0.00  0.00    +0.210 HD
ENDBRANCH  14  21
ENDBRANCH   5  14
TORSDOF 4
ENDMDL
MODEL 9
REMARK VINA RESULT:      -6.6     10.117     12.296
REMARK  Name = 11840981
REMARK  4 active torsions:
REMARK  status: ('A' for Active; 'I' for Inactive)
REMARK    1  A    between atoms: C_5  and  C_13
REMARK    2  A    between atoms: C_5  and  C_14
REMARK    3  A    between atoms: C_14  and  C_15
REMARK    4  A    between atoms: C_14  and  O_21
REMARK                            x       y       z     vdW  Elec       q    Type
REMARK                         _______ _______ _______ _____ _____    ______ ____
ROOT
ATOM      1  O   UNL     1      36.165 -17.413 -22.044  0.00  0.00    -0.356 OA
ATOM      2  O   UNL     1      32.691 -18.940 -20.573  0.00  0.00    -0.275 OA
ATOM      3  N   UNL     1      33.384 -16.760 -21.052  0.00  0.00    -0.297 N 
ATOM      4  C   UNL     1      34.924 -17.191 -22.753  0.00  0.00    +0.125 C 
ATOM      5  C   UNL     1      34.100 -16.065 -22.099  0.00  0.00    +0.163 C 
ATOM      6  C   UNL     1      34.084 -18.453 -22.518  0.00  0.00    +0.106 C 
ATOM      7  C   UNL     1      35.112 -19.529 -22.284  0.00  0.00    +0.044 C 
ATOM      8  C   UNL     1      33.295 -18.130 -21.261  0.00  0.00    +0.225 C 
ATOM      9  C   UNL     1      35.283 -16.976 -24.222  0.00  0.00    +0.032 C 
ATOM     10  C   UNL     1      36.234 -18.775 -21.601  0.00  0.00    +0.143 C 
ATOM     11  H   UNL     1      32.999 -16.307 -20.267  0.00  0.00    +0.150 HD
ENDROOT
BRANCH   5  13
ATOM     12  O   UNL     1      34.863 -14.748 -20.235  0.00  0.00    -0.286 OA
ATOM     13  C   UNL     1      34.942 -15.016 -21.430  0.00  0.00    +0.229 C 
ENDBRANCH   5  13
BRANCH   5  14
ATOM     14  C   UNL     1      33.097 -15.375 -23.024  0.00  0.00    +0.140 C 
BRANCH  14  15
ATOM     15  C   UNL     1      33.798 -14.570 -24.117  0.00  0.00    +0.051 C 
ATOM     16  C   UNL     1      33.049 -14.728 -25.453  0.00  0.00    +0.007 C 
ATOM     17  C   UNL     1      33.946 -13.125 -23.711  0.00  0.00    -0.029 C 
ATOM     18  C   UNL     1      33.526 -13.708 -26.482  0.00  0.00    +0.005 C 
ATOM     19  C   UNL     1      33.320 -12.278 -25.977  0.00  0.00    +0.026 C 
ATOM     20  C   UNL     1      33.716 -12.100 -24.543  0.00  0.00    -0.031 C 
ENDBRANCH  14  15
BRANCH  14  21
ATOM     21  O   UNL     1      32.275 -14.510 -22.250  0.00  0.00    -0.382 OA
ATOM     22  H   UNL     1      31.872 -15.012 -21.523  0.00  0.00    +0.210 HD
ENDBRANCH  14  21
ENDBRANCH   5  14
TORSDOF 4
ENDMDL
