MODEL 1
REMARK VINA RESULT:      -8.1      0.000      0.000
REMARK  Name = 28892
REMARK  12 active torsions:
REMARK  status: ('A' for Active; 'I' for Inactive)
REMARK    1  A    between atoms: O_1  and  C_3
REMARK    2  A    between atoms: O_1  and  C_13
REMARK    3  A    between atoms: C_3  and  C_4
REMARK    4  A    between atoms: C_4  and  C_5
REMARK    5  A    between atoms: C_4  and  C_11
REMARK    6  A    between atoms: C_13  and  C_14
REMARK    7  A    between atoms: C_14  and  O_15
REMARK    8  A    between atoms: O_15  and  C_16
REMARK    9  A    between atoms: C_16  and  C_17
REMARK   10  A    between atoms: C_17  and  N_18
REMARK   11  A    between atoms: N_18  and  C_20
REMARK   12  A    between atoms: N_18  and  C_22
REMARK                            x       y       z     vdW  Elec       q    Type
REMARK                         _______ _______ _______ _____ _____    ______ ____
ROOT
ATOM      1  O   UNL     1      33.848 -16.158 -22.021  0.00  0.00    -0.446 OA
ENDROOT
BRANCH   1   3
ATOM      2  O   UNL     1      35.214 -16.419 -20.185  0.00  0.00    -0.250 OA
ATOM      3  C   UNL     1      34.757 -16.823 -21.246  0.00  0.00    +0.321 C 
BRANCH   3   4
ATOM      4  C   UNL     1      35.124 -18.144 -21.917  0.00  0.00    +0.121 C 
BRANCH   4   5
ATOM      5  C   UNL     1      34.683 -19.333 -21.077  0.00  0.00    -0.012 C 
ATOM      6  C   UNL     1      33.335 -19.545 -20.875  0.00  0.00    -0.004 C 
ATOM      7  C   UNL     1      35.646 -20.166 -20.543  0.00  0.00    -0.004 C 
ATOM      8  C   UNL     1      32.931 -20.635 -20.105  0.00  0.00    -0.000 C 
ATOM      9  C   UNL     1      35.242 -21.256 -19.773  0.00  0.00    -0.000 C 
ATOM     10  C   UNL     1      33.884 -21.491 -19.554  0.00  0.00    -0.000 C 
ENDBRANCH   4   5
BRANCH   4  11
ATOM     11  C   UNL     1      34.585 -18.167 -23.362  0.00  0.00    +0.016 C 
ATOM     12  C   UNL     1      34.978 -19.426 -24.124  0.00  0.00    +0.001 C 
ENDBRANCH   4  11
ENDBRANCH   3   4
ENDBRANCH   1   3
BRANCH   1  13
ATOM     13  C   UNL     1      32.853 -15.416 -21.308  0.00  0.00    +0.240 C 
BRANCH  13  14
ATOM     14  C   UNL     1      32.723 -14.039 -21.927  0.00  0.00    +0.189 C 
BRANCH  14  15
ATOM     15  O   UNL     1      33.827 -13.814 -22.795  0.00  0.00    -0.352 OA
BRANCH  15  16
ATOM     16  C   UNL     1      33.438 -13.091 -23.955  0.00  0.00    +0.120 C 
BRANCH  16  17
ATOM     17  C   UNL     1      33.322 -11.618 -23.596  0.00  0.00    -0.045 C 
BRANCH  17  18
ATOM     18  N   UNL     1      34.429 -10.863 -24.161  0.00  0.00    +0.389 N 
ATOM     19  H   UNL     1      35.286 -11.165 -23.698  0.00  0.00    -0.080 HD
BRANCH  18  20
ATOM     20  C   UNL     1      34.557 -11.126 -25.596  0.00  0.00    -0.077 C 
ATOM     21  C   UNL     1      35.697 -10.323 -26.201  0.00  0.00    -0.025 C 
ENDBRANCH  18  20
BRANCH  18  22
ATOM     22  C   UNL     1      34.252  -9.427 -23.924  0.00  0.00    -0.077 C 
ATOM     23  C   UNL     1      32.882  -9.134 -23.336  0.00  0.00    -0.025 C 
ENDBRANCH  18  22
ENDBRANCH  17  18
ENDBRANCH  16  17
ENDBRANCH  15  16
ENDBRANCH  14  15
ENDBRANCH  13  14
ENDBRANCH   1  13
TORSDOF 12
ENDMDL
MODEL 2
REMARK VINA RESULT:      -8.1      1.825      2.543
REMARK  Name = 28892
REMARK  12 active torsions:
REMARK  status: ('A' for Active; 'I' for Inactive)
REMARK    1  A    between atoms: O_1  and  C_3
REMARK    2  A    between atoms: O_1  and  C_13
REMARK    3  A    between atoms: C_3  and  C_4
REMARK    4  A    between atoms: C_4  and  C_5
REMARK    5  A    between atoms: C_4  and  C_11
REMARK    6  A    between atoms: C_13  and  C_14
REMARK    7  A    between atoms: C_14  and  O_15
REMARK    8  A    between atoms: O_15  and  C_16
REMARK    9  A    between atoms: C_16  and  C_17
REMARK   10  A    between atoms: C_17  and  N_18
REMARK   11  A    between atoms: N_18  and  C_20
REMARK   12  A    between atoms: N_18  and  C_22
REMARK                            x       y       z     vdW  Elec       q    Type
REMARK                         _______ _______ _______ _____ _____    ______ ____
ROOT
ATOM      1  O   UNL     1      34.182 -15.955 -22.312  0.00  0.00    -0.446 OA
ENDROOT
BRANCH   1   3
ATOM      2  O   UNL     1      35.148 -16.384 -20.266  0.00  0.00    -0.250 OA
ATOM      3  C   UNL     1      34.858 -16.723 -21.405  0.00  0.00    +0.321 C 
BRANCH   3   4
ATOM      4  C   UNL     1      35.206 -18.067 -22.039  0.00  0.00    +0.121 C 
BRANCH   4   5
ATOM      5  C   UNL     1      34.722 -19.226 -21.181  0.00  0.00    -0.012 C 
ATOM      6  C   UNL     1      33.367 -19.384 -20.973  0.00  0.00    -0.004 C 
ATOM      7  C   UNL     1      35.654 -20.087 -20.635  0.00  0.00    -0.004 C 
ATOM      8  C   UNL     1      32.924 -20.447 -20.187  0.00  0.00    -0.000 C 
ATOM      9  C   UNL     1      35.211 -21.149 -19.848  0.00  0.00    -0.000 C 
ATOM     10  C   UNL     1      33.845 -21.330 -19.624  0.00  0.00    -0.000 C 
ENDBRANCH   4   5
BRANCH   4  11
ATOM     11  C   UNL     1      34.691 -18.111 -23.493  0.00  0.00    +0.016 C 
ATOM     12  C   UNL     1      34.984 -19.434 -24.189  0.00  0.00    +0.001 C 
ENDBRANCH   4  11
ENDBRANCH   3   4
ENDBRANCH   1   3
BRANCH   1  13
ATOM     13  C   UNL     1      34.533 -14.567 -22.330  0.00  0.00    +0.240 C 
BRANCH  13  14
ATOM     14  C   UNL     1      33.904 -13.913 -23.544  0.00  0.00    +0.189 C 
BRANCH  14  15
ATOM     15  O   UNL     1      32.496 -13.836 -23.354  0.00  0.00    -0.352 OA
BRANCH  15  16
ATOM     16  C   UNL     1      32.164 -12.990 -22.263  0.00  0.00    +0.120 C 
BRANCH  16  17
ATOM     17  C   UNL     1      32.358 -11.543 -22.691  0.00  0.00    -0.045 C 
BRANCH  17  18
ATOM     18  N   UNL     1      31.289 -10.706 -22.169  0.00  0.00    +0.389 N 
ATOM     19  H   UNL     1      30.542 -10.680 -22.862  0.00  0.00    -0.080 HD
BRANCH  18  20
ATOM     20  C   UNL     1      30.753 -11.265 -20.925  0.00  0.00    -0.077 C 
ATOM     21  C   UNL     1      31.256 -10.495 -19.716  0.00  0.00    -0.025 C 
ENDBRANCH  18  20
BRANCH  18  22
ATOM     22  C   UNL     1      31.766  -9.338 -21.944  0.00  0.00    -0.077 C 
ATOM     23  C   UNL     1      31.403  -8.432 -23.108  0.00  0.00    -0.025 C 
ENDBRANCH  18  22
ENDBRANCH  17  18
ENDBRANCH  16  17
ENDBRANCH  15  16
ENDBRANCH  14  15
ENDBRANCH  13  14
ENDBRANCH   1  13
TORSDOF 12
ENDMDL
MODEL 3
REMARK VINA RESULT:      -8.0      0.583      1.449
REMARK  Name = 28892
REMARK  12 active torsions:
REMARK  status: ('A' for Active; 'I' for Inactive)
REMARK    1  A    between atoms: O_1  and  C_3
REMARK    2  A    between atoms: O_1  and  C_13
REMARK    3  A    between atoms: C_3  and  C_4
REMARK    4  A    between atoms: C_4  and  C_5
REMARK    5  A    between atoms: C_4  and  C_11
REMARK    6  A    between atoms: C_13  and  C_14
REMARK    7  A    between atoms: C_14  and  O_15
REMARK    8  A    between atoms: O_15  and  C_16
REMARK    9  A    between atoms: C_16  and  C_17
REMARK   10  A    between atoms: C_17  and  N_18
REMARK   11  A    between atoms: N_18  and  C_20
REMARK   12  A    between atoms: N_18  and  C_22
REMARK                            x       y       z     vdW  Elec       q    Type
REMARK                         _______ _______ _______ _____ _____    ______ ____
ROOT
ATOM      1  O   UNL     1      34.198 -15.929 -22.225  0.00  0.00    -0.446 OA
ENDROOT
BRANCH   1   3
ATOM      2  O   UNL     1      35.146 -16.358 -20.171  0.00  0.00    -0.250 OA
ATOM      3  C   UNL     1      34.878 -16.692 -21.317  0.00  0.00    +0.321 C 
BRANCH   3   4
ATOM      4  C   UNL     1      35.260 -18.023 -21.959  0.00  0.00    +0.121 C 
BRANCH   4   5
ATOM      5  C   UNL     1      34.756 -19.200 -21.137  0.00  0.00    -0.012 C 
ATOM      6  C   UNL     1      33.397 -19.349 -20.948  0.00  0.00    -0.004 C 
ATOM      7  C   UNL     1      35.673 -20.084 -20.605  0.00  0.00    -0.004 C 
ATOM      8  C   UNL     1      32.935 -20.427 -20.194  0.00  0.00    -0.000 C 
ATOM      9  C   UNL     1      35.211 -21.162 -19.851  0.00  0.00    -0.000 C 
ATOM     10  C   UNL     1      33.842 -21.335 -19.646  0.00  0.00    -0.000 C 
ENDBRANCH   4   5
BRANCH   4  11
ATOM     11  C   UNL     1      34.800 -18.048 -23.430  0.00  0.00    +0.016 C 
ATOM     12  C   UNL     1      34.983 -19.410 -24.089  0.00  0.00    +0.001 C 
ENDBRANCH   4  11
ENDBRANCH   3   4
ENDBRANCH   1   3
BRANCH   1  13
ATOM     13  C   UNL     1      33.064 -15.222 -21.714  0.00  0.00    +0.240 C 
BRANCH  13  14
ATOM     14  C   UNL     1      32.746 -14.061 -22.635  0.00  0.00    +0.189 C 
BRANCH  14  15
ATOM     15  O   UNL     1      33.509 -14.193 -23.829  0.00  0.00    -0.352 OA
BRANCH  15  16
ATOM     16  C   UNL     1      33.492 -12.996 -24.593  0.00  0.00    +0.120 C 
BRANCH  16  17
ATOM     17  C   UNL     1      33.654 -11.813 -23.651  0.00  0.00    -0.045 C 
BRANCH  17  18
ATOM     18  N   UNL     1      33.662 -10.562 -24.394  0.00  0.00    +0.389 N 
ATOM     19  H   UNL     1      33.253 -10.738 -25.311  0.00  0.00    -0.080 HD
BRANCH  18  20
ATOM     20  C   UNL     1      32.855  -9.549 -23.709  0.00  0.00    -0.077 C 
ATOM     21  C   UNL     1      33.716  -8.387 -23.242  0.00  0.00    -0.025 C 
ENDBRANCH  18  20
BRANCH  18  22
ATOM     22  C   UNL     1      35.032 -10.077 -24.578  0.00  0.00    -0.077 C 
ATOM     23  C   UNL     1      35.518 -10.332 -25.995  0.00  0.00    -0.025 C 
ENDBRANCH  18  22
ENDBRANCH  17  18
ENDBRANCH  16  17
ENDBRANCH  15  16
ENDBRANCH  14  15
ENDBRANCH  13  14
ENDBRANCH   1  13
TORSDOF 12
ENDMDL
MODEL 4
REMARK VINA RESULT:      -8.0      1.584      2.640
REMARK  Name = 28892
REMARK  12 active torsions:
REMARK  status: ('A' for Active; 'I' for Inactive)
REMARK    1  A    between atoms: O_1  and  C_3
REMARK    2  A    between atoms: O_1  and  C_13
REMARK    3  A    between atoms: C_3  and  C_4
REMARK    4  A    between atoms: C_4  and  C_5
REMARK    5  A    between atoms: C_4  and  C_11
REMARK    6  A    between atoms: C_13  and  C_14
REMARK    7  A    between atoms: C_14  and  O_15
REMARK    8  A    between atoms: O_15  and  C_16
REMARK    9  A    between atoms: C_16  and  C_17
REMARK   10  A    between atoms: C_17  and  N_18
REMARK   11  A    between atoms: N_18  and  C_20
REMARK   12  A    between atoms: N_18  and  C_22
REMARK                            x       y       z     vdW  Elec       q    Type
REMARK                         _______ _______ _______ _____ _____    ______ ____
ROOT
ATOM      1  O   UNL     1      35.368 -17.499 -23.805  0.00  0.00    -0.446 OA
ENDROOT
BRANCH   1   3
ATOM      2  O   UNL     1      34.783 -19.726 -23.767  0.00  0.00    -0.250 OA
ATOM      3  C   UNL     1      34.873 -18.633 -23.223  0.00  0.00    +0.321 C 
BRANCH   3   4
ATOM      4  C   UNL     1      34.438 -18.321 -21.795  0.00  0.00    +0.121 C 
BRANCH   4   5
ATOM      5  C   UNL     1      34.415 -19.576 -20.935  0.00  0.00    -0.012 C 
ATOM      6  C   UNL     1      35.613 -20.146 -20.555  0.00  0.00    -0.004 C 
ATOM      7  C   UNL     1      33.197 -20.107 -20.561  0.00  0.00    -0.004 C 
ATOM      8  C   UNL     1      35.593 -21.297 -19.767  0.00  0.00    -0.000 C 
ATOM      9  C   UNL     1      33.177 -21.258 -19.774  0.00  0.00    -0.000 C 
ATOM     10  C   UNL     1      34.374 -21.853 -19.376  0.00  0.00    -0.000 C 
ENDBRANCH   4   5
BRANCH   4  11
ATOM     11  C   UNL     1      35.307 -17.185 -21.217  0.00  0.00    +0.016 C 
ATOM     12  C   UNL     1      34.505 -16.176 -20.403  0.00  0.00    +0.001 C 
ENDBRANCH   4  11
ENDBRANCH   3   4
ENDBRANCH   1   3
BRANCH   1  13
ATOM     13  C   UNL     1      34.609 -16.984 -24.904  0.00  0.00    +0.240 C 
BRANCH  13  14
ATOM     14  C   UNL     1      33.901 -15.717 -24.467  0.00  0.00    +0.189 C 
BRANCH  14  15
ATOM     15  O   UNL     1      34.785 -14.946 -23.662  0.00  0.00    -0.352 OA
BRANCH  15  16
ATOM     16  C   UNL     1      34.129 -13.815 -23.107  0.00  0.00    +0.120 C 
BRANCH  16  17
ATOM     17  C   UNL     1      33.387 -13.087 -24.216  0.00  0.00    -0.045 C 
BRANCH  17  18
ATOM     18  N   UNL     1      34.185 -11.985 -24.732  0.00  0.00    +0.389 N 
ATOM     19  H   UNL     1      35.168 -12.218 -24.597  0.00  0.00    -0.080 HD
BRANCH  18  20
ATOM     20  C   UNL     1      33.942 -11.795 -26.164  0.00  0.00    -0.077 C 
ATOM     21  C   UNL     1      33.354 -13.048 -26.791  0.00  0.00    -0.025 C 
ENDBRANCH  18  20
BRANCH  18  22
ATOM     22  C   UNL     1      33.893 -10.748 -24.001  0.00  0.00    -0.077 C 
ATOM     23  C   UNL     1      34.854  -9.639 -24.393  0.00  0.00    -0.025 C 
ENDBRANCH  18  22
ENDBRANCH  17  18
ENDBRANCH  16  17
ENDBRANCH  15  16
ENDBRANCH  14  15
ENDBRANCH  13  14
ENDBRANCH   1  13
TORSDOF 12
ENDMDL
MODEL 5
REMARK VINA RESULT:      -8.0      1.471      1.924
REMARK  Name = 28892
REMARK  12 active torsions:
REMARK  status: ('A' for Active; 'I' for Inactive)
REMARK    1  A    between atoms: O_1  and  C_3
REMARK    2  A    between atoms: O_1  and  C_13
REMARK    3  A    between atoms: C_3  and  C_4
REMARK    4  A    between atoms: C_4  and  C_5
REMARK    5  A    between atoms: C_4  and  C_11
REMARK    6  A    between atoms: C_13  and  C_14
REMARK    7  A    between atoms: C_14  and  O_15
REMARK    8  A    between atoms: O_15  and  C_16
REMARK    9  A    between atoms: C_16  and  C_17
REMARK   10  A    between atoms: C_17  and  N_18
REMARK   11  A    between atoms: N_18  and  C_20
REMARK   12  A    between atoms: N_18  and  C_22
REMARK                            x       y       z     vdW  Elec       q    Type
REMARK                         _______ _______ _______ _____ _____    ______ ____
ROOT
ATOM      1  O   UNL     1      34.085 -15.957 -22.165  0.00  0.00    -0.446 OA
ENDROOT
BRANCH   1   3
ATOM      2  O   UNL     1      35.171 -16.384 -20.179  0.00  0.00    -0.250 OA
ATOM      3  C   UNL     1      34.831 -16.716 -21.307  0.00  0.00    +0.321 C 
BRANCH   3   4
ATOM      4  C   UNL     1      35.185 -18.040 -21.979  0.00  0.00    +0.121 C 
BRANCH   4   5
ATOM      5  C   UNL     1      34.739 -19.226 -21.137  0.00  0.00    -0.012 C 
ATOM      6  C   UNL     1      33.391 -19.416 -20.911  0.00  0.00    -0.004 C 
ATOM      7  C   UNL     1      35.697 -20.078 -20.624  0.00  0.00    -0.004 C 
ATOM      8  C   UNL     1      32.983 -20.502 -20.139  0.00  0.00    -0.000 C 
ATOM      9  C   UNL     1      35.289 -21.164 -19.852  0.00  0.00    -0.000 C 
ATOM     10  C   UNL     1      33.932 -21.378 -19.609  0.00  0.00    -0.000 C 
ENDBRANCH   4   5
BRANCH   4  11
ATOM     11  C   UNL     1      34.638 -18.059 -23.421  0.00  0.00    +0.016 C 
ATOM     12  C   UNL     1      34.981 -19.340 -24.171  0.00  0.00    +0.001 C 
ENDBRANCH   4  11
ENDBRANCH   3   4
ENDBRANCH   1   3
BRANCH   1  13
ATOM     13  C   UNL     1      34.061 -14.553 -21.887  0.00  0.00    +0.240 C 
BRANCH  13  14
ATOM     14  C   UNL     1      33.776 -13.799 -23.171  0.00  0.00    +0.189 C 
BRANCH  14  15
ATOM     15  O   UNL     1      32.439 -13.313 -23.137  0.00  0.00    -0.352 OA
BRANCH  15  16
ATOM     16  C   UNL     1      32.103 -12.804 -21.855  0.00  0.00    +0.120 C 
BRANCH  16  17
ATOM     17  C   UNL     1      31.365 -11.487 -22.030  0.00  0.00    -0.045 C 
BRANCH  17  18
ATOM     18  N   UNL     1      32.290 -10.366 -21.955  0.00  0.00    +0.389 N 
ATOM     19  H   UNL     1      33.197 -10.725 -21.658  0.00  0.00    -0.080 HD
BRANCH  18  20
ATOM     20  C   UNL     1      32.446  -9.735 -23.268  0.00  0.00    -0.077 C 
ATOM     21  C   UNL     1      33.793 -10.076 -23.884  0.00  0.00    -0.025 C 
ENDBRANCH  18  20
BRANCH  18  22
ATOM     22  C   UNL     1      31.832  -9.381 -20.972  0.00  0.00    -0.077 C 
ATOM     23  C   UNL     1      31.884  -9.947 -19.563  0.00  0.00    -0.025 C 
ENDBRANCH  18  22
ENDBRANCH  17  18
ENDBRANCH  16  17
ENDBRANCH  15  16
ENDBRANCH  14  15
ENDBRANCH  13  14
ENDBRANCH   1  13
TORSDOF 12
ENDMDL
MODEL 6
REMARK VINA RESULT:      -8.0      1.470      2.860
REMARK  Name = 28892
REMARK  12 active torsions:
REMARK  status: ('A' for Active; 'I' for Inactive)
REMARK    1  A    between atoms: O_1  and  C_3
REMARK    2  A    between atoms: O_1  and  C_13
REMARK    3  A    between atoms: C_3  and  C_4
REMARK    4  A    between atoms: C_4  and  C_5
REMARK    5  A    between atoms: C_4  and  C_11
REMARK    6  A    between atoms: C_13  and  C_14
REMARK    7  A    between atoms: C_14  and  O_15
REMARK    8  A    between atoms: O_15  and  C_16
REMARK    9  A    between atoms: C_16  and  C_17
REMARK   10  A    between atoms: C_17  and  N_18
REMARK   11  A    between atoms: N_18  and  C_20
REMARK   12  A    between atoms: N_18  and  C_22
REMARK                            x       y       z     vdW  Elec       q    Type
REMARK                         _______ _______ _______ _____ _____    ______ ____
ROOT
ATOM      1  O   UNL     1      34.928 -17.156 -23.963  0.00  0.00    -0.446 OA
ENDROOT
BRANCH   1   3
ATOM      2  O   UNL     1      34.967 -19.453 -23.798  0.00  0.00    -0.250 OA
ATOM      3  C   UNL     1      34.784 -18.347 -23.307  0.00  0.00    +0.321 C 
BRANCH   3   4
ATOM      4  C   UNL     1      34.349 -18.084 -21.868  0.00  0.00    +0.121 C 
BRANCH   4   5
ATOM      5  C   UNL     1      34.447 -19.343 -21.020  0.00  0.00    -0.012 C 
ATOM      6  C   UNL     1      35.694 -19.812 -20.663  0.00  0.00    -0.004 C 
ATOM      7  C   UNL     1      33.284 -19.978 -20.632  0.00  0.00    -0.004 C 
ATOM      8  C   UNL     1      35.784 -20.966 -19.886  0.00  0.00    -0.000 C 
ATOM      9  C   UNL     1      33.374 -21.132 -19.855  0.00  0.00    -0.000 C 
ATOM     10  C   UNL     1      34.624 -21.627 -19.481  0.00  0.00    -0.000 C 
ENDBRANCH   4   5
BRANCH   4  11
ATOM     11  C   UNL     1      35.129 -16.883 -21.295  0.00  0.00    +0.016 C 
ATOM     12  C   UNL     1      34.221 -15.764 -20.798  0.00  0.00    +0.001 C 
ENDBRANCH   4  11
ENDBRANCH   3   4
ENDBRANCH   1   3
BRANCH   1  13
ATOM     13  C   UNL     1      34.300 -17.077 -25.247  0.00  0.00    +0.240 C 
BRANCH  13  14
ATOM     14  C   UNL     1      33.743 -15.681 -25.442  0.00  0.00    +0.189 C 
BRANCH  14  15
ATOM     15  O   UNL     1      33.897 -14.947 -24.233  0.00  0.00    -0.352 OA
BRANCH  15  16
ATOM     16  C   UNL     1      32.997 -13.850 -24.173  0.00  0.00    +0.120 C 
BRANCH  16  17
ATOM     17  C   UNL     1      33.747 -12.630 -23.660  0.00  0.00    -0.045 C 
BRANCH  17  18
ATOM     18  N   UNL     1      33.489 -11.475 -24.506  0.00  0.00    +0.389 N 
ATOM     19  H   UNL     1      32.513 -11.509 -24.798  0.00  0.00    -0.080 HD
BRANCH  18  20
ATOM     20  C   UNL     1      33.711 -10.231 -23.766  0.00  0.00    -0.077 C 
ATOM     21  C   UNL     1      32.445  -9.782 -23.055  0.00  0.00    -0.025 C 
ENDBRANCH  18  20
BRANCH  18  22
ATOM     22  C   UNL     1      34.335 -11.510 -25.702  0.00  0.00    -0.077 C 
ATOM     23  C   UNL     1      35.347 -10.377 -25.692  0.00  0.00    -0.025 C 
ENDBRANCH  18  22
ENDBRANCH  17  18
ENDBRANCH  16  17
ENDBRANCH  15  16
ENDBRANCH  14  15
ENDBRANCH  13  14
ENDBRANCH   1  13
TORSDOF 12
ENDMDL
MODEL 7
REMARK VINA RESULT:      -8.0      1.250      2.342
REMARK  Name = 28892
REMARK  12 active torsions:
REMARK  status: ('A' for Active; 'I' for Inactive)
REMARK    1  A    between atoms: O_1  and  C_3
REMARK    2  A    between atoms: O_1  and  C_13
REMARK    3  A    between atoms: C_3  and  C_4
REMARK    4  A    between atoms: C_4  and  C_5
REMARK    5  A    between atoms: C_4  and  C_11
REMARK    6  A    between atoms: C_13  and  C_14
REMARK    7  A    between atoms: C_14  and  O_15
REMARK    8  A    between atoms: O_15  and  C_16
REMARK    9  A    between atoms: C_16  and  C_17
REMARK   10  A    between atoms: C_17  and  N_18
REMARK   11  A    between atoms: N_18  and  C_20
REMARK   12  A    between atoms: N_18  and  C_22
REMARK                            x       y       z     vdW  Elec       q    Type
REMARK                         _______ _______ _______ _____ _____    ______ ____
ROOT
ATOM      1  O   UNL     1      33.669 -16.054 -21.796  0.00  0.00    -0.446 OA
ENDROOT
BRANCH   1   3
ATOM      2  O   UNL     1      35.196 -16.200 -20.079  0.00  0.00    -0.250 OA
ATOM      3  C   UNL     1      34.699 -16.634 -21.109  0.00  0.00    +0.321 C 
BRANCH   3   4
ATOM      4  C   UNL     1      35.141 -17.901 -21.835  0.00  0.00    +0.121 C 
BRANCH   4   5
ATOM      5  C   UNL     1      34.744 -19.150 -21.062  0.00  0.00    -0.012 C 
ATOM      6  C   UNL     1      35.733 -20.001 -20.614  0.00  0.00    -0.004 C 
ATOM      7  C   UNL     1      33.405 -19.394 -20.832  0.00  0.00    -0.004 C 
ATOM      8  C   UNL     1      35.369 -21.145 -19.906  0.00  0.00    -0.000 C 
ATOM      9  C   UNL     1      33.040 -20.539 -20.124  0.00  0.00    -0.000 C 
ATOM     10  C   UNL     1      34.023 -21.415 -19.660  0.00  0.00    -0.000 C 
ENDBRANCH   4   5
BRANCH   4  11
ATOM     11  C   UNL     1      34.629 -17.879 -23.290  0.00  0.00    +0.016 C 
ATOM     12  C   UNL     1      34.941 -19.162 -24.051  0.00  0.00    +0.001 C 
ENDBRANCH   4  11
ENDBRANCH   3   4
ENDBRANCH   1   3
BRANCH   1  13
ATOM     13  C   UNL     1      32.612 -15.521 -20.991  0.00  0.00    +0.240 C 
BRANCH  13  14
ATOM     14  C   UNL     1      32.683 -14.007 -21.019  0.00  0.00    +0.189 C 
BRANCH  14  15
ATOM     15  O   UNL     1      31.918 -13.525 -22.118  0.00  0.00    -0.352 OA
BRANCH  15  16
ATOM     16  C   UNL     1      32.482 -12.343 -22.666  0.00  0.00    +0.120 C 
BRANCH  16  17
ATOM     17  C   UNL     1      33.636 -12.729 -23.577  0.00  0.00    -0.045 C 
BRANCH  17  18
ATOM     18  N   UNL     1      33.141 -13.196 -24.863  0.00  0.00    +0.389 N 
ATOM     19  H   UNL     1      32.132 -13.050 -24.884  0.00  0.00    -0.080 HD
BRANCH  18  20
ATOM     20  C   UNL     1      33.746 -12.434 -25.959  0.00  0.00    -0.077 C 
ATOM     21  C   UNL     1      34.455 -11.195 -25.439  0.00  0.00    -0.025 C 
ENDBRANCH  18  20
BRANCH  18  22
ATOM     22  C   UNL     1      33.410 -14.627 -25.034  0.00  0.00    -0.077 C 
ATOM     23  C   UNL     1      32.928 -15.118 -26.388  0.00  0.00    -0.025 C 
ENDBRANCH  18  22
ENDBRANCH  17  18
ENDBRANCH  16  17
ENDBRANCH  15  16
ENDBRANCH  14  15
ENDBRANCH  13  14
ENDBRANCH   1  13
TORSDOF 12
ENDMDL
MODEL 8
REMARK VINA RESULT:      -7.8      1.738      2.895
REMARK  Name = 28892
REMARK  12 active torsions:
REMARK  status: ('A' for Active; 'I' for Inactive)
REMARK    1  A    between atoms: O_1  and  C_3
REMARK    2  A    between atoms: O_1  and  C_13
REMARK    3  A    between atoms: C_3  and  C_4
REMARK    4  A    between atoms: C_4  and  C_5
REMARK    5  A    between atoms: C_4  and  C_11
REMARK    6  A    between atoms: C_13  and  C_14
REMARK    7  A    between atoms: C_14  and  O_15
REMARK    8  A    between atoms: O_15  and  C_16
REMARK    9  A    between atoms: C_16  and  C_17
REMARK   10  A    between atoms: C_17  and  N_18
REMARK   11  A    between atoms: N_18  and  C_20
REMARK   12  A    between atoms: N_18  and  C_22
REMARK                            x       y       z     vdW  Elec       q    Type
REMARK                         _______ _______ _______ _____ _____    ______ ____
ROOT
ATOM      1  O   UNL     1      35.472 -17.613 -23.897  0.00  0.00    -0.446 OA
ENDROOT
BRANCH   1   3
ATOM      2  O   UNL     1      34.862 -19.832 -23.809  0.00  0.00    -0.250 OA
ATOM      3  C   UNL     1      34.942 -18.722 -23.299  0.00  0.00    +0.321 C 
BRANCH   3   4
ATOM      4  C   UNL     1      34.456 -18.359 -21.899  0.00  0.00    +0.121 C 
BRANCH   4   5
ATOM      5  C   UNL     1      34.420 -19.579 -20.991  0.00  0.00    -0.012 C 
ATOM      6  C   UNL     1      35.610 -20.162 -20.607  0.00  0.00    -0.004 C 
ATOM      7  C   UNL     1      33.196 -20.068 -20.577  0.00  0.00    -0.004 C 
ATOM      8  C   UNL     1      35.578 -21.280 -19.775  0.00  0.00    -0.000 C 
ATOM      9  C   UNL     1      33.163 -21.186 -19.745  0.00  0.00    -0.000 C 
ATOM     10  C   UNL     1      34.354 -21.792 -19.343  0.00  0.00    -0.000 C 
ENDBRANCH   4   5
BRANCH   4  11
ATOM     11  C   UNL     1      35.291 -17.190 -21.339  0.00  0.00    +0.016 C 
ATOM     12  C   UNL     1      34.436 -16.026 -20.853  0.00  0.00    +0.001 C 
ENDBRANCH   4  11
ENDBRANCH   3   4
ENDBRANCH   1   3
BRANCH   1  13
ATOM     13  C   UNL     1      34.719 -17.083 -24.994  0.00  0.00    +0.240 C 
BRANCH  13  14
ATOM     14  C   UNL     1      33.970 -15.849 -24.530  0.00  0.00    +0.189 C 
BRANCH  14  15
ATOM     15  O   UNL     1      33.477 -15.151 -25.668  0.00  0.00    -0.352 OA
BRANCH  15  16
ATOM     16  C   UNL     1      33.037 -13.844 -25.326  0.00  0.00    +0.120 C 
BRANCH  16  17
ATOM     17  C   UNL     1      32.875 -13.763 -23.817  0.00  0.00    -0.045 C 
BRANCH  17  18
ATOM     18  N   UNL     1      33.290 -12.458 -23.324  0.00  0.00    +0.389 N 
ATOM     19  H   UNL     1      34.027 -12.602 -22.635  0.00  0.00    -0.080 HD
BRANCH  18  20
ATOM     20  C   UNL     1      33.823 -11.638 -24.415  0.00  0.00    -0.077 C 
ATOM     21  C   UNL     1      33.910 -10.177 -24.010  0.00  0.00    -0.025 C 
ENDBRANCH  18  20
BRANCH  18  22
ATOM     22  C   UNL     1      32.171 -11.770 -22.675  0.00  0.00    -0.077 C 
ATOM     23  C   UNL     1      31.874 -12.370 -21.311  0.00  0.00    -0.025 C 
ENDBRANCH  18  22
ENDBRANCH  17  18
ENDBRANCH  16  17
ENDBRANCH  15  16
ENDBRANCH  14  15
ENDBRANCH  13  14
ENDBRANCH   1  13
TORSDOF 12
ENDMDL
MODEL 9
REMARK VINA RESULT:      -7.5      1.633      2.774
REMARK  Name = 28892
REMARK  12 active torsions:
REMARK  status: ('A' for Active; 'I' for Inactive)
REMARK    1  A    between atoms: O_1  and  C_3
REMARK    2  A    between atoms: O_1  and  C_13
REMARK    3  A    between atoms: C_3  and  C_4
REMARK    4  A    between atoms: C_4  and  C_5
REMARK    5  A    between atoms: C_4  and  C_11
REMARK    6  A    between atoms: C_13  and  C_14
REMARK    7  A    between atoms: C_14  and  O_15
REMARK    8  A    between atoms: O_15  and  C_16
REMARK    9  A    between atoms: C_16  and  C_17
REMARK   10  A    between atoms: C_17  and  N_18
REMARK   11  A    between atoms: N_18  and  C_20
REMARK   12  A    between atoms: N_18  and  C_22
REMARK                            x       y       z     vdW  Elec       q    Type
REMARK                         _______ _______ _______ _____ _____    ______ ____
ROOT
ATOM      1  O   UNL     1      34.842 -15.941 -23.847  0.00  0.00    -0.446 OA
ENDROOT
BRANCH   1   3
ATOM      2  O   UNL     1      34.934 -18.225 -24.124  0.00  0.00    -0.250 OA
ATOM      3  C   UNL     1      34.720 -17.238 -23.433  0.00  0.00    +0.321 C 
BRANCH   3   4
ATOM      4  C   UNL     1      34.264 -17.264 -21.977  0.00  0.00    +0.121 C 
BRANCH   4   5
ATOM      5  C   UNL     1      34.698 -18.547 -21.284  0.00  0.00    -0.012 C 
ATOM      6  C   UNL     1      36.043 -18.770 -21.070  0.00  0.00    -0.004 C 
ATOM      7  C   UNL     1      33.732 -19.451 -20.888  0.00  0.00    -0.004 C 
ATOM      8  C   UNL     1      36.440 -19.946 -20.435  0.00  0.00    -0.000 C 
ATOM      9  C   UNL     1      34.129 -20.627 -20.253  0.00  0.00    -0.000 C 
ATOM     10  C   UNL     1      35.483 -20.875 -20.026  0.00  0.00    -0.000 C 
ENDBRANCH   4   5
BRANCH   4  11
ATOM     11  C   UNL     1      34.727 -15.980 -21.258  0.00  0.00    +0.016 C 
ATOM     12  C   UNL     1      33.596 -15.262 -20.533  0.00  0.00    +0.001 C 
ENDBRANCH   4  11
ENDBRANCH   3   4
ENDBRANCH   1   3
BRANCH   1  13
ATOM     13  C   UNL     1      33.870 -15.502 -24.802  0.00  0.00    +0.240 C 
BRANCH  13  14
ATOM     14  C   UNL     1      33.076 -14.354 -24.211  0.00  0.00    +0.189 C 
BRANCH  14  15
ATOM     15  O   UNL     1      33.635 -13.124 -24.658  0.00  0.00    -0.352 OA
BRANCH  15  16
ATOM     16  C   UNL     1      33.650 -12.152 -23.623  0.00  0.00    +0.120 C 
BRANCH  16  17
ATOM     17  C   UNL     1      33.567 -10.770 -24.250  0.00  0.00    -0.045 C 
BRANCH  17  18
ATOM     18  N   UNL     1      33.322  -9.758 -23.233  0.00  0.00    +0.389 N 
ATOM     19  H   UNL     1      34.038  -9.855 -22.513  0.00  0.00    -0.080 HD
BRANCH  18  20
ATOM     20  C   UNL     1      33.417  -8.413 -23.807  0.00  0.00    -0.077 C 
ATOM     21  C   UNL     1      34.738  -7.755 -23.444  0.00  0.00    -0.025 C 
ENDBRANCH  18  20
BRANCH  18  22
ATOM     22  C   UNL     1      32.008  -9.953 -22.614  0.00  0.00    -0.077 C 
ATOM     23  C   UNL     1      31.916  -9.227 -21.283  0.00  0.00    -0.025 C 
ENDBRANCH  18  22
ENDBRANCH  17  18
ENDBRANCH  16  17
ENDBRANCH  15  16
ENDBRANCH  14  15
ENDBRANCH  13  14
ENDBRANCH   1  13
TORSDOF 12
ENDMDL
