MODEL 1
REMARK VINA RESULT:      -8.7      0.000      0.000
REMARK  Name = 5287785
REMARK  6 active torsions:
REMARK  status: ('A' for Active; 'I' for Inactive)
REMARK    1  A    between atoms: C_1  and  N_12
REMARK    2  A    between atoms: C_2  and  C_10
REMARK    3  A    between atoms: C_4  and  N_23
REMARK    4  A    between atoms: C_13  and  C_15
REMARK    5  A    between atoms: C_15  and  C_18
REMARK    6  A    between atoms: C_15  and  O_19
REMARK                            x       y       z     vdW  Elec       q    Type
REMARK                         _______ _______ _______ _____ _____    ______ ____
ROOT
ATOM      1  C   UNL     1      33.871 -18.846 -21.038  0.00  0.00    +0.050 C 
ATOM      2  C   UNL     1      35.228 -20.613 -20.150  0.00  0.00    +0.095 C 
ATOM      3  C   UNL     1      35.125 -19.388 -20.808  0.00  0.00    +0.020 C 
ATOM      4  C   UNL     1      34.077 -21.279 -19.731  0.00  0.00    +0.147 C 
ATOM      5  C   UNL     1      32.718 -19.495 -20.629  0.00  0.00    +0.016 C 
ATOM      6  C   UNL     1      32.822 -20.720 -19.970  0.00  0.00    +0.025 C 
ENDROOT
BRANCH   2  10
ATOM      7  F   UNL     1      36.835 -21.458 -18.593  0.00  0.00    -0.166 F 
ATOM      8  F   UNL     1      36.810 -22.358 -20.566  0.00  0.00    -0.166 F 
ATOM      9  F   UNL     1      37.586 -20.344 -20.302  0.00  0.00    -0.166 F 
ATOM     10  C   UNL     1      36.588 -21.185 -19.907  0.00  0.00    +0.420 C 
ENDBRANCH   2  10
BRANCH   1  12
ATOM     11  O   UNL     1      34.961 -16.162 -20.297  0.00  0.00    -0.272 OA
ATOM     12  N   UNL     1      33.766 -17.602 -21.704  0.00  0.00    -0.282 N 
ATOM     13  C   UNL     1      34.300 -16.379 -21.310  0.00  0.00    +0.251 C 
ATOM     14  H   UNL     1      33.255 -17.601 -22.547  0.00  0.00    +0.155 HD
BRANCH  13  15
ATOM     15  C   UNL     1      33.976 -15.239 -22.295  0.00  0.00    +0.167 C 
ATOM     16  C   UNL     1      32.626 -14.603 -21.942  0.00  0.00    +0.040 C 
BRANCH  15  18
ATOM     17 BR   UNL     1      33.186 -14.320 -24.929  0.00  0.00    -0.078 Br
ATOM     18  C   UNL     1      33.975 -15.677 -23.762  0.00  0.00    +0.103 C 
ENDBRANCH  15  18
BRANCH  15  19
ATOM     19  O   UNL     1      34.969 -14.225 -22.142  0.00  0.00    -0.377 OA
ATOM     20  H   UNL     1      34.560 -13.423 -21.778  0.00  0.00    +0.211 HD
ENDBRANCH  15  19
ENDBRANCH  13  15
ENDBRANCH   1  12
BRANCH   4  23
ATOM     21  O   UNL     1      34.128 -23.584 -19.734  0.00  0.00    -0.126 OA
ATOM     22  O   UNL     1      34.257 -22.540 -17.809  0.00  0.00    -0.126 OA
ATOM     23  N   UNL     1      34.158 -22.529 -19.058  0.00  0.00    +0.058 N 
ENDBRANCH   4  23
TORSDOF 6
ENDMDL
MODEL 2
REMARK VINA RESULT:      -8.6      3.681      4.915
REMARK  Name = 5287785
REMARK  6 active torsions:
REMARK  status: ('A' for Active; 'I' for Inactive)
REMARK    1  A    between atoms: C_1  and  N_12
REMARK    2  A    between atoms: C_2  and  C_10
REMARK    3  A    between atoms: C_4  and  N_23
REMARK    4  A    between atoms: C_13  and  C_15
REMARK    5  A    between atoms: C_15  and  C_18
REMARK    6  A    between atoms: C_15  and  O_19
REMARK                            x       y       z     vdW  Elec       q    Type
REMARK                         _______ _______ _______ _____ _____    ______ ____
ROOT
ATOM      1  C   UNL     1      34.499 -14.579 -22.783  0.00  0.00    +0.050 C 
ATOM      2  C   UNL     1      34.781 -16.950 -23.013  0.00  0.00    +0.095 C 
ATOM      3  C   UNL     1      34.724 -15.682 -23.591  0.00  0.00    +0.020 C 
ATOM      4  C   UNL     1      34.613 -17.097 -21.637  0.00  0.00    +0.147 C 
ATOM      5  C   UNL     1      34.329 -14.709 -21.415  0.00  0.00    +0.016 C 
ATOM      6  C   UNL     1      34.387 -15.977 -20.837  0.00  0.00    +0.025 C 
ENDROOT
BRANCH   2  10
ATOM      7  F   UNL     1      36.212 -18.759 -23.646  0.00  0.00    -0.166 F 
ATOM      8  F   UNL     1      34.074 -19.101 -23.784  0.00  0.00    -0.166 F 
ATOM      9  F   UNL     1      35.059 -17.797 -25.218  0.00  0.00    -0.166 F 
ATOM     10  C   UNL     1      35.026 -18.131 -23.897  0.00  0.00    +0.420 C 
ENDBRANCH   2  10
BRANCH   1  12
ATOM     11  O   UNL     1      32.256 -12.605 -22.889  0.00  0.00    -0.272 OA
ATOM     12  N   UNL     1      34.442 -13.292 -23.369  0.00  0.00    -0.282 N 
ATOM     13  C   UNL     1      33.365 -12.412 -23.384  0.00  0.00    +0.251 C 
ATOM     14  H   UNL     1      35.262 -12.982 -23.818  0.00  0.00    +0.155 HD
BRANCH  13  15
ATOM     15  C   UNL     1      33.677 -11.095 -24.122  0.00  0.00    +0.167 C 
ATOM     16  C   UNL     1      32.577 -10.063 -23.848  0.00  0.00    +0.040 C 
BRANCH  15  18
ATOM     17 BR   UNL     1      35.531 -10.460 -26.258  0.00  0.00    -0.078 Br
ATOM     18  C   UNL     1      33.863 -11.267 -25.631  0.00  0.00    +0.103 C 
ENDBRANCH  15  18
BRANCH  15  19
ATOM     19  O   UNL     1      34.891 -10.565 -23.588  0.00  0.00    -0.377 OA
ATOM     20  H   UNL     1      35.608 -11.207 -23.715  0.00  0.00    +0.211 HD
ENDBRANCH  15  19
ENDBRANCH  13  15
ENDBRANCH   1  12
BRANCH   4  23
ATOM     21  O   UNL     1      33.613 -19.050 -20.928  0.00  0.00    -0.126 OA
ATOM     22  O   UNL     1      35.770 -18.805 -20.604  0.00  0.00    -0.126 OA
ATOM     23  N   UNL     1      34.668 -18.380 -21.026  0.00  0.00    +0.058 N 
ENDBRANCH   4  23
TORSDOF 6
ENDMDL
MODEL 3
REMARK VINA RESULT:      -8.2      5.676      7.818
REMARK  Name = 5287785
REMARK  6 active torsions:
REMARK  status: ('A' for Active; 'I' for Inactive)
REMARK    1  A    between atoms: C_1  and  N_12
REMARK    2  A    between atoms: C_2  and  C_10
REMARK    3  A    between atoms: C_4  and  N_23
REMARK    4  A    between atoms: C_13  and  C_15
REMARK    5  A    between atoms: C_15  and  C_18
REMARK    6  A    between atoms: C_15  and  O_19
REMARK                            x       y       z     vdW  Elec       q    Type
REMARK                         _______ _______ _______ _____ _____    ______ ____
ROOT
ATOM      1  C   UNL     1      35.712 -23.405 -15.579  0.00  0.00    +0.050 C 
ATOM      2  C   UNL     1      37.315 -24.445 -14.130  0.00  0.00    +0.095 C 
ATOM      3  C   UNL     1      36.965 -23.964 -15.391  0.00  0.00    +0.020 C 
ATOM      4  C   UNL     1      36.408 -24.359 -13.075  0.00  0.00    +0.147 C 
ATOM      5  C   UNL     1      34.799 -23.314 -14.542  0.00  0.00    +0.016 C 
ATOM      6  C   UNL     1      35.150 -23.794 -13.281  0.00  0.00    +0.025 C 
ENDROOT
BRANCH   2  10
ATOM      7  F   UNL     1      39.528 -24.786 -14.972  0.00  0.00    -0.166 F 
ATOM      8  F   UNL     1      39.312 -24.597 -12.822  0.00  0.00    -0.166 F 
ATOM      9  F   UNL     1      38.632 -26.402 -13.826  0.00  0.00    -0.166 F 
ATOM     10  C   UNL     1      38.672 -25.044 -13.941  0.00  0.00    +0.420 C 
ENDBRANCH   2  10
BRANCH   1  12
ATOM     11  O   UNL     1      33.099 -23.511 -17.029  0.00  0.00    -0.272 OA
ATOM     12  N   UNL     1      35.357 -22.916 -16.859  0.00  0.00    -0.282 N 
ATOM     13  C   UNL     1      34.117 -22.992 -17.484  0.00  0.00    +0.251 C 
ATOM     14  H   UNL     1      36.072 -22.468 -17.368  0.00  0.00    +0.155 HD
BRANCH  13  15
ATOM     15  C   UNL     1      34.110 -22.345 -18.883  0.00  0.00    +0.167 C 
ATOM     16  C   UNL     1      35.420 -21.584 -19.119  0.00  0.00    +0.040 C 
BRANCH  15  18
ATOM     17 BR   UNL     1      33.242 -20.180 -20.605  0.00  0.00    -0.078 Br
ATOM     18  C   UNL     1      32.919 -21.413 -19.122  0.00  0.00    +0.103 C 
ENDBRANCH  15  18
BRANCH  15  19
ATOM     19  O   UNL     1      34.050 -23.390 -19.855  0.00  0.00    -0.377 OA
ATOM     20  H   UNL     1      34.732 -24.052 -19.660  0.00  0.00    +0.211 HD
ENDBRANCH  15  19
ENDBRANCH  13  15
ENDBRANCH   1  12
BRANCH   4  23
ATOM     21  O   UNL     1      36.675 -26.074 -11.556  0.00  0.00    -0.126 OA
ATOM     22  O   UNL     1      37.098 -24.023 -10.900  0.00  0.00    -0.126 OA
ATOM     23  N   UNL     1      36.743 -24.843 -11.780  0.00  0.00    +0.058 N 
ENDBRANCH   4  23
TORSDOF 6
ENDMDL
MODEL 4
REMARK VINA RESULT:      -8.1      8.185      9.614
REMARK  Name = 5287785
REMARK  6 active torsions:
REMARK  status: ('A' for Active; 'I' for Inactive)
REMARK    1  A    between atoms: C_1  and  N_12
REMARK    2  A    between atoms: C_2  and  C_10
REMARK    3  A    between atoms: C_4  and  N_23
REMARK    4  A    between atoms: C_13  and  C_15
REMARK    5  A    between atoms: C_15  and  C_18
REMARK    6  A    between atoms: C_15  and  O_19
REMARK                            x       y       z     vdW  Elec       q    Type
REMARK                         _______ _______ _______ _____ _____    ______ ____
ROOT
ATOM      1  C   UNL     1      33.956 -23.402 -15.513  0.00  0.00    +0.050 C 
ATOM      2  C   UNL     1      31.631 -23.428 -14.925  0.00  0.00    +0.095 C 
ATOM      3  C   UNL     1      32.971 -23.494 -14.544  0.00  0.00    +0.020 C 
ATOM      4  C   UNL     1      31.296 -23.269 -16.270  0.00  0.00    +0.147 C 
ATOM      5  C   UNL     1      33.640 -23.244 -16.852  0.00  0.00    +0.016 C 
ATOM      6  C   UNL     1      32.300 -23.177 -17.233  0.00  0.00    +0.025 C 
ENDROOT
BRANCH   2  10
ATOM      7  F   UNL     1      29.572 -22.618 -14.017  0.00  0.00    -0.166 F 
ATOM      8  F   UNL     1      29.960 -24.744 -13.830  0.00  0.00    -0.166 F 
ATOM      9  F   UNL     1      31.075 -23.326 -12.615  0.00  0.00    -0.166 F 
ATOM     10  C   UNL     1      30.578 -23.528 -13.869  0.00  0.00    +0.420 C 
ENDBRANCH   2  10
BRANCH   1  12
ATOM     11  O   UNL     1      35.889 -25.680 -15.635  0.00  0.00    -0.272 OA
ATOM     12  N   UNL     1      35.316 -23.468 -15.126  0.00  0.00    -0.282 N 
ATOM     13  C   UNL     1      36.171 -24.562 -15.210  0.00  0.00    +0.251 C 
ATOM     14  H   UNL     1      35.703 -22.642 -14.754  0.00  0.00    +0.155 HD
BRANCH  13  15
ATOM     15  C   UNL     1      37.589 -24.255 -14.689  0.00  0.00    +0.167 C 
ATOM     16  C   UNL     1      38.401 -25.551 -14.572  0.00  0.00    +0.040 C 
BRANCH  15  18
ATOM     17 BR   UNL     1      36.785 -24.566 -11.921  0.00  0.00    -0.078 Br
ATOM     18  C   UNL     1      37.604 -23.512 -13.351  0.00  0.00    +0.103 C 
ENDBRANCH  15  18
BRANCH  15  19
ATOM     19  O   UNL     1      38.247 -23.433 -15.653  0.00  0.00    -0.377 OA
ATOM     20  H   UNL     1      39.198 -23.630 -15.652  0.00  0.00    +0.211 HD
ENDBRANCH  15  19
ENDBRANCH  13  15
ENDBRANCH   1  12
BRANCH   4  23
ATOM     21  O   UNL     1      29.462 -22.088 -17.018  0.00  0.00    -0.126 OA
ATOM     22  O   UNL     1      29.252 -24.249 -16.696  0.00  0.00    -0.126 OA
ATOM     23  N   UNL     1      29.936 -23.198 -16.681  0.00  0.00    +0.058 N 
ENDBRANCH   4  23
TORSDOF 6
ENDMDL
MODEL 5
REMARK VINA RESULT:      -8.0      5.431      8.833
REMARK  Name = 5287785
REMARK  6 active torsions:
REMARK  status: ('A' for Active; 'I' for Inactive)
REMARK    1  A    between atoms: C_1  and  N_12
REMARK    2  A    between atoms: C_2  and  C_10
REMARK    3  A    between atoms: C_4  and  N_23
REMARK    4  A    between atoms: C_13  and  C_15
REMARK    5  A    between atoms: C_15  and  C_18
REMARK    6  A    between atoms: C_15  and  O_19
REMARK                            x       y       z     vdW  Elec       q    Type
REMARK                         _______ _______ _______ _____ _____    ______ ____
ROOT
ATOM      1  C   UNL     1      33.254 -14.129 -22.421  0.00  0.00    +0.050 C 
ATOM      2  C   UNL     1      32.225 -12.149 -21.544  0.00  0.00    +0.095 C 
ATOM      3  C   UNL     1      32.560 -13.495 -21.404  0.00  0.00    +0.020 C 
ATOM      4  C   UNL     1      32.589 -11.456 -22.698  0.00  0.00    +0.147 C 
ATOM      5  C   UNL     1      33.623 -13.456 -23.573  0.00  0.00    +0.016 C 
ATOM      6  C   UNL     1      33.288 -12.109 -23.713  0.00  0.00    +0.025 C 
ENDROOT
BRANCH   2  10
ATOM      7  F   UNL     1      31.943 -10.226 -20.149  0.00  0.00    -0.166 F 
ATOM      8  F   UNL     1      30.148 -11.313 -20.701  0.00  0.00    -0.166 F 
ATOM      9  F   UNL     1      31.539 -12.172 -19.267  0.00  0.00    -0.166 F 
ATOM     10  C   UNL     1      31.476 -11.476 -20.438  0.00  0.00    +0.420 C 
ENDBRANCH   2  10
BRANCH   1  12
ATOM     11  O   UNL     1      34.936 -15.493 -20.359  0.00  0.00    -0.272 OA
ATOM     12  N   UNL     1      33.596 -15.495 -22.279  0.00  0.00    -0.282 N 
ATOM     13  C   UNL     1      34.385 -16.075 -21.291  0.00  0.00    +0.251 C 
ATOM     14  H   UNL     1      33.232 -16.108 -22.958  0.00  0.00    +0.155 HD
BRANCH  13  15
ATOM     15  C   UNL     1      34.536 -17.600 -21.463  0.00  0.00    +0.167 C 
ATOM     16  C   UNL     1      34.874 -17.936 -22.920  0.00  0.00    +0.040 C 
BRANCH  15  18
ATOM     17 BR   UNL     1      33.757 -20.225 -20.513  0.00  0.00    -0.078 Br
ATOM     18  C   UNL     1      33.303 -18.392 -21.021  0.00  0.00    +0.103 C 
ENDBRANCH  15  18
BRANCH  15  19
ATOM     19  O   UNL     1      35.641 -18.029 -20.666  0.00  0.00    -0.377 OA
ATOM     20  H   UNL     1      36.161 -18.682 -21.160  0.00  0.00    +0.211 HD
ENDBRANCH  15  19
ENDBRANCH  13  15
ENDBRANCH   1  12
BRANCH   4  23
ATOM     21  O   UNL     1      31.063  -9.768 -23.069  0.00  0.00    -0.126 OA
ATOM     22  O   UNL     1      33.171  -9.226 -22.795  0.00  0.00    -0.126 OA
ATOM     23  N   UNL     1      32.258 -10.082 -22.862  0.00  0.00    +0.058 N 
ENDBRANCH   4  23
TORSDOF 6
ENDMDL
MODEL 6
REMARK VINA RESULT:      -8.0      5.859      8.748
REMARK  Name = 5287785
REMARK  6 active torsions:
REMARK  status: ('A' for Active; 'I' for Inactive)
REMARK    1  A    between atoms: C_1  and  N_12
REMARK    2  A    between atoms: C_2  and  C_10
REMARK    3  A    between atoms: C_4  and  N_23
REMARK    4  A    between atoms: C_13  and  C_15
REMARK    5  A    between atoms: C_15  and  C_18
REMARK    6  A    between atoms: C_15  and  O_19
REMARK                            x       y       z     vdW  Elec       q    Type
REMARK                         _______ _______ _______ _____ _____    ______ ____
ROOT
ATOM      1  C   UNL     1      33.417 -14.387 -22.998  0.00  0.00    +0.050 C 
ATOM      2  C   UNL     1      33.324 -12.046 -23.509  0.00  0.00    +0.095 C 
ATOM      3  C   UNL     1      33.840 -13.315 -23.766  0.00  0.00    +0.020 C 
ATOM      4  C   UNL     1      32.391 -11.866 -22.488  0.00  0.00    +0.147 C 
ATOM      5  C   UNL     1      32.493 -14.226 -21.980  0.00  0.00    +0.016 C 
ATOM      6  C   UNL     1      31.975 -12.956 -21.723  0.00  0.00    +0.025 C 
ENDROOT
BRANCH   2  10
ATOM      7  F   UNL     1      34.358 -11.282 -25.526  0.00  0.00    -0.166 F 
ATOM      8  F   UNL     1      32.788 -10.038 -24.694  0.00  0.00    -0.166 F 
ATOM      9  F   UNL     1      34.727 -10.137 -23.716  0.00  0.00    -0.166 F 
ATOM     10  C   UNL     1      33.788 -10.898 -24.347  0.00  0.00    +0.420 C 
ENDBRANCH   2  10
BRANCH   1  12
ATOM     11  O   UNL     1      35.018 -16.212 -21.252  0.00  0.00    -0.272 OA
ATOM     12  N   UNL     1      33.941 -15.676 -23.260  0.00  0.00    -0.282 N 
ATOM     13  C   UNL     1      34.680 -16.483 -22.402  0.00  0.00    +0.251 C 
ATOM     14  H   UNL     1      33.760 -16.046 -24.155  0.00  0.00    +0.155 HD
BRANCH  13  15
ATOM     15  C   UNL     1      35.080 -17.828 -23.040  0.00  0.00    +0.167 C 
ATOM     16  C   UNL     1      34.810 -17.797 -24.550  0.00  0.00    +0.040 C 
BRANCH  15  18
ATOM     17 BR   UNL     1      35.415 -19.799 -20.941  0.00  0.00    -0.078 Br
ATOM     18  C   UNL     1      34.379 -19.036 -22.414  0.00  0.00    +0.103 C 
ENDBRANCH  15  18
BRANCH  15  19
ATOM     19  O   UNL     1      36.486 -18.001 -22.869  0.00  0.00    -0.377 OA
ATOM     20  H   UNL     1      36.799 -17.418 -22.159  0.00  0.00    +0.211 HD
ENDBRANCH  15  19
ENDBRANCH  13  15
ENDBRANCH   1  12
BRANCH   4  23
ATOM     21  O   UNL     1      30.707 -10.298 -22.636  0.00  0.00    -0.126 OA
ATOM     22  O   UNL     1      32.533  -9.769 -21.540  0.00  0.00    -0.126 OA
ATOM     23  N   UNL     1      31.851 -10.581 -22.208  0.00  0.00    +0.058 N 
ENDBRANCH   4  23
TORSDOF 6
ENDMDL
MODEL 7
REMARK VINA RESULT:      -8.0      6.067      9.059
REMARK  Name = 5287785
REMARK  6 active torsions:
REMARK  status: ('A' for Active; 'I' for Inactive)
REMARK    1  A    between atoms: C_1  and  N_12
REMARK    2  A    between atoms: C_2  and  C_10
REMARK    3  A    between atoms: C_4  and  N_23
REMARK    4  A    between atoms: C_13  and  C_15
REMARK    5  A    between atoms: C_15  and  C_18
REMARK    6  A    between atoms: C_15  and  O_19
REMARK                            x       y       z     vdW  Elec       q    Type
REMARK                         _______ _______ _______ _____ _____    ______ ____
ROOT
ATOM      1  C   UNL     1      36.122 -22.662 -15.829  0.00  0.00    +0.050 C 
ATOM      2  C   UNL     1      34.875 -22.311 -17.847  0.00  0.00    +0.095 C 
ATOM      3  C   UNL     1      34.950 -22.816 -16.549  0.00  0.00    +0.020 C 
ATOM      4  C   UNL     1      35.974 -21.658 -18.405  0.00  0.00    +0.147 C 
ATOM      5  C   UNL     1      37.222 -22.017 -16.369  0.00  0.00    +0.016 C 
ATOM      6  C   UNL     1      37.147 -21.511 -17.666  0.00  0.00    +0.025 C 
ENDROOT
BRANCH   2  10
ATOM      7  F   UNL     1      33.740 -23.260 -19.726  0.00  0.00    -0.166 F 
ATOM      8  F   UNL     1      32.606 -23.067 -17.887  0.00  0.00    -0.166 F 
ATOM      9  F   UNL     1      33.094 -21.297 -19.052  0.00  0.00    -0.166 F 
ATOM     10  C   UNL     1      33.603 -22.483 -18.613  0.00  0.00    +0.420 C 
ENDBRANCH   2  10
BRANCH   1  12
ATOM     11  O   UNL     1      35.547 -25.405 -14.789  0.00  0.00    -0.272 OA
ATOM     12  N   UNL     1      36.198 -23.174 -14.512  0.00  0.00    -0.282 N 
ATOM     13  C   UNL     1      35.918 -24.468 -14.085  0.00  0.00    +0.251 C 
ATOM     14  H   UNL     1      36.482 -22.539 -13.813  0.00  0.00    +0.155 HD
BRANCH  13  15
ATOM     15  C   UNL     1      36.113 -24.655 -12.568  0.00  0.00    +0.167 C 
ATOM     16  C   UNL     1      36.501 -23.321 -11.917  0.00  0.00    +0.040 C 
BRANCH  15  18
ATOM     17 BR   UNL     1      38.795 -25.525 -13.243  0.00  0.00    -0.078 Br
ATOM     18  C   UNL     1      37.147 -25.726 -12.209  0.00  0.00    +0.103 C 
ENDBRANCH  15  18
BRANCH  15  19
ATOM     19  O   UNL     1      34.862 -25.048 -12.005  0.00  0.00    -0.377 OA
ATOM     20  H   UNL     1      34.223 -24.323 -12.096  0.00  0.00    +0.211 HD
ENDBRANCH  15  19
ENDBRANCH  13  15
ENDBRANCH   1  12
BRANCH   4  23
ATOM     21  O   UNL     1      36.233 -21.877 -20.686  0.00  0.00    -0.126 OA
ATOM     22  O   UNL     1      35.562 -19.944 -19.893  0.00  0.00    -0.126 OA
ATOM     23  N   UNL     1      35.920 -21.134 -19.726  0.00  0.00    +0.058 N 
ENDBRANCH   4  23
TORSDOF 6
ENDMDL
MODEL 8
REMARK VINA RESULT:      -8.0      4.147      7.121
REMARK  Name = 5287785
REMARK  6 active torsions:
REMARK  status: ('A' for Active; 'I' for Inactive)
REMARK    1  A    between atoms: C_1  and  N_12
REMARK    2  A    between atoms: C_2  and  C_10
REMARK    3  A    between atoms: C_4  and  N_23
REMARK    4  A    between atoms: C_13  and  C_15
REMARK    5  A    between atoms: C_15  and  C_18
REMARK    6  A    between atoms: C_15  and  O_19
REMARK                            x       y       z     vdW  Elec       q    Type
REMARK                         _______ _______ _______ _____ _____    ______ ____
ROOT
ATOM      1  C   UNL     1      34.740 -18.991 -21.248  0.00  0.00    +0.050 C 
ATOM      2  C   UNL     1      33.841 -16.795 -21.593  0.00  0.00    +0.095 C 
ATOM      3  C   UNL     1      33.984 -17.925 -20.790  0.00  0.00    +0.020 C 
ATOM      4  C   UNL     1      34.456 -16.746 -22.844  0.00  0.00    +0.147 C 
ATOM      5  C   UNL     1      35.357 -18.959 -22.488  0.00  0.00    +0.016 C 
ATOM      6  C   UNL     1      35.214 -17.828 -23.291  0.00  0.00    +0.025 C 
ENDROOT
BRANCH   2  10
ATOM      7  F   UNL     1      32.246 -15.070 -22.045  0.00  0.00    -0.166 F 
ATOM      8  F   UNL     1      32.161 -15.999 -20.087  0.00  0.00    -0.166 F 
ATOM      9  F   UNL     1      33.791 -14.646 -20.575  0.00  0.00    -0.166 F 
ATOM     10  C   UNL     1      33.023 -15.651 -21.085  0.00  0.00    +0.420 C 
ENDBRANCH   2  10
BRANCH   1  12
ATOM     11  O   UNL     1      32.683 -20.898 -20.213  0.00  0.00    -0.272 OA
ATOM     12  N   UNL     1      34.886 -20.138 -20.432  0.00  0.00    -0.282 N 
ATOM     13  C   UNL     1      33.886 -20.994 -19.982  0.00  0.00    +0.251 C 
ATOM     14  H   UNL     1      35.804 -20.357 -20.149  0.00  0.00    +0.155 HD
BRANCH  13  15
ATOM     15  C   UNL     1      34.429 -22.142 -19.107  0.00  0.00    +0.167 C 
ATOM     16  C   UNL     1      33.402 -22.517 -18.032  0.00  0.00    +0.040 C 
BRANCH  15  18
ATOM     17 BR   UNL     1      35.865 -22.493 -16.614  0.00  0.00    -0.078 Br
ATOM     18  C   UNL     1      35.776 -21.829 -18.451  0.00  0.00    +0.103 C 
ENDBRANCH  15  18
BRANCH  15  19
ATOM     19  O   UNL     1      34.603 -23.289 -19.940  0.00  0.00    -0.377 OA
ATOM     20  H   UNL     1      34.229 -23.112 -20.817  0.00  0.00    +0.211 HD
ENDBRANCH  15  19
ENDBRANCH  13  15
ENDBRANCH   1  12
BRANCH   4  23
ATOM     21  O   UNL     1      33.632 -15.691 -24.722  0.00  0.00    -0.126 OA
ATOM     22  O   UNL     1      34.904 -14.541 -23.352  0.00  0.00    -0.126 OA
ATOM     23  N   UNL     1      34.324 -15.603 -23.680  0.00  0.00    +0.058 N 
ENDBRANCH   4  23
TORSDOF 6
ENDMDL
MODEL 9
REMARK VINA RESULT:      -7.7      5.707      8.719
REMARK  Name = 5287785
REMARK  6 active torsions:
REMARK  status: ('A' for Active; 'I' for Inactive)
REMARK    1  A    between atoms: C_1  and  N_12
REMARK    2  A    between atoms: C_2  and  C_10
REMARK    3  A    between atoms: C_4  and  N_23
REMARK    4  A    between atoms: C_13  and  C_15
REMARK    5  A    between atoms: C_15  and  C_18
REMARK    6  A    between atoms: C_15  and  O_19
REMARK                            x       y       z     vdW  Elec       q    Type
REMARK                         _______ _______ _______ _____ _____    ______ ____
ROOT
ATOM      1  C   UNL     1      35.718 -23.037 -16.139  0.00  0.00    +0.050 C 
ATOM      2  C   UNL     1      35.422 -21.952 -18.257  0.00  0.00    +0.095 C 
ATOM      3  C   UNL     1      36.252 -22.325 -17.200  0.00  0.00    +0.020 C 
ATOM      4  C   UNL     1      34.071 -22.299 -18.238  0.00  0.00    +0.147 C 
ATOM      5  C   UNL     1      34.379 -23.388 -16.105  0.00  0.00    +0.016 C 
ATOM      6  C   UNL     1      33.550 -23.016 -17.162  0.00  0.00    +0.025 C 
ENDROOT
BRANCH   2  10
ATOM      7  F   UNL     1      35.194 -20.198 -19.867  0.00  0.00    -0.166 F 
ATOM      8  F   UNL     1      37.184 -20.563 -19.085  0.00  0.00    -0.166 F 
ATOM      9  F   UNL     1      36.287 -21.977 -20.472  0.00  0.00    -0.166 F 
ATOM     10  C   UNL     1      36.011 -21.185 -19.397  0.00  0.00    +0.420 C 
ENDBRANCH   2  10
BRANCH   1  12
ATOM     11  O   UNL     1      36.807 -25.721 -15.396  0.00  0.00    -0.272 OA
ATOM     12  N   UNL     1      36.561 -23.416 -15.066  0.00  0.00    -0.282 N 
ATOM     13  C   UNL     1      37.040 -24.688 -14.771  0.00  0.00    +0.251 C 
ATOM     14  H   UNL     1      36.842 -22.694 -14.457  0.00  0.00    +0.155 HD
BRANCH  13  15
ATOM     15  C   UNL     1      37.937 -24.714 -13.517  0.00  0.00    +0.167 C 
ATOM     16  C   UNL     1      39.304 -25.318 -13.859  0.00  0.00    +0.040 C 
BRANCH  15  18
ATOM     17 BR   UNL     1      35.750 -24.544 -11.622  0.00  0.00    -0.078 Br
ATOM     18  C   UNL     1      37.318 -25.468 -12.337  0.00  0.00    +0.103 C 
ENDBRANCH  15  18
BRANCH  15  19
ATOM     19  O   UNL     1      38.164 -23.366 -13.106  0.00  0.00    -0.377 OA
ATOM     20  H   UNL     1      38.934 -23.333 -12.516  0.00  0.00    +0.211 HD
ENDBRANCH  15  19
ENDBRANCH  13  15
ENDBRANCH   1  12
BRANCH   4  23
ATOM     21  O   UNL     1      32.486 -20.912 -19.178  0.00  0.00    -0.126 OA
ATOM     22  O   UNL     1      33.189 -22.634 -20.343  0.00  0.00    -0.126 OA
ATOM     23  N   UNL     1      33.206 -21.930 -19.305  0.00  0.00    +0.058 N 
ENDBRANCH   4  23
TORSDOF 6
ENDMDL
