MODEL 1
REMARK VINA RESULT:     -10.0      0.000      0.000
REMARK  Name = 57520598
REMARK  9 active torsions:
REMARK  status: ('A' for Active; 'I' for Inactive)
REMARK    1  A    between atoms: N_2  and  C_20
REMARK    2  A    between atoms: N_2  and  C_27
REMARK    3  A    between atoms: C_3  and  C_6
REMARK    4  A    between atoms: C_10  and  C_12
REMARK    5  A    between atoms: C_20  and  C_21
REMARK    6  A    between atoms: C_21  and  C_22
REMARK    7  A    between atoms: C_22  and  C_24
REMARK    8  A    between atoms: C_24  and  O_25
REMARK    9  A    between atoms: C_27  and  C_29
REMARK                            x       y       z     vdW  Elec       q    Type
REMARK                         _______ _______ _______ _____ _____    ______ ____
ROOT
ATOM      1  O   UNL     1      36.795 -20.957 -17.833  0.00  0.00    -0.273 OA
ATOM      2  N   UNL     1      35.120 -22.444 -17.159  0.00  0.00    -0.274 N 
ATOM      3  C   UNL     1      35.801 -21.645 -18.110  0.00  0.00    +0.242 C 
ENDROOT
BRANCH   3   6
ATOM      4  O   UNL     1      37.170 -19.701 -20.762  0.00  0.00    -0.270 OA
ATOM      5  N   UNL     1      35.057 -20.344 -20.116  0.00  0.00    -0.271 N 
ATOM      6  C   UNL     1      35.243 -21.664 -19.542  0.00  0.00    +0.131 C 
ATOM      7  C   UNL     1      33.733 -21.852 -19.719  0.00  0.00    +0.049 C 
ATOM      8  C   UNL     1      33.617 -20.338 -19.933  0.00  0.00    +0.096 C 
ATOM      9  C   UNL     1      36.051 -22.541 -20.474  0.00  0.00    +0.029 C 
ATOM     10  C   UNL     1      35.958 -19.506 -20.718  0.00  0.00    +0.250 C 
BRANCH  10  12
ATOM     11  S   UNL     1      34.603 -15.893 -21.678  0.00  0.00    -0.086 S 
ATOM     12  C   UNL     1      35.417 -18.301 -21.375  0.00  0.00    +0.061 C 
ATOM     13  C   UNL     1      35.023 -18.207 -22.752  0.00  0.00    +0.011 C 
ATOM     14  C   UNL     1      35.242 -17.124 -20.687  0.00  0.00    +0.040 C 
ATOM     15  C   UNL     1      34.551 -16.927 -23.057  0.00  0.00    +0.030 C 
ATOM     16  C   UNL     1      35.045 -19.176 -23.784  0.00  0.00    +0.001 C 
ATOM     17  C   UNL     1      34.106 -16.595 -24.351  0.00  0.00    +0.006 C 
ATOM     18  C   UNL     1      34.604 -18.850 -25.070  0.00  0.00    +0.000 C 
ATOM     19  C   UNL     1      34.139 -17.573 -25.348  0.00  0.00    +0.001 C 
ENDBRANCH  10  12
ENDBRANCH   3   6
BRANCH   2  20
ATOM     20  C   UNL     1      33.966 -23.256 -17.433  0.00  0.00    +0.094 C 
BRANCH  20  21
ATOM     21  C   UNL     1      32.863 -23.088 -16.390  0.00  0.00    +0.033 C 
BRANCH  21  22
ATOM     22  C   UNL     1      31.465 -23.459 -16.894  0.00  0.00    +0.111 C 
BRANCH  22  24
ATOM     23  O   UNL     1      30.322 -22.646 -14.902  0.00  0.00    -0.250 OA
ATOM     24  C   UNL     1      30.353 -22.792 -16.116  0.00  0.00    +0.314 C 
BRANCH  24  25
ATOM     25  O   UNL     1      29.374 -22.337 -16.941  0.00  0.00    -0.480 OA
ATOM     26  H   UNL     1      29.562 -21.663 -17.565  0.00  0.00    +0.295 HD
ENDBRANCH  24  25
ENDBRANCH  22  24
ENDBRANCH  21  22
ENDBRANCH  20  21
ENDBRANCH   2  20
BRANCH   2  27
ATOM     27  C   UNL     1      35.613 -22.459 -15.778  0.00  0.00    +0.120 C 
BRANCH  27  29
ATOM     28 CL   UNL     1      40.113 -24.966 -15.007  0.00  0.00    -0.082 Cl
ATOM     29  C   UNL     1      36.333 -23.737 -15.451  0.00  0.00    -0.001 C 
ATOM     30  C   UNL     1      37.726 -23.755 -15.388  0.00  0.00    +0.009 C 
ATOM     31  C   UNL     1      35.608 -24.904 -15.211  0.00  0.00    -0.003 C 
ATOM     32  C   UNL     1      38.394 -24.942 -15.084  0.00  0.00    +0.057 C 
ATOM     33  C   UNL     1      36.275 -26.089 -14.907  0.00  0.00    +0.001 C 
ATOM     34  C   UNL     1      37.669 -26.109 -14.843  0.00  0.00    +0.011 C 
ENDBRANCH  27  29
ENDBRANCH   2  27
TORSDOF 9
ENDMDL
MODEL 2
REMARK VINA RESULT:      -9.2      6.414     11.411
REMARK  Name = 57520598
REMARK  9 active torsions:
REMARK  status: ('A' for Active; 'I' for Inactive)
REMARK    1  A    between atoms: N_2  and  C_20
REMARK    2  A    between atoms: N_2  and  C_27
REMARK    3  A    between atoms: C_3  and  C_6
REMARK    4  A    between atoms: C_10  and  C_12
REMARK    5  A    between atoms: C_20  and  C_21
REMARK    6  A    between atoms: C_21  and  C_22
REMARK    7  A    between atoms: C_22  and  C_24
REMARK    8  A    between atoms: C_24  and  O_25
REMARK    9  A    between atoms: C_27  and  C_29
REMARK                            x       y       z     vdW  Elec       q    Type
REMARK                         _______ _______ _______ _____ _____    ______ ____
ROOT
ATOM      1  O   UNL     1      33.441 -15.021 -23.675  0.00  0.00    -0.273 OA
ATOM      2  N   UNL     1      32.831 -12.950 -22.775  0.00  0.00    -0.274 N 
ATOM      3  C   UNL     1      33.294 -14.286 -22.687  0.00  0.00    +0.242 C 
ENDROOT
BRANCH   3   6
ATOM      4  O   UNL     1      35.479 -17.030 -22.070  0.00  0.00    -0.270 OA
ATOM      5  N   UNL     1      33.522 -16.247 -21.147  0.00  0.00    -0.271 N 
ATOM      6  C   UNL     1      33.616 -14.804 -21.276  0.00  0.00    +0.131 C 
ATOM      7  C   UNL     1      32.511 -14.731 -20.217  0.00  0.00    +0.049 C 
ATOM      8  C   UNL     1      32.242 -16.221 -20.461  0.00  0.00    +0.096 C 
ATOM      9  C   UNL     1      34.949 -14.309 -20.760  0.00  0.00    +0.029 C 
ATOM     10  C   UNL     1      34.426 -17.225 -21.469  0.00  0.00    +0.250 C 
BRANCH  10  12
ATOM     11  S   UNL     1      32.730 -20.690 -20.503  0.00  0.00    -0.086 S 
ATOM     12  C   UNL     1      34.108 -18.599 -21.038  0.00  0.00    +0.061 C 
ATOM     13  C   UNL     1      35.059 -19.569 -20.574  0.00  0.00    +0.011 C 
ATOM     14  C   UNL     1      32.819 -19.077 -21.049  0.00  0.00    +0.040 C 
ATOM     15  C   UNL     1      34.433 -20.774 -20.243  0.00  0.00    +0.030 C 
ATOM     16  C   UNL     1      36.464 -19.478 -20.416  0.00  0.00    +0.001 C 
ATOM     17  C   UNL     1      35.165 -21.877 -19.762  0.00  0.00    +0.006 C 
ATOM     18  C   UNL     1      37.194 -20.571 -19.939  0.00  0.00    +0.000 C 
ATOM     19  C   UNL     1      36.549 -21.756 -19.616  0.00  0.00    +0.001 C 
ENDBRANCH  10  12
ENDBRANCH   3   6
BRANCH   2  20
ATOM     20  C   UNL     1      32.645 -12.062 -21.660  0.00  0.00    +0.094 C 
BRANCH  20  21
ATOM     21  C   UNL     1      31.187 -11.645 -21.472  0.00  0.00    +0.033 C 
BRANCH  21  22
ATOM     22  C   UNL     1      30.936 -10.794 -20.224  0.00  0.00    +0.111 C 
BRANCH  22  24
ATOM     23  O   UNL     1      31.921  -8.682 -20.932  0.00  0.00    -0.250 OA
ATOM     24  C   UNL     1      31.853  -9.597 -20.123  0.00  0.00    +0.314 C 
BRANCH  24  25
ATOM     25  O   UNL     1      32.599  -9.636 -18.987  0.00  0.00    -0.480 OA
ATOM     26  H   UNL     1      32.682 -10.438 -18.509  0.00  0.00    +0.295 HD
ENDBRANCH  24  25
ENDBRANCH  22  24
ENDBRANCH  21  22
ENDBRANCH  20  21
ENDBRANCH   2  20
BRANCH   2  27
ATOM     27  C   UNL     1      32.509 -12.408 -24.099  0.00  0.00    +0.120 C 
BRANCH  27  29
ATOM     28 CL   UNL     1      34.860  -7.813 -23.399  0.00  0.00    -0.082 Cl
ATOM     29  C   UNL     1      33.527 -11.402 -24.558  0.00  0.00    -0.001 C 
ATOM     30  C   UNL     1      33.701 -10.214 -23.848  0.00  0.00    +0.009 C 
ATOM     31  C   UNL     1      34.297 -11.657 -25.692  0.00  0.00    -0.003 C 
ATOM     32  C   UNL     1      34.646  -9.280 -24.273  0.00  0.00    +0.057 C 
ATOM     33  C   UNL     1      35.242 -10.724 -26.116  0.00  0.00    +0.001 C 
ATOM     34  C   UNL     1      35.417  -9.535 -25.407  0.00  0.00    +0.011 C 
ENDBRANCH  27  29
ENDBRANCH   2  27
TORSDOF 9
ENDMDL
MODEL 3
REMARK VINA RESULT:      -8.9      8.890     12.935
REMARK  Name = 57520598
REMARK  9 active torsions:
REMARK  status: ('A' for Active; 'I' for Inactive)
REMARK    1  A    between atoms: N_2  and  C_20
REMARK    2  A    between atoms: N_2  and  C_27
REMARK    3  A    between atoms: C_3  and  C_6
REMARK    4  A    between atoms: C_10  and  C_12
REMARK    5  A    between atoms: C_20  and  C_21
REMARK    6  A    between atoms: C_21  and  C_22
REMARK    7  A    between atoms: C_22  and  C_24
REMARK    8  A    between atoms: C_24  and  O_25
REMARK    9  A    between atoms: C_27  and  C_29
REMARK                            x       y       z     vdW  Elec       q    Type
REMARK                         _______ _______ _______ _____ _____    ______ ____
ROOT
ATOM      1  O   UNL     1      33.862 -10.011 -23.378  0.00  0.00    -0.273 OA
ATOM      2  N   UNL     1      33.070 -12.105 -22.701  0.00  0.00    -0.274 N 
ATOM      3  C   UNL     1      33.007 -10.693 -22.793  0.00  0.00    +0.242 C 
ENDROOT
BRANCH   3   6
ATOM      4  O   UNL     1      30.900  -8.357 -24.463  0.00  0.00    -0.270 OA
ATOM      5  N   UNL     1      31.740  -8.583 -22.332  0.00  0.00    -0.271 N 
ATOM      6  C   UNL     1      31.800 -10.019 -22.121  0.00  0.00    +0.131 C 
ATOM      7  C   UNL     1      31.899  -9.701 -20.625  0.00  0.00    +0.049 C 
ATOM      8  C   UNL     1      32.218  -8.248 -21.003  0.00  0.00    +0.096 C 
ATOM      9  C   UNL     1      30.485 -10.668 -22.491  0.00  0.00    +0.029 C 
ATOM     10  C   UNL     1      31.263  -7.865 -23.397  0.00  0.00    +0.250 C 
BRANCH  10  12
ATOM     11  S   UNL     1      30.590  -4.140 -22.177  0.00  0.00    -0.086 S 
ATOM     12  C   UNL     1      31.165  -6.403 -23.228  0.00  0.00    +0.061 C 
ATOM     13  C   UNL     1      31.653  -5.422 -24.155  0.00  0.00    +0.011 C 
ATOM     14  C   UNL     1      30.571  -5.844 -22.122  0.00  0.00    +0.040 C 
ATOM     15  C   UNL     1      31.402  -4.125 -23.699  0.00  0.00    +0.030 C 
ATOM     16  C   UNL     1      32.318  -5.578 -25.397  0.00  0.00    +0.001 C 
ATOM     17  C   UNL     1      31.791  -2.994 -24.443  0.00  0.00    +0.006 C 
ATOM     18  C   UNL     1      32.706  -4.458 -26.137  0.00  0.00    +0.000 C 
ATOM     19  C   UNL     1      32.443  -3.181 -25.664  0.00  0.00    +0.001 C 
ENDBRANCH  10  12
ENDBRANCH   3   6
BRANCH   2  20
ATOM     20  C   UNL     1      32.104 -12.936 -22.035  0.00  0.00    +0.094 C 
BRANCH  20  21
ATOM     21  C   UNL     1      32.682 -13.656 -20.817  0.00  0.00    +0.033 C 
BRANCH  21  22
ATOM     22  C   UNL     1      32.625 -15.184 -20.909  0.00  0.00    +0.111 C 
BRANCH  22  24
ATOM     23  O   UNL     1      34.250 -16.978 -21.174  0.00  0.00    -0.250 OA
ATOM     24  C   UNL     1      33.985 -15.839 -20.819  0.00  0.00    +0.314 C 
BRANCH  24  25
ATOM     25  O   UNL     1      34.913 -14.988 -20.307  0.00  0.00    -0.480 OA
ATOM     26  H   UNL     1      35.571 -15.311 -19.722  0.00  0.00    +0.295 HD
ENDBRANCH  24  25
ENDBRANCH  22  24
ENDBRANCH  21  22
ENDBRANCH  20  21
ENDBRANCH   2  20
BRANCH   2  27
ATOM     27  C   UNL     1      34.202 -12.797 -23.325  0.00  0.00    +0.120 C 
BRANCH  27  29
ATOM     28 CL   UNL     1      34.053 -17.639 -25.240  0.00  0.00    -0.082 Cl
ATOM     29  C   UNL     1      33.758 -13.737 -24.410  0.00  0.00    -0.001 C 
ATOM     30  C   UNL     1      34.075 -15.093 -24.330  0.00  0.00    +0.009 C 
ATOM     31  C   UNL     1      33.028 -13.254 -25.496  0.00  0.00    -0.003 C 
ATOM     32  C   UNL     1      33.661 -15.966 -25.337  0.00  0.00    +0.057 C 
ATOM     33  C   UNL     1      32.615 -14.126 -26.502  0.00  0.00    +0.001 C 
ATOM     34  C   UNL     1      32.931 -15.482 -26.423  0.00  0.00    +0.011 C 
ENDBRANCH  27  29
ENDBRANCH   2  27
TORSDOF 9
ENDMDL
MODEL 4
REMARK VINA RESULT:      -8.3      1.441      2.159
REMARK  Name = 57520598
REMARK  9 active torsions:
REMARK  status: ('A' for Active; 'I' for Inactive)
REMARK    1  A    between atoms: N_2  and  C_20
REMARK    2  A    between atoms: N_2  and  C_27
REMARK    3  A    between atoms: C_3  and  C_6
REMARK    4  A    between atoms: C_10  and  C_12
REMARK    5  A    between atoms: C_20  and  C_21
REMARK    6  A    between atoms: C_21  and  C_22
REMARK    7  A    between atoms: C_22  and  C_24
REMARK    8  A    between atoms: C_24  and  O_25
REMARK    9  A    between atoms: C_27  and  C_29
REMARK                            x       y       z     vdW  Elec       q    Type
REMARK                         _______ _______ _______ _____ _____    ______ ____
ROOT
ATOM      1  O   UNL     1      36.335 -20.953 -18.228  0.00  0.00    -0.273 OA
ATOM      2  N   UNL     1      34.891 -22.415 -17.111  0.00  0.00    -0.274 N 
ATOM      3  C   UNL     1      35.340 -21.693 -18.244  0.00  0.00    +0.242 C 
ENDROOT
BRANCH   3   6
ATOM      4  O   UNL     1      36.586 -20.856 -21.474  0.00  0.00    -0.270 OA
ATOM      5  N   UNL     1      34.552 -20.710 -20.408  0.00  0.00    -0.271 N 
ATOM      6  C   UNL     1      34.522 -21.869 -19.533  0.00  0.00    +0.131 C 
ATOM      7  C   UNL     1      33.007 -21.653 -19.454  0.00  0.00    +0.049 C 
ATOM      8  C   UNL     1      33.222 -20.255 -20.046  0.00  0.00    +0.096 C 
ATOM      9  C   UNL     1      34.891 -23.123 -20.295  0.00  0.00    +0.029 C 
ATOM     10  C   UNL     1      35.491 -20.319 -21.324  0.00  0.00    +0.250 C 
BRANCH  10  12
ATOM     11  S   UNL     1      34.555 -17.886 -24.328  0.00  0.00    -0.086 S 
ATOM     12  C   UNL     1      35.140 -19.185 -22.201  0.00  0.00    +0.061 C 
ATOM     13  C   UNL     1      34.961 -17.826 -21.775  0.00  0.00    +0.011 C 
ATOM     14  C   UNL     1      34.950 -19.352 -23.552  0.00  0.00    +0.040 C 
ATOM     15  C   UNL     1      34.634 -16.998 -22.852  0.00  0.00    +0.030 C 
ATOM     16  C   UNL     1      35.064 -17.243 -20.488  0.00  0.00    +0.001 C 
ATOM     17  C   UNL     1      34.410 -15.618 -22.679  0.00  0.00    +0.006 C 
ATOM     18  C   UNL     1      34.842 -15.874 -20.313  0.00  0.00    +0.000 C 
ATOM     19  C   UNL     1      34.520 -15.072 -21.397  0.00  0.00    +0.001 C 
ENDBRANCH  10  12
ENDBRANCH   3   6
BRANCH   2  20
ATOM     20  C   UNL     1      33.746 -23.284 -17.082  0.00  0.00    +0.094 C 
BRANCH  20  21
ATOM     21  C   UNL     1      32.693 -22.841 -16.067  0.00  0.00    +0.033 C 
BRANCH  21  22
ATOM     22  C   UNL     1      31.840 -23.986 -15.513  0.00  0.00    +0.111 C 
BRANCH  22  24
ATOM     23  O   UNL     1      32.030 -23.358 -13.167  0.00  0.00    -0.250 OA
ATOM     24  C   UNL     1      32.044 -24.222 -14.033  0.00  0.00    +0.314 C 
BRANCH  24  25
ATOM     25  O   UNL     1      32.227 -25.541 -13.761  0.00  0.00    -0.480 OA
ATOM     26  H   UNL     1      32.959 -25.815 -13.244  0.00  0.00    +0.295 HD
ENDBRANCH  24  25
ENDBRANCH  22  24
ENDBRANCH  21  22
ENDBRANCH  20  21
ENDBRANCH   2  20
BRANCH   2  27
ATOM     27  C   UNL     1      35.638 -22.281 -15.855  0.00  0.00    +0.120 C 
BRANCH  27  29
ATOM     28 CL   UNL     1      40.083 -24.901 -15.141  0.00  0.00    -0.082 Cl
ATOM     29  C   UNL     1      36.329 -23.560 -15.473  0.00  0.00    -0.001 C 
ATOM     30  C   UNL     1      37.722 -23.628 -15.483  0.00  0.00    +0.009 C 
ATOM     31  C   UNL     1      35.578 -24.676 -15.107  0.00  0.00    -0.003 C 
ATOM     32  C   UNL     1      38.364 -24.815 -15.127  0.00  0.00    +0.057 C 
ATOM     33  C   UNL     1      36.220 -25.861 -14.751  0.00  0.00    +0.001 C 
ATOM     34  C   UNL     1      37.613 -25.931 -14.761  0.00  0.00    +0.011 C 
ENDBRANCH  27  29
ENDBRANCH   2  27
TORSDOF 9
ENDMDL
MODEL 5
REMARK VINA RESULT:      -8.1      4.201      7.313
REMARK  Name = 57520598
REMARK  9 active torsions:
REMARK  status: ('A' for Active; 'I' for Inactive)
REMARK    1  A    between atoms: N_2  and  C_20
REMARK    2  A    between atoms: N_2  and  C_27
REMARK    3  A    between atoms: C_3  and  C_6
REMARK    4  A    between atoms: C_10  and  C_12
REMARK    5  A    between atoms: C_20  and  C_21
REMARK    6  A    between atoms: C_21  and  C_22
REMARK    7  A    between atoms: C_22  and  C_24
REMARK    8  A    between atoms: C_24  and  O_25
REMARK    9  A    between atoms: C_27  and  C_29
REMARK                            x       y       z     vdW  Elec       q    Type
REMARK                         _______ _______ _______ _____ _____    ______ ____
ROOT
ATOM      1  O   UNL     1      31.624 -16.970 -20.780  0.00  0.00    -0.273 OA
ATOM      2  N   UNL     1      33.798 -17.725 -21.197  0.00  0.00    -0.274 N 
ATOM      3  C   UNL     1      32.841 -16.743 -20.840  0.00  0.00    +0.242 C 
ENDROOT
BRANCH   3   6
ATOM      4  O   UNL     1      31.377 -13.745 -22.087  0.00  0.00    -0.270 OA
ATOM      5  N   UNL     1      33.519 -14.484 -21.683  0.00  0.00    -0.271 N 
ATOM      6  C   UNL     1      33.388 -15.342 -20.519  0.00  0.00    +0.131 C 
ATOM      7  C   UNL     1      34.903 -15.187 -20.350  0.00  0.00    +0.049 C 
ATOM      8  C   UNL     1      34.959 -14.637 -21.781  0.00  0.00    +0.096 C 
ATOM      9  C   UNL     1      32.608 -14.645 -19.427  0.00  0.00    +0.029 C 
ATOM     10  C   UNL     1      32.581 -13.724 -22.331  0.00  0.00    +0.250 C 
BRANCH  10  12
ATOM     11  S   UNL     1      33.947 -10.665 -24.473  0.00  0.00    -0.086 S 
ATOM     12  C   UNL     1      33.070 -12.805 -23.376  0.00  0.00    +0.061 C 
ATOM     13  C   UNL     1      33.238 -13.134 -24.763  0.00  0.00    +0.011 C 
ATOM     14  C   UNL     1      33.417 -11.507 -23.089  0.00  0.00    +0.040 C 
ATOM     15  C   UNL     1      33.718 -12.040 -25.488  0.00  0.00    +0.030 C 
ATOM     16  C   UNL     1      32.999 -14.345 -25.458  0.00  0.00    +0.001 C 
ATOM     17  C   UNL     1      33.961 -12.123 -26.873  0.00  0.00    +0.006 C 
ATOM     18  C   UNL     1      33.240 -14.431 -26.832  0.00  0.00    +0.000 C 
ATOM     19  C   UNL     1      33.715 -13.331 -27.530  0.00  0.00    +0.001 C 
ENDBRANCH  10  12
ENDBRANCH   3   6
BRANCH   2  20
ATOM     20  C   UNL     1      35.217 -17.508 -21.280  0.00  0.00    +0.094 C 
BRANCH  20  21
ATOM     21  C   UNL     1      35.793 -17.878 -22.645  0.00  0.00    +0.033 C 
BRANCH  21  22
ATOM     22  C   UNL     1      35.148 -17.134 -23.818  0.00  0.00    +0.111 C 
BRANCH  22  24
ATOM     23  O   UNL     1      33.814 -17.703 -25.775  0.00  0.00    -0.250 OA
ATOM     24  C   UNL     1      34.501 -18.056 -24.827  0.00  0.00    +0.314 C 
BRANCH  24  25
ATOM     25  O   UNL     1      34.795 -19.358 -24.570  0.00  0.00    -0.480 OA
ATOM     26  H   UNL     1      34.648 -19.712 -23.715  0.00  0.00    +0.295 HD
ENDBRANCH  24  25
ENDBRANCH  22  24
ENDBRANCH  21  22
ENDBRANCH  20  21
ENDBRANCH   2  20
BRANCH   2  27
ATOM     27  C   UNL     1      33.327 -19.077 -21.513  0.00  0.00    +0.120 C 
BRANCH  27  29
ATOM     28 CL   UNL     1      32.711 -22.716 -17.838  0.00  0.00    -0.082 Cl
ATOM     29  C   UNL     1      33.942 -20.111 -20.613  0.00  0.00    -0.001 C 
ATOM     30  C   UNL     1      33.135 -20.847 -19.746  0.00  0.00    +0.009 C 
ATOM     31  C   UNL     1      35.318 -20.336 -20.646  0.00  0.00    -0.003 C 
ATOM     32  C   UNL     1      33.705 -21.809 -18.910  0.00  0.00    +0.057 C 
ATOM     33  C   UNL     1      35.887 -21.296 -19.811  0.00  0.00    +0.001 C 
ATOM     34  C   UNL     1      35.082 -22.033 -18.943  0.00  0.00    +0.011 C 
ENDBRANCH  27  29
ENDBRANCH   2  27
TORSDOF 9
ENDMDL
MODEL 6
REMARK VINA RESULT:      -7.8      5.440     10.680
REMARK  Name = 57520598
REMARK  9 active torsions:
REMARK  status: ('A' for Active; 'I' for Inactive)
REMARK    1  A    between atoms: N_2  and  C_20
REMARK    2  A    between atoms: N_2  and  C_27
REMARK    3  A    between atoms: C_3  and  C_6
REMARK    4  A    between atoms: C_10  and  C_12
REMARK    5  A    between atoms: C_20  and  C_21
REMARK    6  A    between atoms: C_21  and  C_22
REMARK    7  A    between atoms: C_22  and  C_24
REMARK    8  A    between atoms: C_24  and  O_25
REMARK    9  A    between atoms: C_27  and  C_29
REMARK                            x       y       z     vdW  Elec       q    Type
REMARK                         _______ _______ _______ _____ _____    ______ ____
ROOT
ATOM      1  O   UNL     1      33.841 -16.657 -24.583  0.00  0.00    -0.273 OA
ATOM      2  N   UNL     1      33.340 -14.819 -23.226  0.00  0.00    -0.274 N 
ATOM      3  C   UNL     1      34.006 -16.033 -23.524  0.00  0.00    +0.242 C 
ENDROOT
BRANCH   3   6
ATOM      4  O   UNL     1      34.766 -19.490 -23.124  0.00  0.00    -0.270 OA
ATOM      5  N   UNL     1      34.453 -17.701 -21.710  0.00  0.00    -0.271 N 
ATOM      6  C   UNL     1      34.970 -16.564 -22.451  0.00  0.00    +0.131 C 
ATOM      7  C   UNL     1      35.019 -15.830 -21.107  0.00  0.00    +0.049 C 
ATOM      8  C   UNL     1      34.122 -16.930 -20.526  0.00  0.00    +0.096 C 
ATOM      9  C   UNL     1      36.347 -16.866 -22.999  0.00  0.00    +0.029 C 
ATOM     10  C   UNL     1      34.436 -19.032 -22.033  0.00  0.00    +0.250 C 
BRANCH  10  12
ATOM     11  S   UNL     1      32.467 -21.386 -19.503  0.00  0.00    -0.086 S 
ATOM     12  C   UNL     1      34.009 -19.971 -20.978  0.00  0.00    +0.061 C 
ATOM     13  C   UNL     1      34.882 -20.650 -20.063  0.00  0.00    +0.011 C 
ATOM     14  C   UNL     1      32.684 -20.281 -20.783  0.00  0.00    +0.040 C 
ATOM     15  C   UNL     1      34.161 -21.468 -19.188  0.00  0.00    +0.030 C 
ATOM     16  C   UNL     1      36.291 -20.609 -19.932  0.00  0.00    +0.001 C 
ATOM     17  C   UNL     1      34.804 -22.235 -18.198  0.00  0.00    +0.006 C 
ATOM     18  C   UNL     1      36.933 -21.369 -18.950  0.00  0.00    +0.000 C 
ATOM     19  C   UNL     1      36.196 -22.172 -18.093  0.00  0.00    +0.001 C 
ENDBRANCH  10  12
ENDBRANCH   3   6
BRANCH   2  20
ATOM     20  C   UNL     1      33.499 -14.063 -22.014  0.00  0.00    +0.094 C 
BRANCH  20  21
ATOM     21  C   UNL     1      32.177 -13.824 -21.287  0.00  0.00    +0.033 C 
BRANCH  21  22
ATOM     22  C   UNL     1      32.165 -12.571 -20.407  0.00  0.00    +0.111 C 
BRANCH  22  24
ATOM     23  O   UNL     1      31.525 -10.236 -20.677  0.00  0.00    -0.250 OA
ATOM     24  C   UNL     1      31.449 -11.401 -21.043  0.00  0.00    +0.314 C 
BRANCH  24  25
ATOM     25  O   UNL     1      30.710 -11.793 -22.114  0.00  0.00    -0.480 OA
ATOM     26  H   UNL     1      29.888 -11.378 -22.293  0.00  0.00    +0.295 HD
ENDBRANCH  24  25
ENDBRANCH  22  24
ENDBRANCH  21  22
ENDBRANCH  20  21
ENDBRANCH   2  20
BRANCH   2  27
ATOM     27  C   UNL     1      32.408 -14.271 -24.217  0.00  0.00    +0.120 C 
BRANCH  27  29
ATOM     28 CL   UNL     1      35.266 -10.076 -25.384  0.00  0.00    -0.082 Cl
ATOM     29  C   UNL     1      33.114 -13.444 -25.255  0.00  0.00    -0.001 C 
ATOM     30  C   UNL     1      33.784 -12.280 -24.881  0.00  0.00    +0.009 C 
ATOM     31  C   UNL     1      33.099 -13.843 -26.592  0.00  0.00    -0.003 C 
ATOM     32  C   UNL     1      34.440 -11.514 -25.845  0.00  0.00    +0.057 C 
ATOM     33  C   UNL     1      33.755 -13.077 -27.554  0.00  0.00    +0.001 C 
ATOM     34  C   UNL     1      34.426 -11.912 -27.181  0.00  0.00    +0.011 C 
ENDBRANCH  27  29
ENDBRANCH   2  27
TORSDOF 9
ENDMDL
MODEL 7
REMARK VINA RESULT:      -7.7      4.822      8.171
REMARK  Name = 57520598
REMARK  9 active torsions:
REMARK  status: ('A' for Active; 'I' for Inactive)
REMARK    1  A    between atoms: N_2  and  C_20
REMARK    2  A    between atoms: N_2  and  C_27
REMARK    3  A    between atoms: C_3  and  C_6
REMARK    4  A    between atoms: C_10  and  C_12
REMARK    5  A    between atoms: C_20  and  C_21
REMARK    6  A    between atoms: C_21  and  C_22
REMARK    7  A    between atoms: C_22  and  C_24
REMARK    8  A    between atoms: C_24  and  O_25
REMARK    9  A    between atoms: C_27  and  C_29
REMARK                            x       y       z     vdW  Elec       q    Type
REMARK                         _______ _______ _______ _____ _____    ______ ____
ROOT
ATOM      1  O   UNL     1      31.619 -16.866 -20.922  0.00  0.00    -0.273 OA
ATOM      2  N   UNL     1      33.815 -17.357 -21.562  0.00  0.00    -0.274 N 
ATOM      3  C   UNL     1      32.806 -16.522 -21.021  0.00  0.00    +0.242 C 
ENDROOT
BRANCH   3   6
ATOM      4  O   UNL     1      31.303 -13.499 -22.157  0.00  0.00    -0.270 OA
ATOM      5  N   UNL     1      33.438 -14.176 -21.627  0.00  0.00    -0.271 N 
ATOM      6  C   UNL     1      33.254 -15.129 -20.548  0.00  0.00    +0.131 C 
ATOM      7  C   UNL     1      34.741 -14.923 -20.237  0.00  0.00    +0.049 C 
ATOM      8  C   UNL     1      34.887 -14.258 -21.612  0.00  0.00    +0.096 C 
ATOM      9  C   UNL     1      32.353 -14.557 -19.477  0.00  0.00    +0.029 C 
ATOM     10  C   UNL     1      32.521 -13.407 -22.293  0.00  0.00    +0.250 C 
BRANCH  10  12
ATOM     11  S   UNL     1      34.206 -11.367 -25.262  0.00  0.00    -0.086 S 
ATOM     12  C   UNL     1      33.048 -12.386 -23.218  0.00  0.00    +0.061 C 
ATOM     13  C   UNL     1      32.954 -10.966 -23.036  0.00  0.00    +0.011 C 
ATOM     14  C   UNL     1      33.700 -12.734 -24.378  0.00  0.00    +0.040 C 
ATOM     15  C   UNL     1      33.555 -10.278 -24.094  0.00  0.00    +0.030 C 
ATOM     16  C   UNL     1      32.368 -10.209 -21.992  0.00  0.00    +0.001 C 
ATOM     17  C   UNL     1      33.587  -8.871 -24.135  0.00  0.00    +0.006 C 
ATOM     18  C   UNL     1      32.398  -8.812 -22.029  0.00  0.00    +0.000 C 
ATOM     19  C   UNL     1      33.001  -8.152 -23.089  0.00  0.00    +0.001 C 
ENDBRANCH  10  12
ENDBRANCH   3   6
BRANCH   2  20
ATOM     20  C   UNL     1      35.201 -17.001 -21.698  0.00  0.00    +0.094 C 
BRANCH  20  21
ATOM     21  C   UNL     1      35.726 -17.198 -23.119  0.00  0.00    +0.033 C 
BRANCH  21  22
ATOM     22  C   UNL     1      35.104 -16.253 -24.151  0.00  0.00    +0.111 C 
BRANCH  22  24
ATOM     23  O   UNL     1      34.399 -18.191 -25.447  0.00  0.00    -0.250 OA
ATOM     24  C   UNL     1      34.446 -16.978 -25.304  0.00  0.00    +0.314 C 
BRANCH  24  25
ATOM     25  O   UNL     1      33.874 -16.107 -26.177  0.00  0.00    -0.480 OA
ATOM     26  H   UNL     1      34.147 -15.210 -26.190  0.00  0.00    +0.295 HD
ENDBRANCH  24  25
ENDBRANCH  22  24
ENDBRANCH  21  22
ENDBRANCH  20  21
ENDBRANCH   2  20
BRANCH   2  27
ATOM     27  C   UNL     1      33.438 -18.695 -22.029  0.00  0.00    +0.120 C 
BRANCH  27  29
ATOM     28 CL   UNL     1      37.027 -21.572 -19.585  0.00  0.00    -0.082 Cl
ATOM     29  C   UNL     1      33.763 -19.756 -21.016  0.00  0.00    -0.001 C 
ATOM     30  C   UNL     1      35.089 -20.127 -20.796  0.00  0.00    +0.009 C 
ATOM     31  C   UNL     1      32.738 -20.368 -20.294  0.00  0.00    -0.003 C 
ATOM     32  C   UNL     1      35.391 -21.112 -19.854  0.00  0.00    +0.057 C 
ATOM     33  C   UNL     1      33.039 -21.351 -19.353  0.00  0.00    +0.001 C 
ATOM     34  C   UNL     1      34.366 -21.724 -19.133  0.00  0.00    +0.011 C 
ENDBRANCH  27  29
ENDBRANCH   2  27
TORSDOF 9
ENDMDL
MODEL 8
REMARK VINA RESULT:      -7.4     11.621     16.766
REMARK  Name = 57520598
REMARK  9 active torsions:
REMARK  status: ('A' for Active; 'I' for Inactive)
REMARK    1  A    between atoms: N_2  and  C_20
REMARK    2  A    between atoms: N_2  and  C_27
REMARK    3  A    between atoms: C_3  and  C_6
REMARK    4  A    between atoms: C_10  and  C_12
REMARK    5  A    between atoms: C_20  and  C_21
REMARK    6  A    between atoms: C_21  and  C_22
REMARK    7  A    between atoms: C_22  and  C_24
REMARK    8  A    between atoms: C_24  and  O_25
REMARK    9  A    between atoms: C_27  and  C_29
REMARK                            x       y       z     vdW  Elec       q    Type
REMARK                         _______ _______ _______ _____ _____    ______ ____
ROOT
ATOM      1  O   UNL     1      31.456  -8.259 -24.953  0.00  0.00    -0.273 OA
ATOM      2  N   UNL     1      31.758  -6.274 -23.754  0.00  0.00    -0.274 N 
ATOM      3  C   UNL     1      31.862  -7.675 -23.938  0.00  0.00    +0.242 C 
ENDROOT
BRANCH   3   6
ATOM      4  O   UNL     1      34.510 -10.002 -24.448  0.00  0.00    -0.270 OA
ATOM      5  N   UNL     1      32.666  -9.884 -23.075  0.00  0.00    -0.271 N 
ATOM      6  C   UNL     1      32.519  -8.467 -22.795  0.00  0.00    +0.131 C 
ATOM      7  C   UNL     1      31.634  -8.887 -21.616  0.00  0.00    +0.049 C 
ATOM      8  C   UNL     1      31.550 -10.286 -22.238  0.00  0.00    +0.096 C 
ATOM      9  C   UNL     1      33.835  -7.870 -22.350  0.00  0.00    +0.029 C 
ATOM     10  C   UNL     1      33.629 -10.548 -23.787  0.00  0.00    +0.250 C 
BRANCH  10  12
ATOM     11  S   UNL     1      33.665 -14.388 -22.752  0.00  0.00    -0.086 S 
ATOM     12  C   UNL     1      33.607 -12.022 -23.729  0.00  0.00    +0.061 C 
ATOM     13  C   UNL     1      33.473 -12.899 -24.858  0.00  0.00    +0.011 C 
ATOM     14  C   UNL     1      33.719 -12.698 -22.537  0.00  0.00    +0.040 C 
ATOM     15  C   UNL     1      33.490 -14.239 -24.462  0.00  0.00    +0.030 C 
ATOM     16  C   UNL     1      33.334 -12.610 -26.237  0.00  0.00    +0.001 C 
ATOM     17  C   UNL     1      33.373 -15.286 -25.397  0.00  0.00    +0.006 C 
ATOM     18  C   UNL     1      33.218 -13.646 -27.169  0.00  0.00    +0.000 C 
ATOM     19  C   UNL     1      33.238 -14.968 -26.751  0.00  0.00    +0.001 C 
ENDBRANCH  10  12
ENDBRANCH   3   6
BRANCH   2  20
ATOM     20  C   UNL     1      32.214  -5.555 -22.596  0.00  0.00    +0.094 C 
BRANCH  20  21
ATOM     21  C   UNL     1      31.273  -4.419 -22.197  0.00  0.00    +0.033 C 
BRANCH  21  22
ATOM     22  C   UNL     1      31.639  -3.061 -22.805  0.00  0.00    +0.111 C 
BRANCH  22  24
ATOM     23  O   UNL     1      30.045  -1.950 -24.274  0.00  0.00    -0.250 OA
ATOM     24  C   UNL     1      30.434  -2.214 -23.144  0.00  0.00    +0.314 C 
BRANCH  24  25
ATOM     25  O   UNL     1      29.796  -1.786 -22.023  0.00  0.00    -0.480 OA
ATOM     26  H   UNL     1      30.146  -1.070 -21.529  0.00  0.00    +0.295 HD
ENDBRANCH  24  25
ENDBRANCH  22  24
ENDBRANCH  21  22
ENDBRANCH  20  21
ENDBRANCH   2  20
BRANCH   2  27
ATOM     27  C   UNL     1      31.139  -5.474 -24.815  0.00  0.00    +0.120 C 
BRANCH  27  29
ATOM     28 CL   UNL     1      32.438  -1.867 -28.341  0.00  0.00    -0.082 Cl
ATOM     29  C   UNL     1      32.159  -4.915 -25.766  0.00  0.00    -0.001 C 
ATOM     30  C   UNL     1      31.859  -3.783 -26.523  0.00  0.00    +0.009 C 
ATOM     31  C   UNL     1      33.406  -5.528 -25.891  0.00  0.00    -0.003 C 
ATOM     32  C   UNL     1      32.807  -3.263 -27.405  0.00  0.00    +0.057 C 
ATOM     33  C   UNL     1      34.352  -5.009 -26.772  0.00  0.00    +0.001 C 
ATOM     34  C   UNL     1      34.054  -3.877 -27.530  0.00  0.00    +0.011 C 
ENDBRANCH  27  29
ENDBRANCH   2  27
TORSDOF 9
ENDMDL
MODEL 9
REMARK VINA RESULT:      -7.4      8.544     13.512
REMARK  Name = 57520598
REMARK  9 active torsions:
REMARK  status: ('A' for Active; 'I' for Inactive)
REMARK    1  A    between atoms: N_2  and  C_20
REMARK    2  A    between atoms: N_2  and  C_27
REMARK    3  A    between atoms: C_3  and  C_6
REMARK    4  A    between atoms: C_10  and  C_12
REMARK    5  A    between atoms: C_20  and  C_21
REMARK    6  A    between atoms: C_21  and  C_22
REMARK    7  A    between atoms: C_22  and  C_24
REMARK    8  A    between atoms: C_24  and  O_25
REMARK    9  A    between atoms: C_27  and  C_29
REMARK                            x       y       z     vdW  Elec       q    Type
REMARK                         _______ _______ _______ _____ _____    ______ ____
ROOT
ATOM      1  O   UNL     1      34.384 -11.343 -24.025  0.00  0.00    -0.273 OA
ATOM      2  N   UNL     1      32.948 -10.036 -22.721  0.00  0.00    -0.274 N 
ATOM      3  C   UNL     1      33.401 -11.259 -23.274  0.00  0.00    +0.242 C 
ENDROOT
BRANCH   3   6
ATOM      4  O   UNL     1      34.902 -14.187 -21.912  0.00  0.00    -0.270 OA
ATOM      5  N   UNL     1      33.188 -13.751 -23.384  0.00  0.00    -0.271 N 
ATOM      6  C   UNL     1      32.601 -12.516 -22.895  0.00  0.00    +0.131 C 
ATOM      7  C   UNL     1      31.377 -12.869 -23.747  0.00  0.00    +0.049 C 
ATOM      8  C   UNL     1      32.241 -13.909 -24.473  0.00  0.00    +0.096 C 
ATOM      9  C   UNL     1      32.322 -12.608 -21.411  0.00  0.00    +0.029 C 
ATOM     10  C   UNL     1      34.201 -14.514 -22.867  0.00  0.00    +0.250 C 
BRANCH  10  12
ATOM     11  S   UNL     1      34.809 -17.579 -25.327  0.00  0.00    -0.086 S 
ATOM     12  C   UNL     1      34.441 -15.825 -23.498  0.00  0.00    +0.061 C 
ATOM     13  C   UNL     1      34.606 -17.069 -22.800  0.00  0.00    +0.011 C 
ATOM     14  C   UNL     1      34.529 -15.962 -24.863  0.00  0.00    +0.040 C 
ATOM     15  C   UNL     1      34.817 -18.125 -23.691  0.00  0.00    +0.030 C 
ATOM     16  C   UNL     1      34.586 -17.356 -21.413  0.00  0.00    +0.001 C 
ATOM     17  C   UNL     1      35.005 -19.445 -23.238  0.00  0.00    +0.006 C 
ATOM     18  C   UNL     1      34.773 -18.665 -20.960  0.00  0.00    +0.000 C 
ATOM     19  C   UNL     1      34.979 -19.697 -21.864  0.00  0.00    +0.001 C 
ENDBRANCH  10  12
ENDBRANCH   3   6
BRANCH   2  20
ATOM     20  C   UNL     1      31.815  -9.890 -21.847  0.00  0.00    +0.094 C 
BRANCH  20  21
ATOM     21  C   UNL     1      32.216  -9.578 -20.406  0.00  0.00    +0.033 C 
BRANCH  21  22
ATOM     22  C   UNL     1      31.563  -8.315 -19.836  0.00  0.00    +0.111 C 
BRANCH  22  24
ATOM     23  O   UNL     1      31.985  -6.094 -20.742  0.00  0.00    -0.250 OA
ATOM     24  C   UNL     1      32.364  -7.060 -20.094  0.00  0.00    +0.314 C 
BRANCH  24  25
ATOM     25  O   UNL     1      33.580  -7.113 -19.488  0.00  0.00    -0.480 OA
ATOM     26  H   UNL     1      34.010  -7.938 -19.373  0.00  0.00    +0.295 HD
ENDBRANCH  24  25
ENDBRANCH  22  24
ENDBRANCH  21  22
ENDBRANCH  20  21
ENDBRANCH   2  20
BRANCH   2  27
ATOM     27  C   UNL     1      33.676  -8.807 -23.052  0.00  0.00    +0.120 C 
BRANCH  27  29
ATOM     28 CL   UNL     1      33.217  -4.439 -25.852  0.00  0.00    -0.082 Cl
ATOM     29  C   UNL     1      32.787  -7.784 -23.702  0.00  0.00    -0.001 C 
ATOM     30  C   UNL     1      33.350  -6.712 -24.394  0.00  0.00    +0.009 C 
ATOM     31  C   UNL     1      31.401  -7.909 -23.614  0.00  0.00    -0.003 C 
ATOM     32  C   UNL     1      32.524  -5.763 -24.999  0.00  0.00    +0.057 C 
ATOM     33  C   UNL     1      30.577  -6.961 -24.219  0.00  0.00    +0.001 C 
ATOM     34  C   UNL     1      31.138  -5.888 -24.911  0.00  0.00    +0.011 C 
ENDBRANCH  27  29
ENDBRANCH   2  27
TORSDOF 9
ENDMDL
