MODEL 1
REMARK VINA RESULT:      -4.7      0.000      0.000
REMARK  Name = 94335
REMARK  6 active torsions:
REMARK  status: ('A' for Active; 'I' for Inactive)
REMARK    1  A    between atoms: C_1  and  O_2
REMARK    2  A    between atoms: C_1  and  C_4
REMARK    3  A    between atoms: C_1  and  C_8
REMARK    4  A    between atoms: C_4  and  C_5
REMARK    5  A    between atoms: C_5  and  C_6
REMARK    6  A    between atoms: C_8  and  O_9
REMARK                            x       y       z     vdW  Elec       q    Type
REMARK                         _______ _______ _______ _____ _____    ______ ____
ROOT
ATOM      1  C   UNL     1      34.894 -16.885 -22.599  0.00  0.00    +0.140 C 
ENDROOT
BRANCH   1   2
ATOM      2  O   UNL     1      35.737 -16.213 -23.535  0.00  0.00    -0.382 OA
ATOM      3  H   UNL     1      35.643 -16.625 -24.408  0.00  0.00    +0.210 HD
ENDBRANCH   1   2
BRANCH   1   4
ATOM      4  C   UNL     1      35.603 -18.130 -22.057  0.00  0.00    +0.032 C 
BRANCH   4   5
ATOM      5  C   UNL     1      34.738 -19.392 -22.152  0.00  0.00    +0.003 C 
BRANCH   5   6
ATOM      6  C   UNL     1      34.356 -19.908 -20.763  0.00  0.00    +0.000 C 
ATOM      7  C   UNL     1      32.848 -19.994 -20.596  0.00  0.00    +0.000 C 
ENDBRANCH   5   6
ENDBRANCH   4   5
ENDBRANCH   1   4
BRANCH   1   8
ATOM      8  C   UNL     1      34.582 -15.903 -21.473  0.00  0.00    +0.166 C 
BRANCH   8   9
ATOM      9  O   UNL     1      35.131 -16.402 -20.258  0.00  0.00    -0.379 OA
ATOM     10  H   UNL     1      35.962 -15.939 -20.064  0.00  0.00    +0.211 HD
ENDBRANCH   8   9
ENDBRANCH   1   8
TORSDOF 6
ENDMDL
MODEL 2
REMARK VINA RESULT:      -4.6      0.832      2.063
REMARK  Name = 94335
REMARK  6 active torsions:
REMARK  status: ('A' for Active; 'I' for Inactive)
REMARK    1  A    between atoms: C_1  and  O_2
REMARK    2  A    between atoms: C_1  and  C_4
REMARK    3  A    between atoms: C_1  and  C_8
REMARK    4  A    between atoms: C_4  and  C_5
REMARK    5  A    between atoms: C_5  and  C_6
REMARK    6  A    between atoms: C_8  and  O_9
REMARK                            x       y       z     vdW  Elec       q    Type
REMARK                         _______ _______ _______ _____ _____    ______ ____
ROOT
ATOM      1  C   UNL     1      35.348 -17.624 -21.970  0.00  0.00    +0.140 C 
ENDROOT
BRANCH   1   2
ATOM      2  O   UNL     1      35.293 -17.230 -20.598  0.00  0.00    -0.382 OA
ATOM      3  H   UNL     1      34.368 -17.121 -20.330  0.00  0.00    +0.210 HD
ENDBRANCH   1   2
BRANCH   1   4
ATOM      4  C   UNL     1      34.592 -18.942 -22.166  0.00  0.00    +0.032 C 
BRANCH   4   5
ATOM      5  C   UNL     1      34.669 -19.857 -20.939  0.00  0.00    +0.003 C 
BRANCH   5   6
ATOM      6  C   UNL     1      33.272 -20.230 -20.438  0.00  0.00    +0.000 C 
ATOM      7  C   UNL     1      33.320 -21.409 -19.480  0.00  0.00    +0.000 C 
ENDBRANCH   5   6
ENDBRANCH   4   5
ENDBRANCH   1   4
BRANCH   1   8
ATOM      8  C   UNL     1      34.717 -16.506 -22.794  0.00  0.00    +0.166 C 
BRANCH   8   9
ATOM      9  O   UNL     1      35.660 -16.055 -23.762  0.00  0.00    -0.379 OA
ATOM     10  H   UNL     1      35.728 -15.088 -23.721  0.00  0.00    +0.211 HD
ENDBRANCH   8   9
ENDBRANCH   1   8
TORSDOF 6
ENDMDL
MODEL 3
REMARK VINA RESULT:      -4.6      1.840      2.639
REMARK  Name = 94335
REMARK  6 active torsions:
REMARK  status: ('A' for Active; 'I' for Inactive)
REMARK    1  A    between atoms: C_1  and  O_2
REMARK    2  A    between atoms: C_1  and  C_4
REMARK    3  A    between atoms: C_1  and  C_8
REMARK    4  A    between atoms: C_4  and  C_5
REMARK    5  A    between atoms: C_5  and  C_6
REMARK    6  A    between atoms: C_8  and  O_9
REMARK                            x       y       z     vdW  Elec       q    Type
REMARK                         _______ _______ _______ _____ _____    ______ ____
ROOT
ATOM      1  C   UNL     1      35.298 -18.255 -23.859  0.00  0.00    +0.140 C 
ENDROOT
BRANCH   1   2
ATOM      2  O   UNL     1      35.620 -17.016 -23.228  0.00  0.00    -0.382 OA
ATOM      3  H   UNL     1      34.818 -16.632 -22.842  0.00  0.00    +0.210 HD
ENDBRANCH   1   2
BRANCH   1   4
ATOM      4  C   UNL     1      34.564 -19.169 -22.872  0.00  0.00    +0.032 C 
BRANCH   4   5
ATOM      5  C   UNL     1      35.194 -19.158 -21.475  0.00  0.00    +0.003 C 
BRANCH   5   6
ATOM      6  C   UNL     1      34.470 -20.123 -20.533  0.00  0.00    +0.000 C 
ATOM      7  C   UNL     1      32.962 -20.030 -20.693  0.00  0.00    +0.000 C 
ENDBRANCH   5   6
ENDBRANCH   4   5
ENDBRANCH   1   4
BRANCH   1   8
ATOM      8  C   UNL     1      34.420 -17.942 -25.067  0.00  0.00    +0.166 C 
BRANCH   8   9
ATOM      9  O   UNL     1      34.972 -16.830 -25.765  0.00  0.00    -0.379 OA
ATOM     10  H   UNL     1      35.914 -16.745 -25.546  0.00  0.00    +0.211 HD
ENDBRANCH   8   9
ENDBRANCH   1   8
TORSDOF 6
ENDMDL
MODEL 4
REMARK VINA RESULT:      -4.5     11.532     12.258
REMARK  Name = 94335
REMARK  6 active torsions:
REMARK  status: ('A' for Active; 'I' for Inactive)
REMARK    1  A    between atoms: C_1  and  O_2
REMARK    2  A    between atoms: C_1  and  C_4
REMARK    3  A    between atoms: C_1  and  C_8
REMARK    4  A    between atoms: C_4  and  C_5
REMARK    5  A    between atoms: C_5  and  C_6
REMARK    6  A    between atoms: C_8  and  O_9
REMARK                            x       y       z     vdW  Elec       q    Type
REMARK                         _______ _______ _______ _____ _____    ______ ____
ROOT
ATOM      1  C   UNL     1      37.079 -23.443 -11.931  0.00  0.00    +0.140 C 
ENDROOT
BRANCH   1   2
ATOM      2  O   UNL     1      37.326 -22.294 -11.121  0.00  0.00    -0.382 OA
ATOM      3  H   UNL     1      38.015 -21.750 -11.533  0.00  0.00    +0.210 HD
ENDBRANCH   1   2
BRANCH   1   4
ATOM      4  C   UNL     1      38.360 -24.272 -12.067  0.00  0.00    +0.032 C 
BRANCH   4   5
ATOM      5  C   UNL     1      38.153 -25.551 -12.887  0.00  0.00    +0.003 C 
BRANCH   5   6
ATOM      6  C   UNL     1      38.786 -25.427 -14.275  0.00  0.00    +0.000 C 
ATOM      7  C   UNL     1      40.274 -25.732 -14.238  0.00  0.00    +0.000 C 
ENDBRANCH   5   6
ENDBRANCH   4   5
ENDBRANCH   1   4
BRANCH   1   8
ATOM      8  C   UNL     1      35.975 -24.252 -11.257  0.00  0.00    +0.166 C 
BRANCH   8   9
ATOM      9  O   UNL     1      36.132 -24.164  -9.845  0.00  0.00    -0.379 OA
ATOM     10  H   UNL     1      36.419 -23.269  -9.606  0.00  0.00    +0.211 HD
ENDBRANCH   8   9
ENDBRANCH   1   8
TORSDOF 6
ENDMDL
MODEL 5
REMARK VINA RESULT:      -4.5      1.664      2.611
REMARK  Name = 94335
REMARK  6 active torsions:
REMARK  status: ('A' for Active; 'I' for Inactive)
REMARK    1  A    between atoms: C_1  and  O_2
REMARK    2  A    between atoms: C_1  and  C_4
REMARK    3  A    between atoms: C_1  and  C_8
REMARK    4  A    between atoms: C_4  and  C_5
REMARK    5  A    between atoms: C_5  and  C_6
REMARK    6  A    between atoms: C_8  and  O_9
REMARK                            x       y       z     vdW  Elec       q    Type
REMARK                         _______ _______ _______ _____ _____    ______ ____
ROOT
ATOM      1  C   UNL     1      35.351 -18.081 -23.356  0.00  0.00    +0.140 C 
ENDROOT
BRANCH   1   2
ATOM      2  O   UNL     1      35.654 -16.723 -23.674  0.00  0.00    -0.382 OA
ATOM      3  H   UNL     1      35.548 -16.174 -22.882  0.00  0.00    +0.210 HD
ENDBRANCH   1   2
BRANCH   1   4
ATOM      4  C   UNL     1      34.568 -18.149 -22.041  0.00  0.00    +0.032 C 
BRANCH   4   5
ATOM      5  C   UNL     1      34.541 -19.558 -21.439  0.00  0.00    +0.003 C 
BRANCH   5   6
ATOM      6  C   UNL     1      33.173 -19.875 -20.832  0.00  0.00    +0.000 C 
ATOM      7  C   UNL     1      33.266 -20.984 -19.797  0.00  0.00    +0.000 C 
ENDBRANCH   5   6
ENDBRANCH   4   5
ENDBRANCH   1   4
BRANCH   1   8
ATOM      8  C   UNL     1      34.530 -18.652 -24.508  0.00  0.00    +0.166 C 
BRANCH   8   9
ATOM      9  O   UNL     1      34.525 -17.715 -25.581  0.00  0.00    -0.379 OA
ATOM     10  H   UNL     1      35.200 -17.965 -26.232  0.00  0.00    +0.211 HD
ENDBRANCH   8   9
ENDBRANCH   1   8
TORSDOF 6
ENDMDL
MODEL 6
REMARK VINA RESULT:      -4.5      2.229      3.216
REMARK  Name = 94335
REMARK  6 active torsions:
REMARK  status: ('A' for Active; 'I' for Inactive)
REMARK    1  A    between atoms: C_1  and  O_2
REMARK    2  A    between atoms: C_1  and  C_4
REMARK    3  A    between atoms: C_1  and  C_8
REMARK    4  A    between atoms: C_4  and  C_5
REMARK    5  A    between atoms: C_5  and  C_6
REMARK    6  A    between atoms: C_8  and  O_9
REMARK                            x       y       z     vdW  Elec       q    Type
REMARK                         _______ _______ _______ _____ _____    ______ ____
ROOT
ATOM      1  C   UNL     1      34.909 -16.613 -24.904  0.00  0.00    +0.140 C 
ENDROOT
BRANCH   1   2
ATOM      2  O   UNL     1      35.584 -16.106 -23.753  0.00  0.00    -0.382 OA
ATOM      3  H   UNL     1      35.814 -16.842 -23.164  0.00  0.00    +0.210 HD
ENDBRANCH   1   2
BRANCH   1   4
ATOM      4  C   UNL     1      34.493 -18.068 -24.669  0.00  0.00    +0.032 C 
BRANCH   4   5
ATOM      5  C   UNL     1      35.351 -18.765 -23.607  0.00  0.00    +0.003 C 
BRANCH   5   6
ATOM      6  C   UNL     1      34.491 -19.276 -22.449  0.00  0.00    +0.000 C 
ATOM      7  C   UNL     1      34.434 -18.269 -21.311  0.00  0.00    +0.000 C 
ENDBRANCH   5   6
ENDBRANCH   4   5
ENDBRANCH   1   4
BRANCH   1   8
ATOM      8  C   UNL     1      33.689 -15.730 -25.148  0.00  0.00    +0.166 C 
BRANCH   8   9
ATOM      9  O   UNL     1      33.605 -15.428 -26.537  0.00  0.00    -0.379 OA
ATOM     10  H   UNL     1      34.417 -15.721 -26.982  0.00  0.00    +0.211 HD
ENDBRANCH   8   9
ENDBRANCH   1   8
TORSDOF 6
ENDMDL
MODEL 7
REMARK VINA RESULT:      -4.5      9.522     10.701
REMARK  Name = 94335
REMARK  6 active torsions:
REMARK  status: ('A' for Active; 'I' for Inactive)
REMARK    1  A    between atoms: C_1  and  O_2
REMARK    2  A    between atoms: C_1  and  C_4
REMARK    3  A    between atoms: C_1  and  C_8
REMARK    4  A    between atoms: C_4  and  C_5
REMARK    5  A    between atoms: C_5  and  C_6
REMARK    6  A    between atoms: C_8  and  O_9
REMARK                            x       y       z     vdW  Elec       q    Type
REMARK                         _______ _______ _______ _____ _____    ______ ____
ROOT
ATOM      1  C   UNL     1      41.122 -14.732 -15.013  0.00  0.00    +0.140 C 
ENDROOT
BRANCH   1   2
ATOM      2  O   UNL     1      40.141 -15.766 -15.103  0.00  0.00    -0.382 OA
ATOM      3  H   UNL     1      39.256 -15.370 -15.124  0.00  0.00    +0.210 HD
ENDBRANCH   1   2
BRANCH   1   4
ATOM      4  C   UNL     1      41.590 -14.331 -16.415  0.00  0.00    +0.032 C 
BRANCH   4   5
ATOM      5  C   UNL     1      42.735 -13.313 -16.388  0.00  0.00    +0.003 C 
BRANCH   5   6
ATOM      6  C   UNL     1      42.835 -12.556 -17.714  0.00  0.00    +0.000 C 
ATOM      7  C   UNL     1      42.638 -11.061 -17.518  0.00  0.00    +0.000 C 
ENDBRANCH   5   6
ENDBRANCH   4   5
ENDBRANCH   1   4
BRANCH   1   8
ATOM      8  C   UNL     1      40.480 -13.550 -14.293  0.00  0.00    +0.166 C 
BRANCH   8   9
ATOM      9  O   UNL     1      40.982 -13.491 -12.961  0.00  0.00    -0.379 OA
ATOM     10  H   UNL     1      41.951 -13.526 -12.979  0.00  0.00    +0.211 HD
ENDBRANCH   8   9
ENDBRANCH   1   8
TORSDOF 6
ENDMDL
MODEL 8
REMARK VINA RESULT:      -4.4     11.612     12.148
REMARK  Name = 94335
REMARK  6 active torsions:
REMARK  status: ('A' for Active; 'I' for Inactive)
REMARK    1  A    between atoms: C_1  and  O_2
REMARK    2  A    between atoms: C_1  and  C_4
REMARK    3  A    between atoms: C_1  and  C_8
REMARK    4  A    between atoms: C_4  and  C_5
REMARK    5  A    between atoms: C_5  and  C_6
REMARK    6  A    between atoms: C_8  and  O_9
REMARK                            x       y       z     vdW  Elec       q    Type
REMARK                         _______ _______ _______ _____ _____    ______ ____
ROOT
ATOM      1  C   UNL     1      38.800 -25.796 -14.386  0.00  0.00    +0.140 C 
ENDROOT
BRANCH   1   2
ATOM      2  O   UNL     1      38.294 -27.117 -14.580  0.00  0.00    -0.382 OA
ATOM      3  H   UNL     1      37.809 -27.396 -13.788  0.00  0.00    +0.210 HD
ENDBRANCH   1   2
BRANCH   1   4
ATOM      4  C   UNL     1      38.502 -25.326 -12.958  0.00  0.00    +0.032 C 
BRANCH   4   5
ATOM      5  C   UNL     1      37.091 -25.701 -12.494  0.00  0.00    +0.003 C 
BRANCH   5   6
ATOM      6  C   UNL     1      36.426 -24.541 -11.749  0.00  0.00    +0.000 C 
ATOM      7  C   UNL     1      37.264 -23.275 -11.828  0.00  0.00    +0.000 C 
ENDBRANCH   5   6
ENDBRANCH   4   5
ENDBRANCH   1   4
BRANCH   1   8
ATOM      8  C   UNL     1      40.303 -25.836 -14.644  0.00  0.00    +0.166 C 
BRANCH   8   9
ATOM      9  O   UNL     1      40.529 -26.003 -16.040  0.00  0.00    -0.379 OA
ATOM     10  H   UNL     1      39.722 -26.341 -16.461  0.00  0.00    +0.211 HD
ENDBRANCH   8   9
ENDBRANCH   1   8
TORSDOF 6
ENDMDL
MODEL 9
REMARK VINA RESULT:      -4.4      9.660     10.291
REMARK  Name = 94335
REMARK  6 active torsions:
REMARK  status: ('A' for Active; 'I' for Inactive)
REMARK    1  A    between atoms: C_1  and  O_2
REMARK    2  A    between atoms: C_1  and  C_4
REMARK    3  A    between atoms: C_1  and  C_8
REMARK    4  A    between atoms: C_4  and  C_5
REMARK    5  A    between atoms: C_5  and  C_6
REMARK    6  A    between atoms: C_8  and  O_9
REMARK                            x       y       z     vdW  Elec       q    Type
REMARK                         _______ _______ _______ _____ _____    ______ ____
ROOT
ATOM      1  C   UNL     1      28.213 -23.767 -16.139  0.00  0.00    +0.140 C 
ENDROOT
BRANCH   1   2
ATOM      2  O   UNL     1      27.832 -24.103 -17.474  0.00  0.00    -0.382 OA
ATOM      3  H   UNL     1      26.872 -24.013 -17.568  0.00  0.00    +0.210 HD
ENDBRANCH   1   2
BRANCH   1   4
ATOM      4  C   UNL     1      29.739 -23.787 -16.009  0.00  0.00    +0.032 C 
BRANCH   4   5
ATOM      5  C   UNL     1      30.253 -22.839 -14.920  0.00  0.00    +0.003 C 
BRANCH   5   6
ATOM      6  C   UNL     1      30.798 -23.617 -13.721  0.00  0.00    +0.000 C 
ATOM      7  C   UNL     1      30.983 -25.089 -14.049  0.00  0.00    +0.000 C 
ENDBRANCH   5   6
ENDBRANCH   4   5
ENDBRANCH   1   4
BRANCH   1   8
ATOM      8  C   UNL     1      27.658 -22.378 -15.838  0.00  0.00    +0.166 C 
BRANCH   8   9
ATOM      9  O   UNL     1      27.573 -21.640 -17.053  0.00  0.00    -0.379 OA
ATOM     10  H   UNL     1      28.465 -21.496 -17.407  0.00  0.00    +0.211 HD
ENDBRANCH   8   9
ENDBRANCH   1   8
TORSDOF 6
ENDMDL
