MODEL 1
REMARK VINA RESULT:     -11.1      0.000      0.000
REMARK  Name = 23586146
REMARK  5 active torsions:
REMARK  status: ('A' for Active; 'I' for Inactive)
REMARK    1  A    between atoms: N_1  and  C_12
REMARK    2  A    between atoms: C_8  and  N_18
REMARK    3  A    between atoms: N_18  and  C_20
REMARK    4  A    between atoms: C_23  and  S_26
REMARK    5  A    between atoms: S_26  and  N_29
REMARK                            x       y       z     vdW  Elec       q    Type
REMARK                         _______ _______ _______ _____ _____    ______ ____
ROOT
ATOM      1  N   UNL     1      31.747 -23.528 -16.687  0.00  0.00    -0.309 N 
ATOM      2  N   UNL     1      33.906 -23.268 -15.953  0.00  0.00    -0.321 NA
ATOM      3  N   UNL     1      35.558 -22.433 -17.485  0.00  0.00    -0.106 N 
ATOM      4  N   UNL     1      36.886 -22.138 -17.478  0.00  0.00    -0.139 NA
ATOM      5  N   UNL     1      36.244 -22.904 -15.432  0.00  0.00    -0.145 NA
ATOM      6  C   UNL     1      33.021 -23.173 -16.918  0.00  0.00    +0.196 C 
ATOM      7  C   UNL     1      33.367 -22.677 -18.296  0.00  0.00    +0.081 C 
ATOM      8  C   UNL     1      34.639 -22.321 -18.531  0.00  0.00    +0.140 C 
ATOM      9  C   UNL     1      35.188 -22.900 -16.222  0.00  0.00    +0.176 C 
ATOM     10  C   UNL     1      37.237 -22.438 -16.231  0.00  0.00    +0.230 C 
ATOM     11  H   UNL     1      31.099 -23.466 -17.425  0.00  0.00    +0.149 HD
ENDROOT
BRANCH   1  12
ATOM     12  C   UNL     1      31.284 -24.001 -15.395  0.00  0.00    +0.071 C 
ATOM     13  C   UNL     1      30.693 -22.839 -14.591  0.00  0.00    +0.020 C 
ATOM     14  C   UNL     1      30.265 -25.129 -15.584  0.00  0.00    +0.020 C 
ATOM     15  C   UNL     1      29.355 -22.352 -15.149  0.00  0.00    +0.002 C 
ATOM     16  C   UNL     1      28.929 -24.635 -16.138  0.00  0.00    +0.002 C 
ATOM     17  C   UNL     1      28.358 -23.495 -15.298  0.00  0.00    +0.000 C 
ENDBRANCH   1  12
BRANCH   8  18
ATOM     18  N   UNL     1      35.097 -21.855 -19.730  0.00  0.00    -0.299 N 
ATOM     19  H   UNL     1      35.576 -22.508 -20.289  0.00  0.00    +0.153 HD
BRANCH  18  20
ATOM     20  C   UNL     1      34.972 -20.568 -20.265  0.00  0.00    +0.049 C 
ATOM     21  C   UNL     1      33.706 -20.042 -20.529  0.00  0.00    +0.016 C 
ATOM     22  C   UNL     1      36.111 -19.811 -20.537  0.00  0.00    +0.016 C 
ATOM     23  C   UNL     1      34.722 -18.003 -21.334  0.00  0.00    +0.122 C 
ATOM     24  C   UNL     1      33.582 -18.759 -21.062  0.00  0.00    +0.021 C 
ATOM     25  C   UNL     1      35.986 -18.529 -21.070  0.00  0.00    +0.021 C 
BRANCH  23  26
ATOM     26  S   UNL     1      34.565 -16.398 -22.001  0.00  0.00    +0.057 S 
ATOM     27  O   UNL     1      35.611 -16.211 -22.998  0.00  0.00    -0.153 OA
ATOM     28  O   UNL     1      33.172 -16.181 -22.365  0.00  0.00    -0.153 OA
BRANCH  26  29
ATOM     29  N   UNL     1      34.930 -15.439 -20.635  0.00  0.00    -0.203 NA
ATOM     30  H   UNL     1      35.078 -14.474 -20.926  0.00  0.00    +0.144 HD
ATOM     31  H   UNL     1      35.776 -15.792 -20.187  0.00  0.00    +0.144 HD
ENDBRANCH  26  29
ENDBRANCH  23  26
ENDBRANCH  18  20
ENDBRANCH   8  18
TORSDOF 5
ENDMDL
MODEL 2
REMARK VINA RESULT:     -10.7      4.917     10.011
REMARK  Name = 23586146
REMARK  5 active torsions:
REMARK  status: ('A' for Active; 'I' for Inactive)
REMARK    1  A    between atoms: N_1  and  C_12
REMARK    2  A    between atoms: C_8  and  N_18
REMARK    3  A    between atoms: N_18  and  C_20
REMARK    4  A    between atoms: C_23  and  S_26
REMARK    5  A    between atoms: S_26  and  N_29
REMARK                            x       y       z     vdW  Elec       q    Type
REMARK                         _______ _______ _______ _____ _____    ______ ____
ROOT
ATOM      1  N   UNL     1      33.621 -13.601 -23.068  0.00  0.00    -0.309 N 
ATOM      2  N   UNL     1      33.663 -15.411 -24.479  0.00  0.00    -0.321 NA
ATOM      3  N   UNL     1      34.733 -17.432 -23.741  0.00  0.00    -0.106 N 
ATOM      4  N   UNL     1      34.979 -18.680 -24.223  0.00  0.00    -0.139 NA
ATOM      5  N   UNL     1      33.845 -17.453 -25.770  0.00  0.00    -0.145 NA
ATOM      6  C   UNL     1      33.974 -14.871 -23.324  0.00  0.00    +0.196 C 
ATOM      7  C   UNL     1      34.723 -15.616 -22.252  0.00  0.00    +0.081 C 
ATOM      8  C   UNL     1      35.079 -16.884 -22.503  0.00  0.00    +0.140 C 
ATOM      9  C   UNL     1      34.037 -16.700 -24.706  0.00  0.00    +0.176 C 
ATOM     10  C   UNL     1      34.427 -18.631 -25.432  0.00  0.00    +0.230 C 
ATOM     11  H   UNL     1      33.876 -13.207 -22.203  0.00  0.00    +0.149 HD
ENDROOT
BRANCH   1  12
ATOM     12  C   UNL     1      32.878 -12.786 -24.011  0.00  0.00    +0.071 C 
ATOM     13  C   UNL     1      31.850 -11.927 -23.269  0.00  0.00    +0.020 C 
ATOM     14  C   UNL     1      33.842 -11.924 -24.832  0.00  0.00    +0.020 C 
ATOM     15  C   UNL     1      32.493 -10.805 -22.454  0.00  0.00    +0.002 C 
ATOM     16  C   UNL     1      34.478 -10.802 -24.013  0.00  0.00    +0.002 C 
ATOM     17  C   UNL     1      33.425  -9.952 -23.308  0.00  0.00    +0.000 C 
ENDBRANCH   1  12
BRANCH   8  18
ATOM     18  N   UNL     1      35.760 -17.679 -21.627  0.00  0.00    -0.299 N 
ATOM     19  H   UNL     1      36.677 -17.395 -21.413  0.00  0.00    +0.153 HD
BRANCH  18  20
ATOM     20  C   UNL     1      35.320 -18.847 -20.993  0.00  0.00    +0.049 C 
ATOM     21  C   UNL     1      33.954 -19.113 -20.891  0.00  0.00    +0.016 C 
ATOM     22  C   UNL     1      36.246 -19.744 -20.461  0.00  0.00    +0.016 C 
ATOM     23  C   UNL     1      34.444 -21.174 -19.728  0.00  0.00    +0.122 C 
ATOM     24  C   UNL     1      33.516 -20.277 -20.259  0.00  0.00    +0.021 C 
ATOM     25  C   UNL     1      35.808 -20.907 -19.829  0.00  0.00    +0.021 C 
BRANCH  23  26
ATOM     26  S   UNL     1      33.894 -22.630 -18.937  0.00  0.00    +0.057 S 
ATOM     27  O   UNL     1      32.558 -22.390 -18.410  0.00  0.00    -0.153 OA
ATOM     28  O   UNL     1      34.129 -23.758 -19.828  0.00  0.00    -0.153 OA
BRANCH  26  29
ATOM     29  N   UNL     1      34.992 -22.726 -17.631  0.00  0.00    -0.203 NA
ATOM     30  H   UNL     1      34.480 -22.679 -16.751  0.00  0.00    +0.144 HD
ATOM     31  H   UNL     1      35.651 -21.949 -17.683  0.00  0.00    +0.144 HD
ENDBRANCH  26  29
ENDBRANCH  23  26
ENDBRANCH  18  20
ENDBRANCH   8  18
TORSDOF 5
ENDMDL
MODEL 3
REMARK VINA RESULT:     -10.6      4.998     10.092
REMARK  Name = 23586146
REMARK  5 active torsions:
REMARK  status: ('A' for Active; 'I' for Inactive)
REMARK    1  A    between atoms: N_1  and  C_12
REMARK    2  A    between atoms: C_8  and  N_18
REMARK    3  A    between atoms: N_18  and  C_20
REMARK    4  A    between atoms: C_23  and  S_26
REMARK    5  A    between atoms: S_26  and  N_29
REMARK                            x       y       z     vdW  Elec       q    Type
REMARK                         _______ _______ _______ _____ _____    ______ ____
ROOT
ATOM      1  N   UNL     1      33.834 -13.582 -23.232  0.00  0.00    -0.309 N 
ATOM      2  N   UNL     1      33.747 -15.461 -24.549  0.00  0.00    -0.321 NA
ATOM      3  N   UNL     1      34.786 -17.478 -23.760  0.00  0.00    -0.106 N 
ATOM      4  N   UNL     1      34.967 -18.756 -24.189  0.00  0.00    -0.139 NA
ATOM      5  N   UNL     1      33.798 -17.569 -25.741  0.00  0.00    -0.145 NA
ATOM      6  C   UNL     1      34.132 -14.875 -23.439  0.00  0.00    +0.196 C 
ATOM      7  C   UNL     1      34.909 -15.591 -22.367  0.00  0.00    +0.081 C 
ATOM      8  C   UNL     1      35.210 -16.882 -22.570  0.00  0.00    +0.140 C 
ATOM      9  C   UNL     1      34.068 -16.771 -24.727  0.00  0.00    +0.176 C 
ATOM     10  C   UNL     1      34.358 -18.748 -25.370  0.00  0.00    +0.230 C 
ATOM     11  H   UNL     1      34.144 -13.154 -22.402  0.00  0.00    +0.149 HD
ENDROOT
BRANCH   1  12
ATOM     12  C   UNL     1      33.072 -12.790 -24.180  0.00  0.00    +0.071 C 
ATOM     13  C   UNL     1      32.010 -11.967 -23.444  0.00  0.00    +0.020 C 
ATOM     14  C   UNL     1      34.014 -11.895 -24.991  0.00  0.00    +0.020 C 
ATOM     15  C   UNL     1      32.610 -10.826 -22.621  0.00  0.00    +0.002 C 
ATOM     16  C   UNL     1      34.606 -10.754 -24.164  0.00  0.00    +0.002 C 
ATOM     17  C   UNL     1      33.520  -9.941 -23.466  0.00  0.00    +0.000 C 
ENDBRANCH   1  12
BRANCH   8  18
ATOM     18  N   UNL     1      35.908 -17.656 -21.687  0.00  0.00    -0.299 N 
ATOM     19  H   UNL     1      36.820 -17.352 -21.479  0.00  0.00    +0.153 HD
BRANCH  18  20
ATOM     20  C   UNL     1      35.490 -18.824 -21.040  0.00  0.00    +0.049 C 
ATOM     21  C   UNL     1      36.436 -19.706 -20.515  0.00  0.00    +0.016 C 
ATOM     22  C   UNL     1      34.130 -19.108 -20.920  0.00  0.00    +0.016 C 
ATOM     23  C   UNL     1      34.659 -21.154 -19.749  0.00  0.00    +0.122 C 
ATOM     24  C   UNL     1      36.020 -20.871 -19.869  0.00  0.00    +0.021 C 
ATOM     25  C   UNL     1      33.715 -20.272 -20.274  0.00  0.00    +0.021 C 
BRANCH  23  26
ATOM     26  S   UNL     1      34.139 -22.611 -18.941  0.00  0.00    +0.057 S 
ATOM     27  O   UNL     1      34.105 -23.691 -19.918  0.00  0.00    -0.153 OA
ATOM     28  O   UNL     1      34.916 -22.766 -17.719  0.00  0.00    -0.153 OA
BRANCH  26  29
ATOM     29  N   UNL     1      32.535 -22.197 -18.522  0.00  0.00    -0.203 NA
ATOM     30  H   UNL     1      32.535 -21.678 -17.645  0.00  0.00    +0.144 HD
ATOM     31  H   UNL     1      31.982 -23.048 -18.413  0.00  0.00    +0.144 HD
ENDBRANCH  26  29
ENDBRANCH  23  26
ENDBRANCH  18  20
ENDBRANCH   8  18
TORSDOF 5
ENDMDL
MODEL 4
REMARK VINA RESULT:     -10.5      7.750     13.213
REMARK  Name = 23586146
REMARK  5 active torsions:
REMARK  status: ('A' for Active; 'I' for Inactive)
REMARK    1  A    between atoms: N_1  and  C_12
REMARK    2  A    between atoms: C_8  and  N_18
REMARK    3  A    between atoms: N_18  and  C_20
REMARK    4  A    between atoms: C_23  and  S_26
REMARK    5  A    between atoms: S_26  and  N_29
REMARK                            x       y       z     vdW  Elec       q    Type
REMARK                         _______ _______ _______ _____ _____    ______ ____
ROOT
ATOM      1  N   UNL     1      33.204  -8.344 -23.603  0.00  0.00    -0.309 N 
ATOM      2  N   UNL     1      32.608  -8.765 -21.426  0.00  0.00    -0.321 NA
ATOM      3  N   UNL     1      31.811 -10.955 -20.845  0.00  0.00    -0.106 N 
ATOM      4  N   UNL     1      31.373 -11.610 -19.737  0.00  0.00    -0.139 NA
ATOM      5  N   UNL     1      31.918  -9.463 -19.211  0.00  0.00    -0.145 NA
ATOM      6  C   UNL     1      32.745  -9.185 -22.662  0.00  0.00    +0.196 C 
ATOM      7  C   UNL     1      32.405 -10.588 -23.088  0.00  0.00    +0.081 C 
ATOM      8  C   UNL     1      31.946 -11.432 -22.151  0.00  0.00    +0.140 C 
ATOM      9  C   UNL     1      32.140  -9.643 -20.499  0.00  0.00    +0.176 C 
ATOM     10  C   UNL     1      31.460 -10.672 -18.799  0.00  0.00    +0.230 C 
ATOM     11  H   UNL     1      33.286  -8.671 -24.527  0.00  0.00    +0.149 HD
ENDROOT
BRANCH   1  12
ATOM     12  C   UNL     1      33.586  -6.974 -23.314  0.00  0.00    +0.071 C 
ATOM     13  C   UNL     1      34.691  -6.523 -24.274  0.00  0.00    +0.020 C 
ATOM     14  C   UNL     1      32.360  -6.059 -23.397  0.00  0.00    +0.020 C 
ATOM     15  C   UNL     1      34.187  -6.323 -25.704  0.00  0.00    +0.002 C 
ATOM     16  C   UNL     1      31.866  -5.861 -24.830  0.00  0.00    +0.002 C 
ATOM     17  C   UNL     1      32.985  -5.387 -25.752  0.00  0.00    +0.000 C 
ENDBRANCH   1  12
BRANCH   8  18
ATOM     18  N   UNL     1      31.598 -12.730 -22.391  0.00  0.00    -0.299 N 
ATOM     19  H   UNL     1      30.675 -12.877 -22.699  0.00  0.00    +0.153 HD
BRANCH  18  20
ATOM     20  C   UNL     1      32.386 -13.878 -22.257  0.00  0.00    +0.049 C 
ATOM     21  C   UNL     1      33.251 -14.255 -23.286  0.00  0.00    +0.016 C 
ATOM     22  C   UNL     1      32.309 -14.647 -21.096  0.00  0.00    +0.016 C 
ATOM     23  C   UNL     1      33.958 -16.168 -21.989  0.00  0.00    +0.122 C 
ATOM     24  C   UNL     1      34.037 -15.399 -23.151  0.00  0.00    +0.021 C 
ATOM     25  C   UNL     1      33.094 -15.791 -20.962  0.00  0.00    +0.021 C 
BRANCH  23  26
ATOM     26  S   UNL     1      34.943 -17.600 -21.822  0.00  0.00    +0.057 S 
ATOM     27  O   UNL     1      35.633 -17.536 -20.542  0.00  0.00    -0.153 OA
ATOM     28  O   UNL     1      34.128 -18.762 -22.149  0.00  0.00    -0.153 OA
BRANCH  26  29
ATOM     29  N   UNL     1      36.082 -17.360 -23.074  0.00  0.00    -0.203 NA
ATOM     30  H   UNL     1      36.794 -18.087 -23.030  0.00  0.00    +0.144 HD
ATOM     31  H   UNL     1      36.522 -16.446 -22.962  0.00  0.00    +0.144 HD
ENDBRANCH  26  29
ENDBRANCH  23  26
ENDBRANCH  18  20
ENDBRANCH   8  18
TORSDOF 5
ENDMDL
MODEL 5
REMARK VINA RESULT:     -10.5      0.917      1.313
REMARK  Name = 23586146
REMARK  5 active torsions:
REMARK  status: ('A' for Active; 'I' for Inactive)
REMARK    1  A    between atoms: N_1  and  C_12
REMARK    2  A    between atoms: C_8  and  N_18
REMARK    3  A    between atoms: N_18  and  C_20
REMARK    4  A    between atoms: C_23  and  S_26
REMARK    5  A    between atoms: S_26  and  N_29
REMARK                            x       y       z     vdW  Elec       q    Type
REMARK                         _______ _______ _______ _____ _____    ______ ____
ROOT
ATOM      1  N   UNL     1      31.725 -23.545 -16.596  0.00  0.00    -0.309 N 
ATOM      2  N   UNL     1      33.754 -23.334 -15.543  0.00  0.00    -0.321 NA
ATOM      3  N   UNL     1      35.655 -22.613 -16.823  0.00  0.00    -0.106 N 
ATOM      4  N   UNL     1      36.976 -22.365 -16.619  0.00  0.00    -0.139 NA
ATOM      5  N   UNL     1      35.996 -23.034 -14.676  0.00  0.00    -0.145 NA
ATOM      6  C   UNL     1      33.033 -23.243 -16.636  0.00  0.00    +0.196 C 
ATOM      7  C   UNL     1      33.607 -22.809 -17.957  0.00  0.00    +0.081 C 
ATOM      8  C   UNL     1      34.913 -22.507 -18.002  0.00  0.00    +0.140 C 
ATOM      9  C   UNL     1      35.076 -23.021 -15.620  0.00  0.00    +0.176 C 
ATOM     10  C   UNL     1      37.118 -22.632 -15.325  0.00  0.00    +0.230 C 
ATOM     11  H   UNL     1      31.202 -23.486 -17.427  0.00  0.00    +0.149 HD
ENDROOT
BRANCH   1  12
ATOM     12  C   UNL     1      31.050 -23.954 -15.378  0.00  0.00    +0.071 C 
ATOM     13  C   UNL     1      30.401 -22.742 -14.703  0.00  0.00    +0.020 C 
ATOM     14  C   UNL     1      30.017 -25.042 -15.691  0.00  0.00    +0.020 C 
ATOM     15  C   UNL     1      29.188 -22.215 -15.471  0.00  0.00    +0.002 C 
ATOM     16  C   UNL     1      28.806 -24.508 -16.454  0.00  0.00    +0.002 C 
ATOM     17  C   UNL     1      28.171 -23.318 -15.741  0.00  0.00    +0.000 C 
ENDBRANCH   1  12
BRANCH   8  18
ATOM     18  N   UNL     1      35.569 -22.100 -19.129  0.00  0.00    -0.299 N 
ATOM     19  H   UNL     1      36.314 -22.673 -19.422  0.00  0.00    +0.153 HD
BRANCH  18  20
ATOM     20  C   UNL     1      35.317 -20.974 -19.921  0.00  0.00    +0.049 C 
ATOM     21  C   UNL     1      36.375 -20.172 -20.349  0.00  0.00    +0.016 C 
ATOM     22  C   UNL     1      34.009 -20.654 -20.283  0.00  0.00    +0.016 C 
ATOM     23  C   UNL     1      34.815 -18.730 -21.500  0.00  0.00    +0.122 C 
ATOM     24  C   UNL     1      36.124 -19.050 -21.139  0.00  0.00    +0.021 C 
ATOM     25  C   UNL     1      33.758 -19.532 -21.072  0.00  0.00    +0.021 C 
BRANCH  23  26
ATOM     26  S   UNL     1      34.502 -17.325 -22.488  0.00  0.00    +0.057 S 
ATOM     27  O   UNL     1      33.953 -17.772 -23.761  0.00  0.00    -0.153 OA
ATOM     28  O   UNL     1      33.773 -16.349 -21.690  0.00  0.00    -0.153 OA
BRANCH  26  29
ATOM     29  N   UNL     1      36.089 -16.747 -22.746  0.00  0.00    -0.203 NA
ATOM     30  H   UNL     1      36.191 -16.452 -23.716  0.00  0.00    +0.144 HD
ATOM     31  H   UNL     1      36.759 -17.490 -22.544  0.00  0.00    +0.144 HD
ENDBRANCH  26  29
ENDBRANCH  23  26
ENDBRANCH  18  20
ENDBRANCH   8  18
TORSDOF 5
ENDMDL
MODEL 6
REMARK VINA RESULT:     -10.2      5.285      8.587
REMARK  Name = 23586146
REMARK  5 active torsions:
REMARK  status: ('A' for Active; 'I' for Inactive)
REMARK    1  A    between atoms: N_1  and  C_12
REMARK    2  A    between atoms: C_8  and  N_18
REMARK    3  A    between atoms: N_18  and  C_20
REMARK    4  A    between atoms: C_23  and  S_26
REMARK    5  A    between atoms: S_26  and  N_29
REMARK                            x       y       z     vdW  Elec       q    Type
REMARK                         _______ _______ _______ _____ _____    ______ ____
ROOT
ATOM      1  N   UNL     1      35.440 -19.856 -20.866  0.00  0.00    -0.309 N 
ATOM      2  N   UNL     1      34.048 -21.262 -19.701  0.00  0.00    -0.321 NA
ATOM      3  N   UNL     1      34.945 -22.517 -17.859  0.00  0.00    -0.106 N 
ATOM      4  N   UNL     1      34.506 -23.419 -16.942  0.00  0.00    -0.139 NA
ATOM      5  N   UNL     1      32.797 -22.809 -18.318  0.00  0.00    -0.145 NA
ATOM      6  C   UNL     1      35.240 -20.742 -19.877  0.00  0.00    +0.196 C 
ATOM      7  C   UNL     1      36.419 -21.096 -19.010  0.00  0.00    +0.081 C 
ATOM      8  C   UNL     1      36.225 -21.981 -18.021  0.00  0.00    +0.140 C 
ATOM      9  C   UNL     1      33.882 -22.158 -18.690  0.00  0.00    +0.176 C 
ATOM     10  C   UNL     1      33.223 -23.552 -17.265  0.00  0.00    +0.230 C 
ATOM     11  H   UNL     1      36.343 -19.487 -20.993  0.00  0.00    +0.149 HD
ENDROOT
BRANCH   1  12
ATOM     12  C   UNL     1      34.379 -19.418 -21.755  0.00  0.00    +0.071 C 
ATOM     13  C   UNL     1      33.791 -18.093 -21.259  0.00  0.00    +0.020 C 
ATOM     14  C   UNL     1      34.911 -19.296 -23.186  0.00  0.00    +0.020 C 
ATOM     15  C   UNL     1      34.747 -16.914 -21.446  0.00  0.00    +0.002 C 
ATOM     16  C   UNL     1      35.862 -18.113 -23.366  0.00  0.00    +0.002 C 
ATOM     17  C   UNL     1      35.235 -16.808 -22.886  0.00  0.00    +0.000 C 
ENDBRANCH   1  12
BRANCH   8  18
ATOM     18  N   UNL     1      37.199 -22.395 -17.159  0.00  0.00    -0.299 N 
ATOM     19  H   UNL     1      38.126 -22.257 -17.461  0.00  0.00    +0.153 HD
BRANCH  18  20
ATOM     20  C   UNL     1      37.049 -22.990 -15.902  0.00  0.00    +0.049 C 
ATOM     21  C   UNL     1      36.137 -22.465 -14.985  0.00  0.00    +0.016 C 
ATOM     22  C   UNL     1      37.811 -24.108 -15.563  0.00  0.00    +0.016 C 
ATOM     23  C   UNL     1      36.750 -24.176 -13.394  0.00  0.00    +0.122 C 
ATOM     24  C   UNL     1      35.987 -23.058 -13.732  0.00  0.00    +0.021 C 
ATOM     25  C   UNL     1      37.661 -24.700 -14.310  0.00  0.00    +0.021 C 
BRANCH  23  26
ATOM     26  S   UNL     1      36.562 -24.918 -11.825  0.00  0.00    +0.057 S 
ATOM     27  O   UNL     1      37.005 -26.302 -11.915  0.00  0.00    -0.153 OA
ATOM     28  O   UNL     1      37.144 -24.036 -10.823  0.00  0.00    -0.153 OA
BRANCH  26  29
ATOM     29  N   UNL     1      34.861 -24.895 -11.655  0.00  0.00    -0.203 NA
ATOM     30  H   UNL     1      34.581 -24.050 -11.159  0.00  0.00    +0.144 HD
ATOM     31  H   UNL     1      34.561 -25.715 -11.128  0.00  0.00    +0.144 HD
ENDBRANCH  26  29
ENDBRANCH  23  26
ENDBRANCH  18  20
ENDBRANCH   8  18
TORSDOF 5
ENDMDL
MODEL 7
REMARK VINA RESULT:     -10.1      6.686     10.168
REMARK  Name = 23586146
REMARK  5 active torsions:
REMARK  status: ('A' for Active; 'I' for Inactive)
REMARK    1  A    between atoms: N_1  and  C_12
REMARK    2  A    between atoms: C_8  and  N_18
REMARK    3  A    between atoms: N_18  and  C_20
REMARK    4  A    between atoms: C_23  and  S_26
REMARK    5  A    between atoms: S_26  and  N_29
REMARK                            x       y       z     vdW  Elec       q    Type
REMARK                         _______ _______ _______ _____ _____    ______ ____
ROOT
ATOM      1  N   UNL     1      34.896 -17.149 -22.292  0.00  0.00    -0.309 N 
ATOM      2  N   UNL     1      34.347 -16.457 -24.411  0.00  0.00    -0.321 NA
ATOM      3  N   UNL     1      32.956 -14.516 -24.673  0.00  0.00    -0.106 N 
ATOM      4  N   UNL     1      32.413 -13.791 -25.687  0.00  0.00    -0.139 NA
ATOM      5  N   UNL     1      33.625 -15.525 -26.528  0.00  0.00    -0.145 NA
ATOM      6  C   UNL     1      34.265 -16.293 -23.112  0.00  0.00    +0.196 C 
ATOM      7  C   UNL     1      33.482 -15.173 -22.480  0.00  0.00    +0.081 C 
ATOM      8  C   UNL     1      32.850 -14.315 -23.295  0.00  0.00    +0.140 C 
ATOM      9  C   UNL     1      33.694 -15.572 -25.212  0.00  0.00    +0.176 C 
ATOM     10  C   UNL     1      32.846 -14.439 -26.764  0.00  0.00    +0.230 C 
ATOM     11  H   UNL     1      34.811 -17.021 -21.321  0.00  0.00    +0.149 HD
ENDROOT
BRANCH   1  12
ATOM     12  C   UNL     1      35.699 -18.256 -22.779  0.00  0.00    +0.071 C 
ATOM     13  C   UNL     1      36.884 -18.500 -21.840  0.00  0.00    +0.020 C 
ATOM     14  C   UNL     1      34.831 -19.509 -22.926  0.00  0.00    +0.020 C 
ATOM     15  C   UNL     1      36.461 -19.097 -20.497  0.00  0.00    +0.002 C 
ATOM     16  C   UNL     1      34.416 -20.104 -21.580  0.00  0.00    +0.002 C 
ATOM     17  C   UNL     1      35.622 -20.357 -20.680  0.00  0.00    +0.000 C 
ENDBRANCH   1  12
BRANCH   8  18
ATOM     18  N   UNL     1      32.104 -13.255 -22.864  0.00  0.00    -0.299 N 
ATOM     19  H   UNL     1      31.235 -13.478 -22.460  0.00  0.00    +0.153 HD
BRANCH  18  20
ATOM     20  C   UNL     1      32.419 -11.893 -22.922  0.00  0.00    +0.049 C 
ATOM     21  C   UNL     1      33.501 -11.459 -23.690  0.00  0.00    +0.016 C 
ATOM     22  C   UNL     1      31.653 -10.969 -22.213  0.00  0.00    +0.016 C 
ATOM     23  C   UNL     1      33.046  -9.177 -23.038  0.00  0.00    +0.122 C 
ATOM     24  C   UNL     1      33.814 -10.101 -23.748  0.00  0.00    +0.021 C 
ATOM     25  C   UNL     1      31.966  -9.611 -22.271  0.00  0.00    +0.021 C 
BRANCH  23  26
ATOM     26  S   UNL     1      33.439  -7.478 -23.112  0.00  0.00    +0.057 S 
ATOM     27  O   UNL     1      32.949  -6.947 -24.376  0.00  0.00    -0.153 OA
ATOM     28  O   UNL     1      33.035  -6.854 -21.859  0.00  0.00    -0.153 OA
BRANCH  26  29
ATOM     29  N   UNL     1      35.147  -7.540 -23.167  0.00  0.00    -0.203 NA
ATOM     30  H   UNL     1      35.483  -6.973 -23.943  0.00  0.00    +0.144 HD
ATOM     31  H   UNL     1      35.448  -8.506 -23.296  0.00  0.00    +0.144 HD
ENDBRANCH  26  29
ENDBRANCH  23  26
ENDBRANCH  18  20
ENDBRANCH   8  18
TORSDOF 5
ENDMDL
MODEL 8
REMARK VINA RESULT:      -9.2      4.438      8.381
REMARK  Name = 23586146
REMARK  5 active torsions:
REMARK  status: ('A' for Active; 'I' for Inactive)
REMARK    1  A    between atoms: N_1  and  C_12
REMARK    2  A    between atoms: C_8  and  N_18
REMARK    3  A    between atoms: N_18  and  C_20
REMARK    4  A    between atoms: C_23  and  S_26
REMARK    5  A    between atoms: S_26  and  N_29
REMARK                            x       y       z     vdW  Elec       q    Type
REMARK                         _______ _______ _______ _____ _____    ______ ____
ROOT
ATOM      1  N   UNL     1      34.317 -18.561 -21.734  0.00  0.00    -0.309 N 
ATOM      2  N   UNL     1      35.815 -19.579 -20.323  0.00  0.00    -0.321 NA
ATOM      3  N   UNL     1      35.095 -21.479 -19.043  0.00  0.00    -0.106 N 
ATOM      4  N   UNL     1      35.620 -22.343 -18.133  0.00  0.00    -0.139 NA
ATOM      5  N   UNL     1      37.194 -20.826 -18.769  0.00  0.00    -0.145 NA
ATOM      6  C   UNL     1      34.610 -19.518 -20.838  0.00  0.00    +0.196 C 
ATOM      7  C   UNL     1      33.516 -20.483 -20.468  0.00  0.00    +0.081 C 
ATOM      8  C   UNL     1      33.803 -21.440 -19.573  0.00  0.00    +0.140 C 
ATOM      9  C   UNL     1      36.077 -20.560 -19.418  0.00  0.00    +0.176 C 
ATOM     10  C   UNL     1      36.868 -21.904 -18.012  0.00  0.00    +0.230 C 
ATOM     11  H   UNL     1      33.405 -18.520 -22.098  0.00  0.00    +0.149 HD
ENDROOT
BRANCH   1  12
ATOM     12  C   UNL     1      35.291 -17.586 -22.188  0.00  0.00    +0.071 C 
ATOM     13  C   UNL     1      35.573 -17.779 -23.682  0.00  0.00    +0.020 C 
ATOM     14  C   UNL     1      34.793 -16.168 -21.890  0.00  0.00    +0.020 C 
ATOM     15  C   UNL     1      34.398 -17.358 -24.565  0.00  0.00    +0.002 C 
ATOM     16  C   UNL     1      33.621 -15.752 -22.779  0.00  0.00    +0.002 C 
ATOM     17  C   UNL     1      33.945 -15.935 -24.259  0.00  0.00    +0.000 C 
ENDBRANCH   1  12
BRANCH   8  18
ATOM     18  N   UNL     1      32.912 -22.381 -19.143  0.00  0.00    -0.299 N 
ATOM     19  H   UNL     1      32.435 -22.874 -19.848  0.00  0.00    +0.153 HD
BRANCH  18  20
ATOM     20  C   UNL     1      32.592 -22.736 -17.828  0.00  0.00    +0.049 C 
ATOM     21  C   UNL     1      33.541 -23.369 -17.024  0.00  0.00    +0.016 C 
ATOM     22  C   UNL     1      31.324 -22.457 -17.319  0.00  0.00    +0.016 C 
ATOM     23  C   UNL     1      31.953 -23.442 -15.205  0.00  0.00    +0.122 C 
ATOM     24  C   UNL     1      33.222 -23.721 -15.713  0.00  0.00    +0.021 C 
ATOM     25  C   UNL     1      31.004 -22.810 -16.008  0.00  0.00    +0.021 C 
BRANCH  23  26
ATOM     26  S   UNL     1      31.554 -23.884 -13.565  0.00  0.00    +0.057 S 
ATOM     27  O   UNL     1      31.817 -22.740 -12.704  0.00  0.00    -0.153 OA
ATOM     28  O   UNL     1      30.237 -24.506 -13.559  0.00  0.00    -0.153 OA
BRANCH  26  29
ATOM     29  N   UNL     1      32.729 -25.087 -13.256  0.00  0.00    -0.203 NA
ATOM     30  H   UNL     1      32.416 -25.976 -13.643  0.00  0.00    +0.144 HD
ATOM     31  H   UNL     1      32.861 -25.182 -12.249  0.00  0.00    +0.144 HD
ENDBRANCH  26  29
ENDBRANCH  23  26
ENDBRANCH  18  20
ENDBRANCH   8  18
TORSDOF 5
ENDMDL
MODEL 9
REMARK VINA RESULT:      -9.0      7.655     12.975
REMARK  Name = 23586146
REMARK  5 active torsions:
REMARK  status: ('A' for Active; 'I' for Inactive)
REMARK    1  A    between atoms: N_1  and  C_12
REMARK    2  A    between atoms: C_8  and  N_18
REMARK    3  A    between atoms: N_18  and  C_20
REMARK    4  A    between atoms: C_23  and  S_26
REMARK    5  A    between atoms: S_26  and  N_29
REMARK                            x       y       z     vdW  Elec       q    Type
REMARK                         _______ _______ _______ _____ _____    ______ ____
ROOT
ATOM      1  N   UNL     1      32.411  -8.409 -21.721  0.00  0.00    -0.309 N 
ATOM      2  N   UNL     1      33.713  -9.087 -23.486  0.00  0.00    -0.321 NA
ATOM      3  N   UNL     1      33.560 -11.366 -24.231  0.00  0.00    -0.106 N 
ATOM      4  N   UNL     1      34.116 -12.157 -25.188  0.00  0.00    -0.139 NA
ATOM      5  N   UNL     1      34.974 -10.051 -25.317  0.00  0.00    -0.145 NA
ATOM      6  C   UNL     1      32.815  -9.367 -22.572  0.00  0.00    +0.196 C 
ATOM      7  C   UNL     1      32.202 -10.734 -22.422  0.00  0.00    +0.081 C 
ATOM      8  C   UNL     1      32.603 -11.694 -23.268  0.00  0.00    +0.140 C 
ATOM      9  C   UNL     1      34.100 -10.082 -24.330  0.00  0.00    +0.176 C 
ATOM     10  C   UNL     1      34.947 -11.319 -25.800  0.00  0.00    +0.230 C 
ATOM     11  H   UNL     1      31.749  -8.640 -21.032  0.00  0.00    +0.149 HD
ENDROOT
BRANCH   1  12
ATOM     12  C   UNL     1      32.910  -7.048 -21.777  0.00  0.00    +0.071 C 
ATOM     13  C   UNL     1      32.719  -6.474 -23.185  0.00  0.00    +0.020 C 
ATOM     14  C   UNL     1      32.209  -6.188 -20.721  0.00  0.00    +0.020 C 
ATOM     15  C   UNL     1      31.253  -6.194 -23.517  0.00  0.00    +0.002 C 
ATOM     16  C   UNL     1      30.745  -5.908 -21.061  0.00  0.00    +0.002 C 
ATOM     17  C   UNL     1      30.595  -5.316 -22.459  0.00  0.00    +0.000 C 
ENDBRANCH   1  12
BRANCH   8  18
ATOM     18  N   UNL     1      32.136 -12.977 -23.251  0.00  0.00    -0.299 N 
ATOM     19  H   UNL     1      31.198 -13.096 -23.526  0.00  0.00    +0.153 HD
BRANCH  18  20
ATOM     20  C   UNL     1      32.819 -14.145 -22.892  0.00  0.00    +0.049 C 
ATOM     21  C   UNL     1      32.906 -14.518 -21.550  0.00  0.00    +0.016 C 
ATOM     22  C   UNL     1      33.414 -14.935 -23.875  0.00  0.00    +0.016 C 
ATOM     23  C   UNL     1      34.182 -16.472 -22.177  0.00  0.00    +0.122 C 
ATOM     24  C   UNL     1      33.587 -15.682 -21.193  0.00  0.00    +0.021 C 
ATOM     25  C   UNL     1      34.095 -16.098 -23.518  0.00  0.00    +0.021 C 
BRANCH  23  26
ATOM     26  S   UNL     1      35.034 -17.928 -21.729  0.00  0.00    +0.057 S 
ATOM     27  O   UNL     1      35.679 -17.705 -20.442  0.00  0.00    -0.153 OA
ATOM     28  O   UNL     1      34.137 -19.062 -21.902  0.00  0.00    -0.153 OA
BRANCH  26  29
ATOM     29  N   UNL     1      36.236 -17.989 -22.943  0.00  0.00    -0.203 NA
ATOM     30  H   UNL     1      36.038 -17.287 -23.654  0.00  0.00    +0.144 HD
ATOM     31  H   UNL     1      36.240 -18.915 -23.371  0.00  0.00    +0.144 HD
ENDBRANCH  26  29
ENDBRANCH  23  26
ENDBRANCH  18  20
ENDBRANCH   8  18
TORSDOF 5
ENDMDL
