MODEL 1
REMARK VINA RESULT:      -8.5      0.000      0.000
REMARK  Name = 1722
REMARK  9 active torsions:
REMARK  status: ('A' for Active; 'I' for Inactive)
REMARK    1  A    between atoms: C_4  and  C_14
REMARK    2  A    between atoms: C_7  and  C_13
REMARK    3  A    between atoms: C_14  and  O_15
REMARK    4  A    between atoms: O_15  and  P_16
REMARK    5  A    between atoms: P_16  and  O_18
REMARK    6  A    between atoms: P_16  and  O_20
REMARK    7  A    between atoms: O_20  and  P_21
REMARK    8  A    between atoms: P_21  and  O_23
REMARK    9  A    between atoms: P_21  and  O_25
REMARK                            x       y       z     vdW  Elec       q    Type
REMARK                         _______ _______ _______ _____ _____    ______ ____
ROOT
ATOM      1  N   UNL     1      30.871 -22.952 -14.498  0.00  0.00    -0.333 NA
ATOM      2  N   UNL     1      30.871 -22.958 -16.907  0.00  0.00    -0.179 NA
ATOM      3  N   UNL     1      32.879 -23.346 -13.301  0.00  0.00    -0.332 N 
ATOM      4  C   UNL     1      32.910 -23.357 -15.700  0.00  0.00    +0.072 C 
ATOM      5  C   UNL     1      32.193 -23.213 -14.533  0.00  0.00    +0.188 C 
ATOM      6  C   UNL     1      32.195 -23.218 -16.869  0.00  0.00    +0.112 C 
ATOM      7  C   UNL     1      30.281 -22.838 -15.703  0.00  0.00    +0.161 C 
ATOM      8  H   UNL     1      32.390 -23.247 -12.452  0.00  0.00    +0.145 HD
ATOM      9  H   UNL     1      33.845 -23.537 -13.293  0.00  0.00    +0.145 HD
ENDROOT
BRANCH   7  13
ATOM     10  F   UNL     1      28.355 -22.071 -16.897  0.00  0.00    -0.157 F 
ATOM     11  F   UNL     1      28.045 -23.643 -15.435  0.00  0.00    -0.157 F 
ATOM     12  F   UNL     1      28.465 -21.615 -14.773  0.00  0.00    -0.157 F 
ATOM     13  C   UNL     1      28.818 -22.550 -15.705  0.00  0.00    +0.489 C 
ENDBRANCH   7  13
BRANCH   4  14
ATOM     14  C   UNL     1      34.373 -23.645 -15.735  0.00  0.00    +0.186 C 
BRANCH  14  15
ATOM     15  O   UNL     1      34.714 -24.748 -14.914  0.00  0.00    -0.268 OA
BRANCH  15  16
ATOM     16  P   UNL     1      36.196 -25.392 -14.997  0.00  0.00    +0.484 P 
ATOM     17  O   UNL     1      36.272 -26.708 -15.716  0.00  0.00    -0.227 OA
BRANCH  16  18
ATOM     18  O   UNL     1      37.107 -24.223 -15.649  0.00  0.00    -0.302 OA
ATOM     19  H   UNL     1      36.620 -23.385 -15.628  0.00  0.00    +0.222 HD
ENDBRANCH  16  18
BRANCH  16  20
ATOM     20  O   UNL     1      36.703 -25.444 -13.463  0.00  0.00    -0.186 OA
BRANCH  20  21
ATOM     21  P   UNL     1      36.340 -24.510 -12.195  0.00  0.00    +0.481 P 
ATOM     22  O   UNL     1      37.367 -24.515 -11.100  0.00  0.00    -0.227 OA
BRANCH  21  23
ATOM     23  O   UNL     1      34.871 -25.031 -11.765  0.00  0.00    -0.302 OA
ATOM     24  H   UNL     1      34.941 -25.927 -11.400  0.00  0.00    +0.222 HD
ENDBRANCH  21  23
BRANCH  21  25
ATOM     25  O   UNL     1      36.050 -23.067 -12.863  0.00  0.00    -0.302 OA
ATOM     26  H   UNL     1      36.628 -22.946 -13.632  0.00  0.00    +0.222 HD
ENDBRANCH  21  25
ENDBRANCH  20  21
ENDBRANCH  16  20
ENDBRANCH  15  16
ENDBRANCH  14  15
ENDBRANCH   4  14
TORSDOF 9
ENDMDL
MODEL 2
REMARK VINA RESULT:      -8.5      4.061      5.371
REMARK  Name = 1722
REMARK  9 active torsions:
REMARK  status: ('A' for Active; 'I' for Inactive)
REMARK    1  A    between atoms: C_4  and  C_14
REMARK    2  A    between atoms: C_7  and  C_13
REMARK    3  A    between atoms: C_14  and  O_15
REMARK    4  A    between atoms: O_15  and  P_16
REMARK    5  A    between atoms: P_16  and  O_18
REMARK    6  A    between atoms: P_16  and  O_20
REMARK    7  A    between atoms: O_20  and  P_21
REMARK    8  A    between atoms: P_21  and  O_23
REMARK    9  A    between atoms: P_21  and  O_25
REMARK                            x       y       z     vdW  Elec       q    Type
REMARK                         _______ _______ _______ _____ _____    ______ ____
ROOT
ATOM      1  N   UNL     1      34.857 -22.807 -17.336  0.00  0.00    -0.333 NA
ATOM      2  N   UNL     1      36.959 -21.635 -17.437  0.00  0.00    -0.179 NA
ATOM      3  N   UNL     1      34.213 -23.938 -15.354  0.00  0.00    -0.332 N 
ATOM      4  C   UNL     1      36.313 -22.779 -15.426  0.00  0.00    +0.072 C 
ATOM      5  C   UNL     1      35.151 -23.152 -16.065  0.00  0.00    +0.188 C 
ATOM      6  C   UNL     1      37.190 -22.014 -16.163  0.00  0.00    +0.112 C 
ATOM      7  C   UNL     1      35.790 -22.059 -17.954  0.00  0.00    +0.161 C 
ATOM      8  H   UNL     1      33.375 -24.218 -15.787  0.00  0.00    +0.145 HD
ATOM      9  H   UNL     1      34.400 -24.207 -14.424  0.00  0.00    +0.145 HD
ENDROOT
BRANCH   7  13
ATOM     10  F   UNL     1      35.164 -22.707 -20.170  0.00  0.00    -0.157 F 
ATOM     11  F   UNL     1      34.466 -20.774 -19.475  0.00  0.00    -0.157 F 
ATOM     12  F   UNL     1      36.565 -21.056 -19.965  0.00  0.00    -0.157 F 
ATOM     13  C   UNL     1      35.499 -21.659 -19.361  0.00  0.00    +0.489 C 
ENDBRANCH   7  13
BRANCH   4  14
ATOM     14  C   UNL     1      36.635 -23.161 -14.021  0.00  0.00    +0.186 C 
BRANCH  14  15
ATOM     15  O   UNL     1      36.742 -24.566 -13.866  0.00  0.00    -0.268 OA
BRANCH  15  16
ATOM     16  P   UNL     1      37.540 -25.183 -12.601  0.00  0.00    +0.484 P 
ATOM     17  O   UNL     1      37.477 -24.355 -11.351  0.00  0.00    -0.227 OA
BRANCH  16  18
ATOM     18  O   UNL     1      36.944 -26.679 -12.440  0.00  0.00    -0.302 OA
ATOM     19  H   UNL     1      36.245 -26.821 -13.098  0.00  0.00    +0.222 HD
ENDBRANCH  16  18
BRANCH  16  20
ATOM     20  O   UNL     1      39.038 -25.440 -13.153  0.00  0.00    -0.186 OA
BRANCH  20  21
ATOM     21  P   UNL     1      39.576 -25.795 -14.635  0.00  0.00    +0.481 P 
ATOM     22  O   UNL     1      40.880 -26.537 -14.666  0.00  0.00    -0.227 OA
BRANCH  21  23
ATOM     23  O   UNL     1      39.582 -24.359 -15.377  0.00  0.00    -0.302 OA
ATOM     24  H   UNL     1      40.154 -24.403 -16.160  0.00  0.00    +0.222 HD
ENDBRANCH  21  23
BRANCH  21  25
ATOM     25  O   UNL     1      38.327 -26.566 -15.312  0.00  0.00    -0.302 OA
ATOM     26  H   UNL     1      38.275 -27.468 -14.959  0.00  0.00    +0.222 HD
ENDBRANCH  21  25
ENDBRANCH  20  21
ENDBRANCH  16  20
ENDBRANCH  15  16
ENDBRANCH  14  15
ENDBRANCH   4  14
TORSDOF 9
ENDMDL
MODEL 3
REMARK VINA RESULT:      -8.4      3.559      4.849
REMARK  Name = 1722
REMARK  9 active torsions:
REMARK  status: ('A' for Active; 'I' for Inactive)
REMARK    1  A    between atoms: C_4  and  C_14
REMARK    2  A    between atoms: C_7  and  C_13
REMARK    3  A    between atoms: C_14  and  O_15
REMARK    4  A    between atoms: O_15  and  P_16
REMARK    5  A    between atoms: P_16  and  O_18
REMARK    6  A    between atoms: P_16  and  O_20
REMARK    7  A    between atoms: O_20  and  P_21
REMARK    8  A    between atoms: P_21  and  O_23
REMARK    9  A    between atoms: P_21  and  O_25
REMARK                            x       y       z     vdW  Elec       q    Type
REMARK                         _______ _______ _______ _____ _____    ______ ____
ROOT
ATOM      1  N   UNL     1      35.889 -22.406 -17.314  0.00  0.00    -0.333 NA
ATOM      2  N   UNL     1      33.659 -23.161 -16.806  0.00  0.00    -0.179 NA
ATOM      3  N   UNL     1      37.594 -22.523 -15.670  0.00  0.00    -0.332 N 
ATOM      4  C   UNL     1      35.382 -23.282 -15.136  0.00  0.00    +0.072 C 
ATOM      5  C   UNL     1      36.250 -22.741 -16.058  0.00  0.00    +0.188 C 
ATOM      6  C   UNL     1      34.086 -23.474 -15.565  0.00  0.00    +0.112 C 
ATOM      7  C   UNL     1      34.599 -22.640 -17.617  0.00  0.00    +0.161 C 
ATOM      8  H   UNL     1      38.235 -22.137 -16.310  0.00  0.00    +0.145 HD
ATOM      9  H   UNL     1      37.888 -22.756 -14.759  0.00  0.00    +0.145 HD
ENDROOT
BRANCH   7  13
ATOM     10  F   UNL     1      33.025 -21.526 -19.034  0.00  0.00    -0.157 F 
ATOM     11  F   UNL     1      35.091 -21.564 -19.695  0.00  0.00    -0.157 F 
ATOM     12  F   UNL     1      33.897 -23.379 -19.765  0.00  0.00    -0.157 F 
ATOM     13  C   UNL     1      34.162 -22.282 -18.997  0.00  0.00    +0.489 C 
ENDBRANCH   7  13
BRANCH   4  14
ATOM     14  C   UNL     1      35.784 -23.652 -13.748  0.00  0.00    +0.186 C 
BRANCH  14  15
ATOM     15  O   UNL     1      36.695 -24.737 -13.733  0.00  0.00    -0.268 OA
BRANCH  15  16
ATOM     16  P   UNL     1      37.556 -25.053 -12.400  0.00  0.00    +0.484 P 
ATOM     17  O   UNL     1      37.382 -24.060 -11.287  0.00  0.00    -0.227 OA
BRANCH  16  18
ATOM     18  O   UNL     1      37.151 -26.570 -12.009  0.00  0.00    -0.302 OA
ATOM     19  H   UNL     1      37.017 -26.632 -11.050  0.00  0.00    +0.222 HD
ENDBRANCH  16  18
BRANCH  16  20
ATOM     20  O   UNL     1      39.078 -25.200 -12.925  0.00  0.00    -0.186 OA
BRANCH  20  21
ATOM     21  P   UNL     1      39.670 -25.806 -14.301  0.00  0.00    +0.481 P 
ATOM     22  O   UNL     1      41.071 -26.335 -14.200  0.00  0.00    -0.227 OA
BRANCH  21  23
ATOM     23  O   UNL     1      39.465 -24.596 -15.353  0.00  0.00    -0.302 OA
ATOM     24  H   UNL     1      38.838 -23.953 -14.986  0.00  0.00    +0.222 HD
ENDBRANCH  21  23
BRANCH  21  25
ATOM     25  O   UNL     1      38.554 -26.888 -14.745  0.00  0.00    -0.302 OA
ATOM     26  H   UNL     1      38.146 -26.607 -15.579  0.00  0.00    +0.222 HD
ENDBRANCH  21  25
ENDBRANCH  20  21
ENDBRANCH  16  20
ENDBRANCH  15  16
ENDBRANCH  14  15
ENDBRANCH   4  14
TORSDOF 9
ENDMDL
MODEL 4
REMARK VINA RESULT:      -8.4      2.291      3.292
REMARK  Name = 1722
REMARK  9 active torsions:
REMARK  status: ('A' for Active; 'I' for Inactive)
REMARK    1  A    between atoms: C_4  and  C_14
REMARK    2  A    between atoms: C_7  and  C_13
REMARK    3  A    between atoms: C_14  and  O_15
REMARK    4  A    between atoms: O_15  and  P_16
REMARK    5  A    between atoms: P_16  and  O_18
REMARK    6  A    between atoms: P_16  and  O_20
REMARK    7  A    between atoms: O_20  and  P_21
REMARK    8  A    between atoms: P_21  and  O_23
REMARK    9  A    between atoms: P_21  and  O_25
REMARK                            x       y       z     vdW  Elec       q    Type
REMARK                         _______ _______ _______ _____ _____    ______ ____
ROOT
ATOM      1  N   UNL     1      32.865 -23.525 -14.248  0.00  0.00    -0.333 NA
ATOM      2  N   UNL     1      33.262 -23.314 -16.615  0.00  0.00    -0.179 NA
ATOM      3  N   UNL     1      34.686 -23.744 -12.745  0.00  0.00    -0.332 N 
ATOM      4  C   UNL     1      35.112 -23.535 -15.097  0.00  0.00    +0.072 C 
ATOM      5  C   UNL     1      34.200 -23.597 -14.067  0.00  0.00    +0.188 C 
ATOM      6  C   UNL     1      34.586 -23.392 -16.363  0.00  0.00    +0.112 C 
ATOM      7  C   UNL     1      32.471 -23.385 -15.528  0.00  0.00    +0.161 C 
ATOM      8  H   UNL     1      34.056 -23.790 -11.991  0.00  0.00    +0.145 HD
ATOM      9  H   UNL     1      35.656 -23.800 -12.581  0.00  0.00    +0.145 HD
ENDROOT
BRANCH   7  13
ATOM     10  F   UNL     1      30.292 -22.873 -14.682  0.00  0.00    -0.157 F 
ATOM     11  F   UNL     1      30.659 -22.450 -16.778  0.00  0.00    -0.157 F 
ATOM     12  F   UNL     1      30.457 -24.508 -16.107  0.00  0.00    -0.157 F 
ATOM     13  C   UNL     1      31.001 -23.303 -15.767  0.00  0.00    +0.489 C 
ENDBRANCH   7  13
BRANCH   4  14
ATOM     14  C   UNL     1      36.587 -23.615 -14.894  0.00  0.00    +0.186 C 
BRANCH  14  15
ATOM     15  O   UNL     1      37.119 -24.844 -15.358  0.00  0.00    -0.268 OA
BRANCH  15  16
ATOM     16  P   UNL     1      37.176 -26.125 -14.371  0.00  0.00    +0.484 P 
ATOM     17  O   UNL     1      36.813 -25.837 -12.943  0.00  0.00    -0.227 OA
BRANCH  16  18
ATOM     18  O   UNL     1      36.233 -27.228 -15.089  0.00  0.00    -0.302 OA
ATOM     19  H   UNL     1      36.555 -28.117 -14.873  0.00  0.00    +0.222 HD
ENDBRANCH  16  18
BRANCH  16  20
ATOM     20  O   UNL     1      38.664 -26.725 -14.570  0.00  0.00    -0.186 OA
BRANCH  20  21
ATOM     21  P   UNL     1      40.105 -25.994 -14.607  0.00  0.00    +0.481 P 
ATOM     22  O   UNL     1      41.237 -26.815 -14.064  0.00  0.00    -0.227 OA
BRANCH  21  23
ATOM     23  O   UNL     1      39.831 -24.601 -13.835  0.00  0.00    -0.302 OA
ATOM     24  H   UNL     1      40.665 -24.265 -13.471  0.00  0.00    +0.222 HD
ENDBRANCH  21  23
BRANCH  21  25
ATOM     25  O   UNL     1      40.257 -25.546 -16.153  0.00  0.00    -0.302 OA
ATOM     26  H   UNL     1      40.645 -24.658 -16.195  0.00  0.00    +0.222 HD
ENDBRANCH  21  25
ENDBRANCH  20  21
ENDBRANCH  16  20
ENDBRANCH  15  16
ENDBRANCH  14  15
ENDBRANCH   4  14
TORSDOF 9
ENDMDL
MODEL 5
REMARK VINA RESULT:      -8.1      3.608      4.407
REMARK  Name = 1722
REMARK  9 active torsions:
REMARK  status: ('A' for Active; 'I' for Inactive)
REMARK    1  A    between atoms: C_4  and  C_14
REMARK    2  A    between atoms: C_7  and  C_13
REMARK    3  A    between atoms: C_14  and  O_15
REMARK    4  A    between atoms: O_15  and  P_16
REMARK    5  A    between atoms: P_16  and  O_18
REMARK    6  A    between atoms: P_16  and  O_20
REMARK    7  A    between atoms: O_20  and  P_21
REMARK    8  A    between atoms: P_21  and  O_23
REMARK    9  A    between atoms: P_21  and  O_25
REMARK                            x       y       z     vdW  Elec       q    Type
REMARK                         _______ _______ _______ _____ _____    ______ ____
ROOT
ATOM      1  N   UNL     1      34.431 -23.058 -17.061  0.00  0.00    -0.333 NA
ATOM      2  N   UNL     1      36.367 -21.918 -17.931  0.00  0.00    -0.179 NA
ATOM      3  N   UNL     1      34.487 -24.026 -14.897  0.00  0.00    -0.332 N 
ATOM      4  C   UNL     1      36.429 -22.897 -15.738  0.00  0.00    +0.072 C 
ATOM      5  C   UNL     1      35.129 -23.306 -15.933  0.00  0.00    +0.188 C 
ATOM      6  C   UNL     1      37.007 -22.200 -16.777  0.00  0.00    +0.112 C 
ATOM      7  C   UNL     1      35.100 -22.369 -18.004  0.00  0.00    +0.161 C 
ATOM      8  H   UNL     1      33.558 -24.330 -15.011  0.00  0.00    +0.145 HD
ATOM      9  H   UNL     1      34.971 -24.224 -14.062  0.00  0.00    +0.145 HD
ENDROOT
BRANCH   7  13
ATOM     10  F   UNL     1      33.898 -23.193 -19.902  0.00  0.00    -0.157 F 
ATOM     11  F   UNL     1      33.262 -21.287 -19.085  0.00  0.00    -0.157 F 
ATOM     12  F   UNL     1      35.131 -21.425 -20.186  0.00  0.00    -0.157 F 
ATOM     13  C   UNL     1      34.361 -22.077 -19.266  0.00  0.00    +0.489 C 
ENDBRANCH   7  13
BRANCH   4  14
ATOM     14  C   UNL     1      37.198 -23.172 -14.490  0.00  0.00    +0.186 C 
BRANCH  14  15
ATOM     15  O   UNL     1      37.129 -24.538 -14.117  0.00  0.00    -0.268 OA
BRANCH  15  16
ATOM     16  P   UNL     1      37.980 -25.076 -12.851  0.00  0.00    +0.484 P 
ATOM     17  O   UNL     1      38.781 -26.318 -13.113  0.00  0.00    -0.227 OA
BRANCH  16  18
ATOM     18  O   UNL     1      38.862 -23.800 -12.387  0.00  0.00    -0.302 OA
ATOM     19  H   UNL     1      39.781 -23.923 -12.669  0.00  0.00    +0.222 HD
ENDBRANCH  16  18
BRANCH  16  20
ATOM     20  O   UNL     1      36.893 -25.225 -11.664  0.00  0.00    -0.186 OA
BRANCH  20  21
ATOM     21  P   UNL     1      35.985 -24.119 -10.913  0.00  0.00    +0.481 P 
ATOM     22  O   UNL     1      35.350 -24.592  -9.638  0.00  0.00    -0.227 OA
BRANCH  21  23
ATOM     23  O   UNL     1      34.952 -23.649 -12.064  0.00  0.00    -0.302 OA
ATOM     24  H   UNL     1      34.252 -23.108 -11.667  0.00  0.00    +0.222 HD
ENDBRANCH  21  23
BRANCH  21  25
ATOM     25  O   UNL     1      36.983 -22.857 -10.760  0.00  0.00    -0.302 OA
ATOM     26  H   UNL     1      37.626 -23.038 -10.057  0.00  0.00    +0.222 HD
ENDBRANCH  21  25
ENDBRANCH  20  21
ENDBRANCH  16  20
ENDBRANCH  15  16
ENDBRANCH  14  15
ENDBRANCH   4  14
TORSDOF 9
ENDMDL
MODEL 6
REMARK VINA RESULT:      -8.1      4.901      6.143
REMARK  Name = 1722
REMARK  9 active torsions:
REMARK  status: ('A' for Active; 'I' for Inactive)
REMARK    1  A    between atoms: C_4  and  C_14
REMARK    2  A    between atoms: C_7  and  C_13
REMARK    3  A    between atoms: C_14  and  O_15
REMARK    4  A    between atoms: O_15  and  P_16
REMARK    5  A    between atoms: P_16  and  O_18
REMARK    6  A    between atoms: P_16  and  O_20
REMARK    7  A    between atoms: O_20  and  P_21
REMARK    8  A    between atoms: P_21  and  O_23
REMARK    9  A    between atoms: P_21  and  O_25
REMARK                            x       y       z     vdW  Elec       q    Type
REMARK                         _______ _______ _______ _____ _____    ______ ____
ROOT
ATOM      1  N   UNL     1      33.956 -20.580 -20.363  0.00  0.00    -0.333 NA
ATOM      2  N   UNL     1      36.338 -20.353 -20.079  0.00  0.00    -0.179 NA
ATOM      3  N   UNL     1      32.715 -22.017 -18.943  0.00  0.00    -0.332 N 
ATOM      4  C   UNL     1      35.085 -21.811 -18.637  0.00  0.00    +0.072 C 
ATOM      5  C   UNL     1      33.952 -21.449 -19.331  0.00  0.00    +0.188 C 
ATOM      6  C   UNL     1      36.262 -21.229 -19.055  0.00  0.00    +0.112 C 
ATOM      7  C   UNL     1      35.164 -20.077 -20.679  0.00  0.00    +0.161 C 
ATOM      8  H   UNL     1      31.890 -21.775 -19.423  0.00  0.00    +0.145 HD
ATOM      9  H   UNL     1      32.679 -22.655 -18.194  0.00  0.00    +0.145 HD
ENDROOT
BRANCH   7  13
ATOM     10  F   UNL     1      36.394 -18.442 -21.919  0.00  0.00    -0.157 F 
ATOM     11  F   UNL     1      35.022 -19.698 -23.035  0.00  0.00    -0.157 F 
ATOM     12  F   UNL     1      34.248 -18.147 -21.722  0.00  0.00    -0.157 F 
ATOM     13  C   UNL     1      35.209 -19.113 -21.816  0.00  0.00    +0.489 C 
ENDBRANCH   7  13
BRANCH   4  14
ATOM     14  C   UNL     1      35.077 -22.772 -17.496  0.00  0.00    +0.186 C 
BRANCH  14  15
ATOM     15  O   UNL     1      36.320 -22.794 -16.815  0.00  0.00    -0.268 OA
BRANCH  15  16
ATOM     16  P   UNL     1      36.399 -23.330 -15.291  0.00  0.00    +0.484 P 
ATOM     17  O   UNL     1      37.643 -22.936 -14.548  0.00  0.00    -0.227 OA
BRANCH  16  18
ATOM     18  O   UNL     1      35.024 -22.813 -14.610  0.00  0.00    -0.302 OA
ATOM     19  H   UNL     1      34.322 -22.791 -15.278  0.00  0.00    +0.222 HD
ENDBRANCH  16  18
BRANCH  16  20
ATOM     20  O   UNL     1      36.175 -24.927 -15.410  0.00  0.00    -0.186 OA
BRANCH  20  21
ATOM     21  P   UNL     1      37.142 -26.164 -15.029  0.00  0.00    +0.481 P 
ATOM     22  O   UNL     1      36.999 -26.658 -13.619  0.00  0.00    -0.227 OA
BRANCH  21  23
ATOM     23  O   UNL     1      38.611 -25.617 -15.422  0.00  0.00    -0.302 OA
ATOM     24  H   UNL     1      39.243 -25.866 -14.729  0.00  0.00    +0.222 HD
ENDBRANCH  21  23
BRANCH  21  25
ATOM     25  O   UNL     1      36.824 -27.255 -16.178  0.00  0.00    -0.302 OA
ATOM     26  H   UNL     1      35.883 -27.490 -16.149  0.00  0.00    +0.222 HD
ENDBRANCH  21  25
ENDBRANCH  20  21
ENDBRANCH  16  20
ENDBRANCH  15  16
ENDBRANCH  14  15
ENDBRANCH   4  14
TORSDOF 9
ENDMDL
MODEL 7
REMARK VINA RESULT:      -8.1      2.433      3.302
REMARK  Name = 1722
REMARK  9 active torsions:
REMARK  status: ('A' for Active; 'I' for Inactive)
REMARK    1  A    between atoms: C_4  and  C_14
REMARK    2  A    between atoms: C_7  and  C_13
REMARK    3  A    between atoms: C_14  and  O_15
REMARK    4  A    between atoms: O_15  and  P_16
REMARK    5  A    between atoms: P_16  and  O_18
REMARK    6  A    between atoms: P_16  and  O_20
REMARK    7  A    between atoms: O_20  and  P_21
REMARK    8  A    between atoms: P_21  and  O_23
REMARK    9  A    between atoms: P_21  and  O_25
REMARK                            x       y       z     vdW  Elec       q    Type
REMARK                         _______ _______ _______ _____ _____    ______ ____
ROOT
ATOM      1  N   UNL     1      32.755 -23.555 -15.530  0.00  0.00    -0.333 NA
ATOM      2  N   UNL     1      32.196 -24.495 -13.383  0.00  0.00    -0.179 NA
ATOM      3  N   UNL     1      35.019 -23.155 -16.106  0.00  0.00    -0.332 N 
ATOM      4  C   UNL     1      34.493 -24.093 -13.962  0.00  0.00    +0.072 C 
ATOM      5  C   UNL     1      34.055 -23.613 -15.176  0.00  0.00    +0.188 C 
ATOM      6  C   UNL     1      33.514 -24.526 -13.094  0.00  0.00    +0.112 C 
ATOM      7  C   UNL     1      31.892 -24.006 -14.600  0.00  0.00    +0.161 C 
ATOM      8  H   UNL     1      34.733 -22.807 -16.982  0.00  0.00    +0.145 HD
ATOM      9  H   UNL     1      35.977 -23.184 -15.878  0.00  0.00    +0.145 HD
ENDROOT
BRANCH   7  13
ATOM     10  F   UNL     1      30.178 -24.370 -16.230  0.00  0.00    -0.157 F 
ATOM     11  F   UNL     1      29.659 -24.738 -14.156  0.00  0.00    -0.157 F 
ATOM     12  F   UNL     1      29.923 -22.699 -14.861  0.00  0.00    -0.157 F 
ATOM     13  C   UNL     1      30.444 -23.957 -14.955  0.00  0.00    +0.489 C 
ENDBRANCH   7  13
BRANCH   4  14
ATOM     14  C   UNL     1      35.932 -24.156 -13.574  0.00  0.00    +0.186 C 
BRANCH  14  15
ATOM     15  O   UNL     1      36.437 -25.479 -13.630  0.00  0.00    -0.268 OA
BRANCH  15  16
ATOM     16  P   UNL     1      37.232 -25.987 -14.944  0.00  0.00    +0.484 P 
ATOM     17  O   UNL     1      36.471 -26.950 -15.808  0.00  0.00    -0.227 OA
BRANCH  16  18
ATOM     18  O   UNL     1      37.678 -24.625 -15.697  0.00  0.00    -0.302 OA
ATOM     19  H   UNL     1      37.399 -24.663 -16.625  0.00  0.00    +0.222 HD
ENDBRANCH  16  18
BRANCH  16  20
ATOM     20  O   UNL     1      38.629 -26.568 -14.374  0.00  0.00    -0.186 OA
BRANCH  20  21
ATOM     21  P   UNL     1      40.145 -26.034 -14.537  0.00  0.00    +0.481 P 
ATOM     22  O   UNL     1      41.192 -26.933 -13.948  0.00  0.00    -0.227 OA
BRANCH  21  23
ATOM     23  O   UNL     1      40.080 -24.547 -13.907  0.00  0.00    -0.302 OA
ATOM     24  H   UNL     1      40.897 -24.369 -13.415  0.00  0.00    +0.222 HD
ENDBRANCH  21  23
BRANCH  21  25
ATOM     25  O   UNL     1      40.279 -25.767 -16.126  0.00  0.00    -0.302 OA
ATOM     26  H   UNL     1      39.462 -26.044 -16.570  0.00  0.00    +0.222 HD
ENDBRANCH  21  25
ENDBRANCH  20  21
ENDBRANCH  16  20
ENDBRANCH  15  16
ENDBRANCH  14  15
ENDBRANCH   4  14
TORSDOF 9
ENDMDL
MODEL 8
REMARK VINA RESULT:      -7.9      1.473      1.917
REMARK  Name = 1722
REMARK  9 active torsions:
REMARK  status: ('A' for Active; 'I' for Inactive)
REMARK    1  A    between atoms: C_4  and  C_14
REMARK    2  A    between atoms: C_7  and  C_13
REMARK    3  A    between atoms: C_14  and  O_15
REMARK    4  A    between atoms: O_15  and  P_16
REMARK    5  A    between atoms: P_16  and  O_18
REMARK    6  A    between atoms: P_16  and  O_20
REMARK    7  A    between atoms: O_20  and  P_21
REMARK    8  A    between atoms: P_21  and  O_23
REMARK    9  A    between atoms: P_21  and  O_25
REMARK                            x       y       z     vdW  Elec       q    Type
REMARK                         _______ _______ _______ _____ _____    ______ ____
ROOT
ATOM      1  N   UNL     1      32.181 -24.222 -14.215  0.00  0.00    -0.333 NA
ATOM      2  N   UNL     1      32.146 -23.342 -16.457  0.00  0.00    -0.179 NA
ATOM      3  N   UNL     1      34.245 -24.710 -13.154  0.00  0.00    -0.332 N 
ATOM      4  C   UNL     1      34.241 -23.834 -15.388  0.00  0.00    +0.072 C 
ATOM      5  C   UNL     1      33.528 -24.243 -14.283  0.00  0.00    +0.188 C 
ATOM      6  C   UNL     1      33.495 -23.388 -16.457  0.00  0.00    +0.112 C 
ATOM      7  C   UNL     1      31.563 -23.766 -15.320  0.00  0.00    +0.161 C 
ATOM      8  H   UNL     1      33.760 -25.008 -12.351  0.00  0.00    +0.145 HD
ATOM      9  H   UNL     1      35.229 -24.738 -13.173  0.00  0.00    +0.145 HD
ENDROOT
BRANCH   7  13
ATOM     10  F   UNL     1      29.528 -24.527 -14.318  0.00  0.00    -0.157 F 
ATOM     11  F   UNL     1      29.562 -22.485 -15.047  0.00  0.00    -0.157 F 
ATOM     12  F   UNL     1      29.508 -24.138 -16.458  0.00  0.00    -0.157 F 
ATOM     13  C   UNL     1      30.072 -23.729 -15.283  0.00  0.00    +0.489 C 
ENDBRANCH   7  13
BRANCH   4  14
ATOM     14  C   UNL     1      35.730 -23.858 -15.460  0.00  0.00    +0.186 C 
BRANCH  14  15
ATOM     15  O   UNL     1      36.249 -25.159 -15.244  0.00  0.00    -0.268 OA
BRANCH  15  16
ATOM     16  P   UNL     1      37.626 -25.355 -14.417  0.00  0.00    +0.484 P 
ATOM     17  O   UNL     1      38.333 -26.655 -14.670  0.00  0.00    -0.227 OA
BRANCH  16  18
ATOM     18  O   UNL     1      38.500 -24.040 -14.773  0.00  0.00    -0.302 OA
ATOM     19  H   UNL     1      38.999 -24.196 -15.590  0.00  0.00    +0.222 HD
ENDBRANCH  16  18
BRANCH  16  20
ATOM     20  O   UNL     1      37.210 -25.115 -12.873  0.00  0.00    -0.186 OA
BRANCH  20  21
ATOM     21  P   UNL     1      37.439 -23.847 -11.898  0.00  0.00    +0.481 P 
ATOM     22  O   UNL     1      38.871 -23.425 -11.747  0.00  0.00    -0.227 OA
BRANCH  21  23
ATOM     23  O   UNL     1      36.705 -24.297 -10.530  0.00  0.00    -0.302 OA
ATOM     24  H   UNL     1      36.599 -23.525  -9.952  0.00  0.00    +0.222 HD
ENDBRANCH  21  23
BRANCH  21  25
ATOM     25  O   UNL     1      36.449 -22.723 -12.507  0.00  0.00    -0.302 OA
ATOM     26  H   UNL     1      36.553 -22.690 -13.471  0.00  0.00    +0.222 HD
ENDBRANCH  21  25
ENDBRANCH  20  21
ENDBRANCH  16  20
ENDBRANCH  15  16
ENDBRANCH  14  15
ENDBRANCH   4  14
TORSDOF 9
ENDMDL
MODEL 9
REMARK VINA RESULT:      -7.9      0.997      2.901
REMARK  Name = 1722
REMARK  9 active torsions:
REMARK  status: ('A' for Active; 'I' for Inactive)
REMARK    1  A    between atoms: C_4  and  C_14
REMARK    2  A    between atoms: C_7  and  C_13
REMARK    3  A    between atoms: C_14  and  O_15
REMARK    4  A    between atoms: O_15  and  P_16
REMARK    5  A    between atoms: P_16  and  O_18
REMARK    6  A    between atoms: P_16  and  O_20
REMARK    7  A    between atoms: O_20  and  P_21
REMARK    8  A    between atoms: P_21  and  O_23
REMARK    9  A    between atoms: P_21  and  O_25
REMARK                            x       y       z     vdW  Elec       q    Type
REMARK                         _______ _______ _______ _____ _____    ______ ____
ROOT
ATOM      1  N   UNL     1      31.081 -23.043 -16.795  0.00  0.00    -0.333 NA
ATOM      2  N   UNL     1      30.646 -23.076 -14.426  0.00  0.00    -0.179 NA
ATOM      3  N   UNL     1      33.306 -23.174 -17.603  0.00  0.00    -0.332 N 
ATOM      4  C   UNL     1      32.903 -23.210 -15.239  0.00  0.00    +0.072 C 
ATOM      5  C   UNL     1      32.398 -23.140 -16.518  0.00  0.00    +0.188 C 
ATOM      6  C   UNL     1      31.976 -23.173 -14.220  0.00  0.00    +0.112 C 
ATOM      7  C   UNL     1      30.273 -23.017 -15.719  0.00  0.00    +0.161 C 
ATOM      8  H   UNL     1      32.972 -23.127 -18.528  0.00  0.00    +0.145 HD
ATOM      9  H   UNL     1      34.274 -23.244 -17.433  0.00  0.00    +0.145 HD
ENDROOT
BRANCH   7  13
ATOM     10  F   UNL     1      28.233 -21.800 -15.435  0.00  0.00    -0.157 F 
ATOM     11  F   UNL     1      28.500 -22.849 -17.314  0.00  0.00    -0.157 F 
ATOM     12  F   UNL     1      28.107 -23.970 -15.493  0.00  0.00    -0.157 F 
ATOM     13  C   UNL     1      28.810 -22.908 -15.985  0.00  0.00    +0.489 C 
ENDBRANCH   7  13
BRANCH   4  14
ATOM     14  C   UNL     1      34.359 -23.318 -14.935  0.00  0.00    +0.186 C 
BRANCH  14  15
ATOM     15  O   UNL     1      34.664 -24.505 -14.224  0.00  0.00    -0.268 OA
BRANCH  15  16
ATOM     16  P   UNL     1      35.664 -24.453 -12.953  0.00  0.00    +0.484 P 
ATOM     17  O   UNL     1      36.246 -23.100 -12.664  0.00  0.00    -0.227 OA
BRANCH  16  18
ATOM     18  O   UNL     1      34.801 -25.081 -11.736  0.00  0.00    -0.302 OA
ATOM     19  H   UNL     1      34.249 -24.388 -11.340  0.00  0.00    +0.222 HD
ENDBRANCH  16  18
BRANCH  16  20
ATOM     20  O   UNL     1      36.764 -25.598 -13.255  0.00  0.00    -0.186 OA
BRANCH  20  21
ATOM     21  P   UNL     1      37.290 -26.221 -14.651  0.00  0.00    +0.481 P 
ATOM     22  O   UNL     1      38.517 -27.077 -14.531  0.00  0.00    -0.227 OA
BRANCH  21  23
ATOM     23  O   UNL     1      37.446 -24.921 -15.598  0.00  0.00    -0.302 OA
ATOM     24  H   UNL     1      37.367 -25.188 -16.527  0.00  0.00    +0.222 HD
ENDBRANCH  21  23
BRANCH  21  25
ATOM     25  O   UNL     1      35.983 -26.967 -15.243  0.00  0.00    -0.302 OA
ATOM     26  H   UNL     1      35.282 -26.971 -14.573  0.00  0.00    +0.222 HD
ENDBRANCH  21  25
ENDBRANCH  20  21
ENDBRANCH  16  20
ENDBRANCH  15  16
ENDBRANCH  14  15
ENDBRANCH   4  14
TORSDOF 9
ENDMDL
