MODEL 1
REMARK VINA RESULT:     -12.3      0.000      0.000
REMARK  Name = 24996872
REMARK  6 active torsions:
REMARK  status: ('A' for Active; 'I' for Inactive)
REMARK    1  A    between atoms: O_1  and  C_3
REMARK    2  A    between atoms: O_1  and  C_18
REMARK    3  A    between atoms: C_7  and  C_8
REMARK    4  A    between atoms: C_11  and  S_14
REMARK    5  A    between atoms: C_18  and  C_23
REMARK    6  A    between atoms: C_29  and  C_30
REMARK                            x       y       z     vdW  Elec       q    Type
REMARK                         _______ _______ _______ _____ _____    ______ ____
ROOT
ATOM      1  O   UNL     1      34.891 -17.904 -23.488  0.00  0.00    -0.474 OA
ENDROOT
BRANCH   1   3
ATOM      2  N   UNL     1      34.277 -14.477 -22.357  0.00  0.00    -0.241 NA
ATOM      3  C   UNL     1      34.490 -16.591 -23.511  0.00  0.00    +0.158 C 
ATOM      4  C   UNL     1      33.911 -16.037 -24.647  0.00  0.00    +0.040 C 
ATOM      5  C   UNL     1      34.649 -15.776 -22.401  0.00  0.00    +0.136 C 
ATOM      6  C   UNL     1      33.515 -14.704 -24.640  0.00  0.00    +0.022 C 
ATOM      7  C   UNL     1      33.718 -13.974 -23.480  0.00  0.00    +0.082 C 
BRANCH   7   8
ATOM      8  C   UNL     1      33.332 -12.585 -23.400  0.00  0.00    +0.018 C 
ATOM      9  C   UNL     1      32.332 -12.189 -22.511  0.00  0.00    +0.003 C 
ATOM     10  C   UNL     1      33.959 -11.639 -24.210  0.00  0.00    +0.003 C 
ATOM     11  C   UNL     1      32.587  -9.901 -23.245  0.00  0.00    +0.106 C 
ATOM     12  C   UNL     1      31.960 -10.847 -22.435  0.00  0.00    +0.018 C 
ATOM     13  C   UNL     1      33.587 -10.297 -24.134  0.00  0.00    +0.018 C 
BRANCH  11  14
ATOM     14  S   UNL     1      32.121  -8.222 -23.149  0.00  0.00    +0.010 S 
ATOM     15  O   UNL     1      33.188  -7.425 -23.739  0.00  0.00    -0.169 OA
ATOM     16  O   UNL     1      30.757  -8.080 -23.642  0.00  0.00    -0.169 OA
ATOM     17  C   UNL     1      32.080  -7.873 -21.405  0.00  0.00    +0.182 C 
ENDBRANCH  11  14
ENDBRANCH   7   8
ENDBRANCH   1   3
BRANCH   1  18
ATOM     18  C   UNL     1      35.702 -18.311 -22.402  0.00  0.00    +0.205 C 
BRANCH  18  23
ATOM     19  O   UNL     1      34.780 -22.673 -17.804  0.00  0.00    -0.296 OA
ATOM     20  N   UNL     1      34.268 -21.221 -19.569  0.00  0.00    -0.251 N 
ATOM     21  N   UNL     1      32.596 -22.319 -18.149  0.00  0.00    -0.300 NA
ATOM     22  N   UNL     1      34.105 -23.432 -16.839  0.00  0.00    -0.010 NA
ATOM     23  C   UNL     1      35.108 -19.583 -21.803  0.00  0.00    +0.047 C 
ATOM     24  C   UNL     1      33.836 -19.270 -21.009  0.00  0.00    +0.025 C 
ATOM     25  C   UNL     1      36.121 -20.282 -20.890  0.00  0.00    +0.025 C 
ATOM     26  C   UNL     1      33.250 -20.529 -20.371  0.00  0.00    +0.096 C 
ATOM     27  C   UNL     1      35.529 -21.536 -20.247  0.00  0.00    +0.096 C 
ATOM     28  C   UNL     1      33.818 -22.049 -18.532  0.00  0.00    +0.379 C 
ATOM     29  C   UNL     1      32.822 -23.171 -17.108  0.00  0.00    +0.104 C 
BRANCH  29  30
ATOM     30  C   UNL     1      31.729 -23.763 -16.331  0.00  0.00    +0.101 C 
ATOM     31  C   UNL     1      32.062 -23.918 -14.824  0.00  0.00    +0.017 C 
ATOM     32  C   UNL     1      30.390 -22.996 -16.471  0.00  0.00    +0.017 C 
ENDBRANCH  29  30
ENDBRANCH  18  23
ENDBRANCH   1  18
TORSDOF 6
ENDMDL
MODEL 2
REMARK VINA RESULT:     -12.1      3.625     11.984
REMARK  Name = 24996872
REMARK  6 active torsions:
REMARK  status: ('A' for Active; 'I' for Inactive)
REMARK    1  A    between atoms: O_1  and  C_3
REMARK    2  A    between atoms: O_1  and  C_18
REMARK    3  A    between atoms: C_7  and  C_8
REMARK    4  A    between atoms: C_11  and  S_14
REMARK    5  A    between atoms: C_18  and  C_23
REMARK    6  A    between atoms: C_29  and  C_30
REMARK                            x       y       z     vdW  Elec       q    Type
REMARK                         _______ _______ _______ _____ _____    ______ ____
ROOT
ATOM      1  O   UNL     1      34.647 -15.513 -24.504  0.00  0.00    -0.474 OA
ENDROOT
BRANCH   1   3
ATOM      2  N   UNL     1      34.155 -17.456 -21.441  0.00  0.00    -0.241 NA
ATOM      3  C   UNL     1      34.551 -16.596 -23.666  0.00  0.00    +0.158 C 
ATOM      4  C   UNL     1      34.738 -17.888 -24.140  0.00  0.00    +0.040 C 
ATOM      5  C   UNL     1      34.264 -16.434 -22.319  0.00  0.00    +0.136 C 
ATOM      6  C   UNL     1      34.635 -18.966 -23.267  0.00  0.00    +0.022 C 
ATOM      7  C   UNL     1      34.344 -18.698 -21.939  0.00  0.00    +0.082 C 
BRANCH   7   8
ATOM      8  C   UNL     1      34.221 -19.767 -20.976  0.00  0.00    +0.018 C 
ATOM      9  C   UNL     1      35.361 -20.435 -20.526  0.00  0.00    +0.003 C 
ATOM     10  C   UNL     1      32.964 -20.131 -20.494  0.00  0.00    +0.003 C 
ATOM     11  C   UNL     1      33.984 -21.831 -19.114  0.00  0.00    +0.106 C 
ATOM     12  C   UNL     1      35.241 -21.467 -19.596  0.00  0.00    +0.018 C 
ATOM     13  C   UNL     1      32.845 -21.163 -19.564  0.00  0.00    +0.018 C 
BRANCH  11  14
ATOM     14  S   UNL     1      33.835 -23.122 -17.949  0.00  0.00    +0.010 S 
ATOM     15  O   UNL     1      33.663 -24.370 -18.682  0.00  0.00    -0.169 OA
ATOM     16  O   UNL     1      34.906 -23.002 -16.970  0.00  0.00    -0.169 OA
ATOM     17  C   UNL     1      32.312 -22.776 -17.097  0.00  0.00    +0.182 C 
ENDBRANCH  11  14
ENDBRANCH   7   8
ENDBRANCH   1   3
BRANCH   1  18
ATOM     18  C   UNL     1      33.469 -14.757 -24.717  0.00  0.00    +0.205 C 
BRANCH  18  23
ATOM     19  O   UNL     1      32.795  -8.411 -24.168  0.00  0.00    -0.296 OA
ATOM     20  N   UNL     1      32.839 -10.664 -23.530  0.00  0.00    -0.251 N 
ATOM     21  N   UNL     1      31.907  -8.856 -22.160  0.00  0.00    -0.300 NA
ATOM     22  N   UNL     1      32.358  -7.183 -23.654  0.00  0.00    -0.010 NA
ATOM     23  C   UNL     1      33.631 -13.404 -24.027  0.00  0.00    +0.047 C 
ATOM     24  C   UNL     1      32.388 -13.063 -23.199  0.00  0.00    +0.025 C 
ATOM     25  C   UNL     1      33.880 -12.294 -25.054  0.00  0.00    +0.025 C 
ATOM     26  C   UNL     1      32.518 -11.694 -22.532  0.00  0.00    +0.096 C 
ATOM     27  C   UNL     1      34.002 -10.925 -24.385  0.00  0.00    +0.096 C 
ATOM     28  C   UNL     1      32.490  -9.342 -23.227  0.00  0.00    +0.379 C 
ATOM     29  C   UNL     1      31.846  -7.528 -22.469  0.00  0.00    +0.104 C 
BRANCH  29  30
ATOM     30  C   UNL     1      31.258  -6.540 -21.559  0.00  0.00    +0.101 C 
ATOM     31  C   UNL     1      32.104  -6.301 -20.282  0.00  0.00    +0.017 C 
ATOM     32  C   UNL     1      30.976  -5.174 -22.235  0.00  0.00    +0.017 C 
ENDBRANCH  29  30
ENDBRANCH  18  23
ENDBRANCH   1  18
TORSDOF 6
ENDMDL
MODEL 3
REMARK VINA RESULT:     -12.1      4.749     12.627
REMARK  Name = 24996872
REMARK  6 active torsions:
REMARK  status: ('A' for Active; 'I' for Inactive)
REMARK    1  A    between atoms: O_1  and  C_3
REMARK    2  A    between atoms: O_1  and  C_18
REMARK    3  A    between atoms: C_7  and  C_8
REMARK    4  A    between atoms: C_11  and  S_14
REMARK    5  A    between atoms: C_18  and  C_23
REMARK    6  A    between atoms: C_29  and  C_30
REMARK                            x       y       z     vdW  Elec       q    Type
REMARK                         _______ _______ _______ _____ _____    ______ ____
ROOT
ATOM      1  O   UNL     1      35.549 -20.404 -21.161  0.00  0.00    -0.474 OA
ENDROOT
BRANCH   1   3
ATOM      2  N   UNL     1      36.832 -21.428 -17.888  0.00  0.00    -0.241 NA
ATOM      3  C   UNL     1      35.601 -21.001 -19.925  0.00  0.00    +0.158 C 
ATOM      4  C   UNL     1      34.536 -21.757 -19.449  0.00  0.00    +0.040 C 
ATOM      5  C   UNL     1      36.716 -20.868 -19.113  0.00  0.00    +0.136 C 
ATOM      6  C   UNL     1      34.617 -22.350 -18.193  0.00  0.00    +0.022 C 
ATOM      7  C   UNL     1      35.776 -22.156 -17.459  0.00  0.00    +0.082 C 
BRANCH   7   8
ATOM      8  C   UNL     1      35.931 -22.740 -16.148  0.00  0.00    +0.018 C 
ATOM      9  C   UNL     1      37.207 -22.943 -15.621  0.00  0.00    +0.003 C 
ATOM     10  C   UNL     1      34.806 -23.101 -15.408  0.00  0.00    +0.003 C 
ATOM     11  C   UNL     1      36.230 -23.869 -13.614  0.00  0.00    +0.106 C 
ATOM     12  C   UNL     1      37.356 -23.508 -14.355  0.00  0.00    +0.018 C 
ATOM     13  C   UNL     1      34.955 -23.666 -14.141  0.00  0.00    +0.018 C 
BRANCH  11  14
ATOM     14  S   UNL     1      36.417 -24.575 -12.029  0.00  0.00    +0.010 S 
ATOM     15  O   UNL     1      37.276 -23.698 -11.245  0.00  0.00    -0.169 OA
ATOM     16  O   UNL     1      35.104 -24.945 -11.518  0.00  0.00    -0.169 OA
ATOM     17  C   UNL     1      37.304 -26.089 -12.321  0.00  0.00    +0.182 C 
ENDBRANCH  11  14
ENDBRANCH   7   8
ENDBRANCH   1   3
BRANCH   1  18
ATOM     18  C   UNL     1      34.372 -19.685 -21.479  0.00  0.00    +0.205 C 
BRANCH  18  23
ATOM     19  O   UNL     1      33.551 -14.761 -25.491  0.00  0.00    -0.296 OA
ATOM     20  N   UNL     1      34.156 -15.910 -23.543  0.00  0.00    -0.251 N 
ATOM     21  N   UNL     1      34.006 -13.468 -23.719  0.00  0.00    -0.300 NA
ATOM     22  N   UNL     1      33.373 -13.437 -25.917  0.00  0.00    -0.010 NA
ATOM     23  C   UNL     1      34.771 -18.383 -22.170  0.00  0.00    +0.047 C 
ATOM     24  C   UNL     1      34.194 -17.173 -21.428  0.00  0.00    +0.025 C 
ATOM     25  C   UNL     1      34.291 -18.367 -23.625  0.00  0.00    +0.025 C 
ATOM     26  C   UNL     1      34.555 -15.864 -22.129  0.00  0.00    +0.096 C 
ATOM     27  C   UNL     1      34.645 -17.053 -24.321  0.00  0.00    +0.096 C 
ATOM     28  C   UNL     1      33.922 -14.688 -24.186  0.00  0.00    +0.379 C 
ATOM     29  C   UNL     1      33.660 -12.736 -24.817  0.00  0.00    +0.104 C 
BRANCH  29  30
ATOM     30  C   UNL     1      33.604 -11.271 -24.794  0.00  0.00    +0.101 C 
ATOM     31  C   UNL     1      33.119 -10.697 -23.437  0.00  0.00    +0.017 C 
ATOM     32  C   UNL     1      34.950 -10.599 -25.168  0.00  0.00    +0.017 C 
ENDBRANCH  29  30
ENDBRANCH  18  23
ENDBRANCH   1  18
TORSDOF 6
ENDMDL
MODEL 4
REMARK VINA RESULT:     -12.0      4.500     11.828
REMARK  Name = 24996872
REMARK  6 active torsions:
REMARK  status: ('A' for Active; 'I' for Inactive)
REMARK    1  A    between atoms: O_1  and  C_3
REMARK    2  A    between atoms: O_1  and  C_18
REMARK    3  A    between atoms: C_7  and  C_8
REMARK    4  A    between atoms: C_11  and  S_14
REMARK    5  A    between atoms: C_18  and  C_23
REMARK    6  A    between atoms: C_29  and  C_30
REMARK                            x       y       z     vdW  Elec       q    Type
REMARK                         _______ _______ _______ _____ _____    ______ ____
ROOT
ATOM      1  O   UNL     1      34.176 -19.678 -21.940  0.00  0.00    -0.474 OA
ENDROOT
BRANCH   1   3
ATOM      2  N   UNL     1      36.283 -20.932 -19.222  0.00  0.00    -0.241 NA
ATOM      3  C   UNL     1      34.546 -20.341 -20.796  0.00  0.00    +0.158 C 
ATOM      4  C   UNL     1      33.621 -21.073 -20.061  0.00  0.00    +0.040 C 
ATOM      5  C   UNL     1      35.853 -20.302 -20.339  0.00  0.00    +0.136 C 
ATOM      6  C   UNL     1      34.025 -21.735 -18.906  0.00  0.00    +0.022 C 
ATOM      7  C   UNL     1      35.355 -21.633 -18.533  0.00  0.00    +0.082 C 
BRANCH   7   8
ATOM      8  C   UNL     1      35.846 -22.293 -17.347  0.00  0.00    +0.018 C 
ATOM      9  C   UNL     1      34.984 -23.070 -16.573  0.00  0.00    +0.003 C 
ATOM     10  C   UNL     1      37.183 -22.156 -16.975  0.00  0.00    +0.003 C 
ATOM     11  C   UNL     1      36.796 -23.570 -15.055  0.00  0.00    +0.106 C 
ATOM     12  C   UNL     1      35.459 -23.707 -15.427  0.00  0.00    +0.018 C 
ATOM     13  C   UNL     1      37.659 -22.793 -15.829  0.00  0.00    +0.018 C 
BRANCH  11  14
ATOM     14  S   UNL     1      37.391 -24.367 -13.621  0.00  0.00    +0.010 S 
ATOM     15  O   UNL     1      36.586 -25.562 -13.406  0.00  0.00    -0.169 OA
ATOM     16  O   UNL     1      38.840 -24.480 -13.709  0.00  0.00    -0.169 OA
ATOM     17  C   UNL     1      37.038 -23.227 -12.302  0.00  0.00    +0.182 C 
ENDBRANCH  11  14
ENDBRANCH   7   8
ENDBRANCH   1   3
BRANCH   1  18
ATOM     18  C   UNL     1      35.192 -18.983 -22.639  0.00  0.00    +0.205 C 
BRANCH  18  23
ATOM     19  O   UNL     1      32.732 -13.105 -23.276  0.00  0.00    -0.296 OA
ATOM     20  N   UNL     1      33.594 -15.006 -22.214  0.00  0.00    -0.251 N 
ATOM     21  N   UNL     1      32.452 -13.171 -21.054  0.00  0.00    -0.300 NA
ATOM     22  N   UNL     1      32.054 -11.927 -22.932  0.00  0.00    -0.010 NA
ATOM     23  C   UNL     1      35.068 -17.495 -22.321  0.00  0.00    +0.047 C 
ATOM     24  C   UNL     1      33.977 -17.250 -21.274  0.00  0.00    +0.025 C 
ATOM     25  C   UNL     1      34.751 -16.692 -23.587  0.00  0.00    +0.025 C 
ATOM     26  C   UNL     1      33.815 -15.761 -20.973  0.00  0.00    +0.096 C 
ATOM     27  C   UNL     1      34.581 -15.203 -23.281  0.00  0.00    +0.096 C 
ATOM     28  C   UNL     1      32.926 -13.779 -22.112  0.00  0.00    +0.379 C 
ATOM     29  C   UNL     1      31.926 -12.041 -21.607  0.00  0.00    +0.104 C 
BRANCH  29  30
ATOM     30  C   UNL     1      31.261 -11.013 -20.800  0.00  0.00    +0.101 C 
ATOM     31  C   UNL     1      31.474 -11.196 -19.275  0.00  0.00    +0.017 C 
ATOM     32  C   UNL     1      31.666  -9.568 -21.190  0.00  0.00    +0.017 C 
ENDBRANCH  29  30
ENDBRANCH  18  23
ENDBRANCH   1  18
TORSDOF 6
ENDMDL
MODEL 5
REMARK VINA RESULT:     -11.7      4.785     12.681
REMARK  Name = 24996872
REMARK  6 active torsions:
REMARK  status: ('A' for Active; 'I' for Inactive)
REMARK    1  A    between atoms: O_1  and  C_3
REMARK    2  A    between atoms: O_1  and  C_18
REMARK    3  A    between atoms: C_7  and  C_8
REMARK    4  A    between atoms: C_11  and  S_14
REMARK    5  A    between atoms: C_18  and  C_23
REMARK    6  A    between atoms: C_29  and  C_30
REMARK                            x       y       z     vdW  Elec       q    Type
REMARK                         _______ _______ _______ _____ _____    ______ ____
ROOT
ATOM      1  O   UNL     1      34.878 -20.746 -21.088  0.00  0.00    -0.474 OA
ENDROOT
BRANCH   1   3
ATOM      2  N   UNL     1      36.442 -21.734 -17.928  0.00  0.00    -0.241 NA
ATOM      3  C   UNL     1      35.028 -21.304 -19.842  0.00  0.00    +0.158 C 
ATOM      4  C   UNL     1      33.981 -21.984 -19.231  0.00  0.00    +0.040 C 
ATOM      5  C   UNL     1      36.228 -21.208 -19.156  0.00  0.00    +0.136 C 
ATOM      6  C   UNL     1      34.162 -22.540 -17.969  0.00  0.00    +0.022 C 
ATOM      7  C   UNL     1      35.400 -22.387 -17.366  0.00  0.00    +0.082 C 
BRANCH   7   8
ATOM      8  C   UNL     1      35.661 -22.937 -16.057  0.00  0.00    +0.018 C 
ATOM      9  C   UNL     1      36.975 -23.116 -15.624  0.00  0.00    +0.003 C 
ATOM     10  C   UNL     1      34.599 -23.288 -15.224  0.00  0.00    +0.003 C 
ATOM     11  C   UNL     1      36.164 -23.998 -13.526  0.00  0.00    +0.106 C 
ATOM     12  C   UNL     1      37.226 -23.647 -14.359  0.00  0.00    +0.018 C 
ATOM     13  C   UNL     1      34.850 -23.819 -13.959  0.00  0.00    +0.018 C 
BRANCH  11  14
ATOM     14  S   UNL     1      36.478 -24.662 -11.943  0.00  0.00    +0.010 S 
ATOM     15  O   UNL     1      37.385 -23.758 -11.248  0.00  0.00    -0.169 OA
ATOM     16  O   UNL     1      35.212 -25.031 -11.324  0.00  0.00    -0.169 OA
ATOM     17  C   UNL     1      37.357 -26.175 -12.264  0.00  0.00    +0.182 C 
ENDBRANCH  11  14
ENDBRANCH   7   8
ENDBRANCH   1   3
BRANCH   1  18
ATOM     18  C   UNL     1      35.705 -19.640 -21.401  0.00  0.00    +0.205 C 
BRANCH  18  23
ATOM     19  O   UNL     1      33.958 -13.604 -22.637  0.00  0.00    -0.296 OA
ATOM     20  N   UNL     1      34.408 -15.869 -23.028  0.00  0.00    -0.251 N 
ATOM     21  N   UNL     1      34.050 -14.204 -24.793  0.00  0.00    -0.300 NA
ATOM     22  N   UNL     1      33.716 -12.439 -23.377  0.00  0.00    -0.010 NA
ATOM     23  C   UNL     1      34.841 -18.554 -22.037  0.00  0.00    +0.047 C 
ATOM     24  C   UNL     1      35.453 -18.075 -23.358  0.00  0.00    +0.025 C 
ATOM     25  C   UNL     1      34.676 -17.363 -21.089  0.00  0.00    +0.025 C 
ATOM     26  C   UNL     1      34.619 -16.960 -23.989  0.00  0.00    +0.096 C 
ATOM     27  C   UNL     1      33.848 -16.246 -21.726  0.00  0.00    +0.096 C 
ATOM     28  C   UNL     1      34.145 -14.595 -23.547  0.00  0.00    +0.379 C 
ATOM     29  C   UNL     1      33.787 -12.874 -24.638  0.00  0.00    +0.104 C 
BRANCH  29  30
ATOM     30  C   UNL     1      33.594 -11.977 -25.782  0.00  0.00    +0.101 C 
ATOM     31  C   UNL     1      34.740 -10.946 -25.953  0.00  0.00    +0.017 C 
ATOM     32  C   UNL     1      33.392 -12.726 -27.123  0.00  0.00    +0.017 C 
ENDBRANCH  29  30
ENDBRANCH  18  23
ENDBRANCH   1  18
TORSDOF 6
ENDMDL
MODEL 6
REMARK VINA RESULT:     -11.3      4.085     12.084
REMARK  Name = 24996872
REMARK  6 active torsions:
REMARK  status: ('A' for Active; 'I' for Inactive)
REMARK    1  A    between atoms: O_1  and  C_3
REMARK    2  A    between atoms: O_1  and  C_18
REMARK    3  A    between atoms: C_7  and  C_8
REMARK    4  A    between atoms: C_11  and  S_14
REMARK    5  A    between atoms: C_18  and  C_23
REMARK    6  A    between atoms: C_29  and  C_30
REMARK                            x       y       z     vdW  Elec       q    Type
REMARK                         _______ _______ _______ _____ _____    ______ ____
ROOT
ATOM      1  O   UNL     1      35.571 -19.831 -21.805  0.00  0.00    -0.474 OA
ENDROOT
BRANCH   1   3
ATOM      2  N   UNL     1      35.130 -21.927 -18.836  0.00  0.00    -0.241 NA
ATOM      3  C   UNL     1      34.952 -20.482 -20.766  0.00  0.00    +0.158 C 
ATOM      4  C   UNL     1      33.580 -20.380 -20.573  0.00  0.00    +0.040 C 
ATOM      5  C   UNL     1      35.677 -21.261 -19.878  0.00  0.00    +0.136 C 
ATOM      6  C   UNL     1      32.980 -21.051 -19.512  0.00  0.00    +0.022 C 
ATOM      7  C   UNL     1      33.793 -21.804 -18.680  0.00  0.00    +0.082 C 
BRANCH   7   8
ATOM      8  C   UNL     1      33.241 -22.526 -17.559  0.00  0.00    +0.018 C 
ATOM      9  C   UNL     1      34.088 -23.182 -16.665  0.00  0.00    +0.003 C 
ATOM     10  C   UNL     1      31.860 -22.569 -17.368  0.00  0.00    +0.003 C 
ATOM     11  C   UNL     1      32.173 -23.922 -15.392  0.00  0.00    +0.106 C 
ATOM     12  C   UNL     1      33.554 -23.880 -15.582  0.00  0.00    +0.018 C 
ATOM     13  C   UNL     1      31.326 -23.267 -16.285  0.00  0.00    +0.018 C 
BRANCH  11  14
ATOM     14  S   UNL     1      31.505 -24.796 -14.036  0.00  0.00    +0.010 S 
ATOM     15  O   UNL     1      30.645 -25.848 -14.561  0.00  0.00    -0.169 OA
ATOM     16  O   UNL     1      32.581 -25.135 -13.115  0.00  0.00    -0.169 OA
ATOM     17  C   UNL     1      30.471 -23.607 -13.210  0.00  0.00    +0.182 C 
ENDBRANCH  11  14
ENDBRANCH   7   8
ENDBRANCH   1   3
BRANCH   1  18
ATOM     18  C   UNL     1      34.777 -19.525 -22.937  0.00  0.00    +0.205 C 
BRANCH  18  23
ATOM     19  O   UNL     1      33.503 -13.935 -25.791  0.00  0.00    -0.296 OA
ATOM     20  N   UNL     1      34.285 -15.425 -24.162  0.00  0.00    -0.251 N 
ATOM     21  N   UNL     1      34.038 -13.008 -23.823  0.00  0.00    -0.300 NA
ATOM     22  N   UNL     1      33.250 -12.563 -25.924  0.00  0.00    -0.010 NA
ATOM     23  C   UNL     1      35.081 -18.092 -23.369  0.00  0.00    +0.047 C 
ATOM     24  C   UNL     1      34.517 -17.087 -22.359  0.00  0.00    +0.025 C 
ATOM     25  C   UNL     1      34.499 -17.805 -24.756  0.00  0.00    +0.025 C 
ATOM     26  C   UNL     1      34.781 -15.647 -22.797  0.00  0.00    +0.096 C 
ATOM     27  C   UNL     1      34.757 -16.361 -25.188  0.00  0.00    +0.096 C 
ATOM     28  C   UNL     1      33.963 -14.111 -24.525  0.00  0.00    +0.379 C 
ATOM     29  C   UNL     1      33.589 -12.086 -24.723  0.00  0.00    +0.104 C 
BRANCH  29  30
ATOM     30  C   UNL     1      33.485 -10.661 -24.395  0.00  0.00    +0.101 C 
ATOM     31  C   UNL     1      32.720 -10.389 -23.074  0.00  0.00    +0.017 C 
ATOM     32  C   UNL     1      34.856  -9.942 -24.335  0.00  0.00    +0.017 C 
ENDBRANCH  29  30
ENDBRANCH  18  23
ENDBRANCH   1  18
TORSDOF 6
ENDMDL
MODEL 7
REMARK VINA RESULT:     -11.3      3.184      5.572
REMARK  Name = 24996872
REMARK  6 active torsions:
REMARK  status: ('A' for Active; 'I' for Inactive)
REMARK    1  A    between atoms: O_1  and  C_3
REMARK    2  A    between atoms: O_1  and  C_18
REMARK    3  A    between atoms: C_7  and  C_8
REMARK    4  A    between atoms: C_11  and  S_14
REMARK    5  A    between atoms: C_18  and  C_23
REMARK    6  A    between atoms: C_29  and  C_30
REMARK                            x       y       z     vdW  Elec       q    Type
REMARK                         _______ _______ _______ _____ _____    ______ ____
ROOT
ATOM      1  O   UNL     1      33.217 -12.547 -23.198  0.00  0.00    -0.474 OA
ENDROOT
BRANCH   1   3
ATOM      2  N   UNL     1      31.559  -9.323 -22.688  0.00  0.00    -0.241 NA
ATOM      3  C   UNL     1      32.980 -11.195 -23.253  0.00  0.00    +0.158 C 
ATOM      4  C   UNL     1      33.865 -10.339 -23.897  0.00  0.00    +0.040 C 
ATOM      5  C   UNL     1      31.851 -10.643 -22.669  0.00  0.00    +0.136 C 
ATOM      6  C   UNL     1      33.598  -8.974 -23.938  0.00  0.00    +0.022 C 
ATOM      7  C   UNL     1      32.442  -8.521 -23.323  0.00  0.00    +0.082 C 
BRANCH   7   8
ATOM      8  C   UNL     1      32.101  -7.119 -23.325  0.00  0.00    +0.018 C 
ATOM      9  C   UNL     1      31.386  -6.573 -22.258  0.00  0.00    +0.003 C 
ATOM     10  C   UNL     1      32.488  -6.308 -24.392  0.00  0.00    +0.003 C 
ATOM     11  C   UNL     1      31.443  -4.407 -23.328  0.00  0.00    +0.106 C 
ATOM     12  C   UNL     1      31.056  -5.218 -22.261  0.00  0.00    +0.018 C 
ATOM     13  C   UNL     1      32.159  -4.953 -24.394  0.00  0.00    +0.018 C 
BRANCH  11  14
ATOM     14  S   UNL     1      31.031  -2.711 -23.331  0.00  0.00    +0.010 S 
ATOM     15  O   UNL     1      29.837  -2.538 -22.514  0.00  0.00    -0.169 OA
ATOM     16  O   UNL     1      32.227  -1.933 -23.036  0.00  0.00    -0.169 OA
ATOM     17  C   UNL     1      30.591  -2.365 -25.020  0.00  0.00    +0.182 C 
ENDBRANCH  11  14
ENDBRANCH   7   8
ENDBRANCH   1   3
BRANCH   1  18
ATOM     18  C   UNL     1      32.586 -13.269 -22.156  0.00  0.00    +0.205 C 
BRANCH  18  23
ATOM     19  O   UNL     1      36.409 -18.351 -21.399  0.00  0.00    -0.296 OA
ATOM     20  N   UNL     1      34.432 -17.096 -21.451  0.00  0.00    -0.251 N 
ATOM     21  N   UNL     1      34.626 -19.332 -20.464  0.00  0.00    -0.300 NA
ATOM     22  N   UNL     1      36.849 -19.598 -20.936  0.00  0.00    -0.010 NA
ATOM     23  C   UNL     1      32.970 -14.741 -22.285  0.00  0.00    +0.047 C 
ATOM     24  C   UNL     1      32.594 -15.515 -21.017  0.00  0.00    +0.025 C 
ATOM     25  C   UNL     1      34.471 -14.892 -22.549  0.00  0.00    +0.025 C 
ATOM     26  C   UNL     1      33.007 -16.983 -21.115  0.00  0.00    +0.096 C 
ATOM     27  C   UNL     1      34.882 -16.362 -22.639  0.00  0.00    +0.096 C 
ATOM     28  C   UNL     1      35.091 -18.275 -21.080  0.00  0.00    +0.379 C 
ATOM     29  C   UNL     1      35.741 -20.116 -20.397  0.00  0.00    +0.104 C 
BRANCH  29  30
ATOM     30  C   UNL     1      35.728 -21.443 -19.774  0.00  0.00    +0.101 C 
ATOM     31  C   UNL     1      36.587 -21.525 -18.485  0.00  0.00    +0.017 C 
ATOM     32  C   UNL     1      34.301 -21.959 -19.457  0.00  0.00    +0.017 C 
ENDBRANCH  29  30
ENDBRANCH  18  23
ENDBRANCH   1  18
TORSDOF 6
ENDMDL
MODEL 8
REMARK VINA RESULT:     -11.3      1.917      2.410
REMARK  Name = 24996872
REMARK  6 active torsions:
REMARK  status: ('A' for Active; 'I' for Inactive)
REMARK    1  A    between atoms: O_1  and  C_3
REMARK    2  A    between atoms: O_1  and  C_18
REMARK    3  A    between atoms: C_7  and  C_8
REMARK    4  A    between atoms: C_11  and  S_14
REMARK    5  A    between atoms: C_18  and  C_23
REMARK    6  A    between atoms: C_29  and  C_30
REMARK                            x       y       z     vdW  Elec       q    Type
REMARK                         _______ _______ _______ _____ _____    ______ ____
ROOT
ATOM      1  O   UNL     1      35.167 -17.978 -22.173  0.00  0.00    -0.474 OA
ENDROOT
BRANCH   1   3
ATOM      2  N   UNL     1      34.104 -14.541 -21.494  0.00  0.00    -0.241 NA
ATOM      3  C   UNL     1      34.717 -16.700 -22.395  0.00  0.00    +0.158 C 
ATOM      4  C   UNL     1      34.424 -16.256 -23.679  0.00  0.00    +0.040 C 
ATOM      5  C   UNL     1      34.542 -15.812 -21.345  0.00  0.00    +0.136 C 
ATOM      6  C   UNL     1      33.969 -14.956 -23.873  0.00  0.00    +0.022 C 
ATOM      7  C   UNL     1      33.829 -14.146 -22.758  0.00  0.00    +0.082 C 
BRANCH   7   8
ATOM      8  C   UNL     1      33.363 -12.785 -22.882  0.00  0.00    +0.018 C 
ATOM      9  C   UNL     1      33.932 -11.937 -23.833  0.00  0.00    +0.003 C 
ATOM     10  C   UNL     1      32.343 -12.318 -22.054  0.00  0.00    +0.003 C 
ATOM     11  C   UNL     1      32.461 -10.156 -23.124  0.00  0.00    +0.106 C 
ATOM     12  C   UNL     1      33.481 -10.623 -23.953  0.00  0.00    +0.018 C 
ATOM     13  C   UNL     1      31.892 -11.004 -22.174  0.00  0.00    +0.018 C 
BRANCH  11  14
ATOM     14  S   UNL     1      31.897  -8.511 -23.275  0.00  0.00    +0.010 S 
ATOM     15  O   UNL     1      32.875  -7.772 -24.061  0.00  0.00    -0.169 OA
ATOM     16  O   UNL     1      30.500  -8.526 -23.688  0.00  0.00    -0.169 OA
ATOM     17  C   UNL     1      31.939  -7.875 -21.614  0.00  0.00    +0.182 C 
ENDBRANCH  11  14
ENDBRANCH   7   8
ENDBRANCH   1   3
BRANCH   1  18
ATOM     18  C   UNL     1      34.195 -19.008 -22.155  0.00  0.00    +0.205 C 
BRANCH  18  23
ATOM     19  O   UNL     1      37.232 -21.653 -17.175  0.00  0.00    -0.296 OA
ATOM     20  N   UNL     1      35.601 -21.358 -18.830  0.00  0.00    -0.251 N 
ATOM     21  N   UNL     1      35.379 -22.887 -16.925  0.00  0.00    -0.300 NA
ATOM     22  N   UNL     1      37.419 -22.406 -16.008  0.00  0.00    -0.010 NA
ATOM     23  C   UNL     1      34.735 -20.169 -21.323  0.00  0.00    +0.047 C 
ATOM     24  C   UNL     1      33.736 -20.568 -20.232  0.00  0.00    +0.025 C 
ATOM     25  C   UNL     1      36.076 -19.803 -20.679  0.00  0.00    +0.025 C 
ATOM     26  C   UNL     1      34.278 -21.705 -19.366  0.00  0.00    +0.096 C 
ATOM     27  C   UNL     1      36.611 -20.938 -19.807  0.00  0.00    +0.096 C 
ATOM     28  C   UNL     1      36.007 -21.996 -17.651  0.00  0.00    +0.379 C 
ATOM     29  C   UNL     1      36.284 -23.107 -15.928  0.00  0.00    +0.104 C 
BRANCH  29  30
ATOM     30  C   UNL     1      36.030 -24.052 -14.836  0.00  0.00    +0.101 C 
ATOM     31  C   UNL     1      36.714 -25.428 -15.044  0.00  0.00    +0.017 C 
ATOM     32  C   UNL     1      36.427 -23.502 -13.443  0.00  0.00    +0.017 C 
ENDBRANCH  29  30
ENDBRANCH  18  23
ENDBRANCH   1  18
TORSDOF 6
ENDMDL
MODEL 9
REMARK VINA RESULT:     -11.2      4.137     12.160
REMARK  Name = 24996872
REMARK  6 active torsions:
REMARK  status: ('A' for Active; 'I' for Inactive)
REMARK    1  A    between atoms: O_1  and  C_3
REMARK    2  A    between atoms: O_1  and  C_18
REMARK    3  A    between atoms: C_7  and  C_8
REMARK    4  A    between atoms: C_11  and  S_14
REMARK    5  A    between atoms: C_18  and  C_23
REMARK    6  A    between atoms: C_29  and  C_30
REMARK                            x       y       z     vdW  Elec       q    Type
REMARK                         _______ _______ _______ _____ _____    ______ ____
ROOT
ATOM      1  O   UNL     1      34.210 -18.687 -22.564  0.00  0.00    -0.474 OA
ENDROOT
BRANCH   1   3
ATOM      2  N   UNL     1      36.112 -20.313 -19.891  0.00  0.00    -0.241 NA
ATOM      3  C   UNL     1      34.486 -19.470 -21.470  0.00  0.00    +0.158 C 
ATOM      4  C   UNL     1      33.484 -20.196 -20.837  0.00  0.00    +0.040 C 
ATOM      5  C   UNL     1      35.773 -19.562 -20.963  0.00  0.00    +0.136 C 
ATOM      6  C   UNL     1      33.794 -20.981 -19.732  0.00  0.00    +0.022 C 
ATOM      7  C   UNL     1      35.111 -21.004 -19.302  0.00  0.00    +0.082 C 
BRANCH   7   8
ATOM      8  C   UNL     1      35.505 -21.796 -18.161  0.00  0.00    +0.018 C 
ATOM      9  C   UNL     1      34.587 -22.654 -17.556  0.00  0.00    +0.003 C 
ATOM     10  C   UNL     1      36.805 -21.704 -17.665  0.00  0.00    +0.003 C 
ATOM     11  C   UNL     1      36.270 -23.327 -15.957  0.00  0.00    +0.106 C 
ATOM     12  C   UNL     1      34.969 -23.418 -16.454  0.00  0.00    +0.018 C 
ATOM     13  C   UNL     1      37.188 -22.468 -16.563  0.00  0.00    +0.018 C 
BRANCH  11  14
ATOM     14  S   UNL     1      36.748 -24.284 -14.578  0.00  0.00    +0.010 S 
ATOM     15  O   UNL     1      37.067 -25.624 -15.051  0.00  0.00    -0.169 OA
ATOM     16  O   UNL     1      37.731 -23.539 -13.803  0.00  0.00    -0.169 OA
ATOM     17  C   UNL     1      35.277 -24.392 -13.583  0.00  0.00    +0.182 C 
ENDBRANCH  11  14
ENDBRANCH   7   8
ENDBRANCH   1   3
BRANCH   1  18
ATOM     18  C   UNL     1      35.011 -17.535 -22.749  0.00  0.00    +0.205 C 
BRANCH  18  23
ATOM     19  O   UNL     1      32.205 -11.911 -21.517  0.00  0.00    -0.296 OA
ATOM     20  N   UNL     1      33.280 -13.590 -22.746  0.00  0.00    -0.251 N 
ATOM     21  N   UNL     1      32.979 -11.284 -23.524  0.00  0.00    -0.300 NA
ATOM     22  N   UNL     1      31.879 -10.555 -21.656  0.00  0.00    -0.010 NA
ATOM     23  C   UNL     1      34.095 -16.351 -23.052  0.00  0.00    +0.047 C 
ATOM     24  C   UNL     1      34.882 -15.203 -23.694  0.00  0.00    +0.025 C 
ATOM     25  C   UNL     1      33.411 -15.850 -21.776  0.00  0.00    +0.025 C 
ATOM     26  C   UNL     1      33.986 -13.997 -23.969  0.00  0.00    +0.096 C 
ATOM     27  C   UNL     1      32.522 -14.637 -22.053  0.00  0.00    +0.096 C 
ATOM     28  C   UNL     1      32.852 -12.260 -22.660  0.00  0.00    +0.379 C 
ATOM     29  C   UNL     1      32.368 -10.259 -22.863  0.00  0.00    +0.104 C 
BRANCH  29  30
ATOM     30  C   UNL     1      32.254  -8.915 -23.439  0.00  0.00    +0.101 C 
ATOM     31  C   UNL     1      30.826  -8.320 -23.332  0.00  0.00    +0.017 C 
ATOM     32  C   UNL     1      33.263  -7.903 -22.841  0.00  0.00    +0.017 C 
ENDBRANCH  29  30
ENDBRANCH  18  23
ENDBRANCH   1  18
TORSDOF 6
ENDMDL
