MODEL 1
REMARK VINA RESULT:      -3.3      0.000      0.000
REMARK  Name = 7311735
REMARK  3 active torsions:
REMARK  status: ('A' for Active; 'I' for Inactive)
REMARK    1  A    between atoms: C_1  and  N_2
REMARK    2  A    between atoms: C_1  and  C_6
REMARK    3  A    between atoms: C_6  and  O_8
REMARK                            x       y       z     vdW  Elec       q    Type
REMARK                         _______ _______ _______ _____ _____    ______ ____
ROOT
ATOM      1  C   UNL     1      37.264 -26.792 -14.342  0.00  0.00    -0.056 C 
ENDROOT
BRANCH   1   2
ATOM      2  N   UNL     1      36.042 -26.665 -15.175  0.00  0.00    +0.382 N 
ATOM      3  H   UNL     1      36.091 -25.804 -15.722  0.00  0.00    -0.089 HD
ATOM      4  H   UNL     1      35.220 -26.637 -14.572  0.00  0.00    -0.089 HD
ATOM      5  H   UNL     1      35.975 -27.464 -15.806  0.00  0.00    -0.089 HD
ENDBRANCH   1   2
BRANCH   1   6
ATOM      6  C   UNL     1      37.253 -25.787 -13.196  0.00  0.00    +0.089 C 
ATOM      7  C   UNL     1      38.600 -25.125 -12.935  0.00  0.00    +0.029 C 
BRANCH   6   8
ATOM      8  O   UNL     1      36.806 -26.442 -12.011  0.00  0.00    -0.387 OA
ATOM      9  H   UNL     1      36.336 -25.809 -11.449  0.00  0.00    +0.210 HD
ENDBRANCH   6   8
ENDBRANCH   1   6
TORSDOF 3
ENDMDL
MODEL 2
REMARK VINA RESULT:      -3.2     19.946     20.083
REMARK  Name = 7311735
REMARK  3 active torsions:
REMARK  status: ('A' for Active; 'I' for Inactive)
REMARK    1  A    between atoms: C_1  and  N_2
REMARK    2  A    between atoms: C_1  and  C_6
REMARK    3  A    between atoms: C_6  and  O_8
REMARK                            x       y       z     vdW  Elec       q    Type
REMARK                         _______ _______ _______ _____ _____    ______ ____
ROOT
ATOM      1  C   UNL     1      32.267  -8.933 -20.378  0.00  0.00    -0.056 C 
ENDROOT
BRANCH   1   2
ATOM      2  N   UNL     1      32.504  -9.564 -19.056  0.00  0.00    +0.382 N 
ATOM      3  H   UNL     1      32.075 -10.490 -19.040  0.00  0.00    -0.089 HD
ATOM      4  H   UNL     1      32.092  -8.986 -18.324  0.00  0.00    -0.089 HD
ATOM      5  H   UNL     1      33.508  -9.652 -18.896  0.00  0.00    -0.089 HD
ENDBRANCH   1   2
BRANCH   1   6
ATOM      6  C   UNL     1      32.163  -7.416 -20.250  0.00  0.00    +0.089 C 
ATOM      7  C   UNL     1      32.226  -6.674 -21.579  0.00  0.00    +0.029 C 
BRANCH   6   8
ATOM      8  O   UNL     1      33.204  -6.953 -19.393  0.00  0.00    -0.387 OA
ATOM      9  H   UNL     1      32.924  -7.035 -18.470  0.00  0.00    +0.210 HD
ENDBRANCH   6   8
ENDBRANCH   1   6
TORSDOF 3
ENDMDL
MODEL 3
REMARK VINA RESULT:      -3.2     12.666     13.036
REMARK  Name = 7311735
REMARK  3 active torsions:
REMARK  status: ('A' for Active; 'I' for Inactive)
REMARK    1  A    between atoms: C_1  and  N_2
REMARK    2  A    between atoms: C_1  and  C_6
REMARK    3  A    between atoms: C_6  and  O_8
REMARK                            x       y       z     vdW  Elec       q    Type
REMARK                         _______ _______ _______ _____ _____    ______ ____
ROOT
ATOM      1  C   UNL     1      41.675 -13.384 -15.620  0.00  0.00    -0.056 C 
ENDROOT
BRANCH   1   2
ATOM      2  N   UNL     1      40.862 -13.457 -14.380  0.00  0.00    +0.382 N 
ATOM      3  H   UNL     1      41.263 -14.153 -13.751  0.00  0.00    -0.089 HD
ATOM      4  H   UNL     1      39.906 -13.722 -14.615  0.00  0.00    -0.089 HD
ATOM      5  H   UNL     1      40.860 -12.545 -13.921  0.00  0.00    -0.089 HD
ENDBRANCH   1   2
BRANCH   1   6
ATOM      6  C   UNL     1      41.492 -14.638 -16.469  0.00  0.00    +0.089 C 
ATOM      7  C   UNL     1      41.193 -14.357 -17.937  0.00  0.00    +0.029 C 
BRANCH   6   8
ATOM      8  O   UNL     1      40.443 -15.425 -15.910  0.00  0.00    -0.387 OA
ATOM      9  H   UNL     1      40.789 -15.944 -15.169  0.00  0.00    +0.210 HD
ENDBRANCH   6   8
ENDBRANCH   1   6
TORSDOF 3
ENDMDL
MODEL 4
REMARK VINA RESULT:      -3.2     12.799     12.904
REMARK  Name = 7311735
REMARK  3 active torsions:
REMARK  status: ('A' for Active; 'I' for Inactive)
REMARK    1  A    between atoms: C_1  and  N_2
REMARK    2  A    between atoms: C_1  and  C_6
REMARK    3  A    between atoms: C_6  and  O_8
REMARK                            x       y       z     vdW  Elec       q    Type
REMARK                         _______ _______ _______ _____ _____    ______ ____
ROOT
ATOM      1  C   UNL     1      35.003 -17.005 -21.403  0.00  0.00    -0.056 C 
ENDROOT
BRANCH   1   2
ATOM      2  N   UNL     1      35.647 -18.186 -20.777  0.00  0.00    +0.382 N 
ATOM      3  H   UNL     1      36.317 -17.874 -20.072  0.00  0.00    -0.089 HD
ATOM      4  H   UNL     1      36.133 -18.727 -21.492  0.00  0.00    -0.089 HD
ATOM      5  H   UNL     1      34.935 -18.767 -20.334  0.00  0.00    -0.089 HD
ENDBRANCH   1   2
BRANCH   1   6
ATOM      6  C   UNL     1      34.915 -17.167 -22.917  0.00  0.00    +0.089 C 
ATOM      7  C   UNL     1      35.364 -18.532 -23.424  0.00  0.00    +0.029 C 
BRANCH   6   8
ATOM      8  O   UNL     1      35.695 -16.147 -23.537  0.00  0.00    -0.387 OA
ATOM      9  H   UNL     1      36.388 -15.854 -22.927  0.00  0.00    +0.210 HD
ENDBRANCH   6   8
ENDBRANCH   1   6
TORSDOF 3
ENDMDL
MODEL 5
REMARK VINA RESULT:      -3.2      2.173      2.192
REMARK  Name = 7311735
REMARK  3 active torsions:
REMARK  status: ('A' for Active; 'I' for Inactive)
REMARK    1  A    between atoms: C_1  and  N_2
REMARK    2  A    between atoms: C_1  and  C_6
REMARK    3  A    between atoms: C_6  and  O_8
REMARK                            x       y       z     vdW  Elec       q    Type
REMARK                         _______ _______ _______ _____ _____    ______ ____
ROOT
ATOM      1  C   UNL     1      36.947 -25.727 -14.924  0.00  0.00    -0.056 C 
ENDROOT
BRANCH   1   2
ATOM      2  N   UNL     1      36.143 -26.930 -15.253  0.00  0.00    +0.382 N 
ATOM      3  H   UNL     1      35.669 -27.262 -14.412  0.00  0.00    -0.089 HD
ATOM      4  H   UNL     1      36.757 -27.663 -15.609  0.00  0.00    -0.089 HD
ATOM      5  H   UNL     1      35.449 -26.692 -15.963  0.00  0.00    -0.089 HD
ENDBRANCH   1   2
BRANCH   1   6
ATOM      6  C   UNL     1      38.362 -26.111 -14.504  0.00  0.00    +0.089 C 
ATOM      7  C   UNL     1      38.836 -25.435 -13.223  0.00  0.00    +0.029 C 
BRANCH   6   8
ATOM      8  O   UNL     1      39.260 -25.803 -15.567  0.00  0.00    -0.387 OA
ATOM      9  H   UNL     1      38.810 -25.246 -16.219  0.00  0.00    +0.210 HD
ENDBRANCH   6   8
ENDBRANCH   1   6
TORSDOF 3
ENDMDL
MODEL 6
REMARK VINA RESULT:      -3.2      9.743      9.859
REMARK  Name = 7311735
REMARK  3 active torsions:
REMARK  status: ('A' for Active; 'I' for Inactive)
REMARK    1  A    between atoms: C_1  and  N_2
REMARK    2  A    between atoms: C_1  and  C_6
REMARK    3  A    between atoms: C_6  and  O_8
REMARK                            x       y       z     vdW  Elec       q    Type
REMARK                         _______ _______ _______ _____ _____    ______ ____
ROOT
ATOM      1  C   UNL     1      33.151 -19.901 -20.714  0.00  0.00    -0.056 C 
ENDROOT
BRANCH   1   2
ATOM      2  N   UNL     1      32.707 -20.754 -19.583  0.00  0.00    +0.382 N 
ATOM      3  H   UNL     1      33.481 -20.884 -18.931  0.00  0.00    -0.089 HD
ATOM      4  H   UNL     1      32.406 -21.661 -19.939  0.00  0.00    -0.089 HD
ATOM      5  H   UNL     1      31.929 -20.302 -19.102  0.00  0.00    -0.089 HD
ENDBRANCH   1   2
BRANCH   1   6
ATOM      6  C   UNL     1      34.666 -19.960 -20.882  0.00  0.00    +0.089 C 
ATOM      7  C   UNL     1      35.360 -20.936 -19.941  0.00  0.00    +0.029 C 
BRANCH   6   8
ATOM      8  O   UNL     1      35.202 -18.652 -20.695  0.00  0.00    -0.387 OA
ATOM      9  H   UNL     1      36.028 -18.567 -21.194  0.00  0.00    +0.210 HD
ENDBRANCH   6   8
ENDBRANCH   1   6
TORSDOF 3
ENDMDL
MODEL 7
REMARK VINA RESULT:      -3.1      2.869      3.061
REMARK  Name = 7311735
REMARK  3 active torsions:
REMARK  status: ('A' for Active; 'I' for Inactive)
REMARK    1  A    between atoms: C_1  and  N_2
REMARK    2  A    between atoms: C_1  and  C_6
REMARK    3  A    between atoms: C_6  and  O_8
REMARK                            x       y       z     vdW  Elec       q    Type
REMARK                         _______ _______ _______ _____ _____    ______ ____
ROOT
ATOM      1  C   UNL     1      40.045 -25.523 -14.369  0.00  0.00    -0.056 C 
ENDROOT
BRANCH   1   2
ATOM      2  N   UNL     1      40.871 -26.733 -14.131  0.00  0.00    +0.382 N 
ATOM      3  H   UNL     1      40.262 -27.524 -13.919  0.00  0.00    -0.089 HD
ATOM      4  H   UNL     1      41.499 -26.568 -13.345  0.00  0.00    -0.089 HD
ATOM      5  H   UNL     1      41.418 -26.941 -14.967  0.00  0.00    -0.089 HD
ENDBRANCH   1   2
BRANCH   1   6
ATOM      6  C   UNL     1      38.563 -25.824 -14.175  0.00  0.00    +0.089 C 
ATOM      7  C   UNL     1      38.090 -25.720 -12.730  0.00  0.00    +0.029 C 
BRANCH   6   8
ATOM      8  O   UNL     1      38.287 -27.131 -14.675  0.00  0.00    -0.387 OA
ATOM      9  H   UNL     1      38.518 -27.789 -14.003  0.00  0.00    +0.210 HD
ENDBRANCH   6   8
ENDBRANCH   1   6
TORSDOF 3
ENDMDL
MODEL 8
REMARK VINA RESULT:      -3.1     11.188     11.319
REMARK  Name = 7311735
REMARK  3 active torsions:
REMARK  status: ('A' for Active; 'I' for Inactive)
REMARK    1  A    between atoms: C_1  and  N_2
REMARK    2  A    between atoms: C_1  and  C_6
REMARK    3  A    between atoms: C_6  and  O_8
REMARK                            x       y       z     vdW  Elec       q    Type
REMARK                         _______ _______ _______ _____ _____    ______ ____
ROOT
ATOM      1  C   UNL     1      34.846 -19.032 -22.849  0.00  0.00    -0.056 C 
ENDROOT
BRANCH   1   2
ATOM      2  N   UNL     1      35.991 -18.190 -23.278  0.00  0.00    +0.382 N 
ATOM      3  H   UNL     1      36.333 -17.650 -22.483  0.00  0.00    -0.089 HD
ATOM      4  H   UNL     1      35.688 -17.554 -24.016  0.00  0.00    -0.089 HD
ATOM      5  H   UNL     1      36.739 -18.788 -23.631  0.00  0.00    -0.089 HD
ENDBRANCH   1   2
BRANCH   1   6
ATOM      6  C   UNL     1      35.007 -19.478 -21.400  0.00  0.00    +0.089 C 
ATOM      7  C   UNL     1      33.704 -19.891 -20.727  0.00  0.00    +0.029 C 
BRANCH   6   8
ATOM      8  O   UNL     1      35.615 -18.424 -20.657  0.00  0.00    -0.387 OA
ATOM      9  H   UNL     1      35.895 -17.722 -21.262  0.00  0.00    +0.210 HD
ENDBRANCH   6   8
ENDBRANCH   1   6
TORSDOF 3
ENDMDL
MODEL 9
REMARK VINA RESULT:      -3.1     11.844     12.148
REMARK  Name = 7311735
REMARK  3 active torsions:
REMARK  status: ('A' for Active; 'I' for Inactive)
REMARK    1  A    between atoms: C_1  and  N_2
REMARK    2  A    between atoms: C_1  and  C_6
REMARK    3  A    between atoms: C_6  and  O_8
REMARK                            x       y       z     vdW  Elec       q    Type
REMARK                         _______ _______ _______ _____ _____    ______ ____
ROOT
ATOM      1  C   UNL     1      42.058 -15.222 -17.547  0.00  0.00    -0.056 C 
ENDROOT
BRANCH   1   2
ATOM      2  N   UNL     1      41.074 -14.244 -18.075  0.00  0.00    +0.382 N 
ATOM      3  H   UNL     1      40.146 -14.669 -18.091  0.00  0.00    -0.089 HD
ATOM      4  H   UNL     1      41.339 -13.972 -19.022  0.00  0.00    -0.089 HD
ATOM      5  H   UNL     1      41.059 -13.419 -17.475  0.00  0.00    -0.089 HD
ENDBRANCH   1   2
BRANCH   1   6
ATOM      6  C   UNL     1      41.535 -15.898 -16.285  0.00  0.00    +0.089 C 
ATOM      7  C   UNL     1      41.004 -14.931 -15.234  0.00  0.00    +0.029 C 
BRANCH   6   8
ATOM      8  O   UNL     1      42.576 -16.692 -15.721  0.00  0.00    -0.387 OA
ATOM      9  H   UNL     1      42.920 -17.299 -16.393  0.00  0.00    +0.210 HD
ENDBRANCH   6   8
ENDBRANCH   1   6
TORSDOF 3
ENDMDL
