MODEL 1
REMARK VINA RESULT:      -9.5      0.000      0.000
REMARK  Name = 11840933
REMARK  11 active torsions:
REMARK  status: ('A' for Active; 'I' for Inactive)
REMARK    1  A    between atoms: C_1  and  C_4
REMARK    2  A    between atoms: C_1  and  N_11
REMARK    3  A    between atoms: C_1  and  C_26
REMARK    4  A    between atoms: N_3  and  C_6
REMARK    5  A    between atoms: C_6  and  C_10
REMARK    6  A    between atoms: N_11  and  C_14
REMARK    7  A    between atoms: C_14  and  C_16
REMARK    8  A    between atoms: C_14  and  C_25
REMARK    9  A    between atoms: C_26  and  S_27
REMARK   10  A    between atoms: S_27  and  C_30
REMARK   11  A    between atoms: C_30  and  C_33
REMARK                            x       y       z     vdW  Elec       q    Type
REMARK                         _______ _______ _______ _____ _____    ______ ____
ROOT
ATOM      1  C   UNL     1      34.010 -23.651 -15.189  0.00  0.00    +0.042 C 
ENDROOT
BRANCH   1   4
ATOM      2  O   UNL     1      35.740 -22.988 -16.752  0.00  0.00    -0.277 OA
ATOM      3  N   UNL     1      33.555 -23.147 -17.515  0.00  0.00    -0.297 N 
ATOM      4  C   UNL     1      34.552 -23.236 -16.552  0.00  0.00    +0.205 C 
ATOM      5  H   UNL     1      32.630 -23.367 -17.261  0.00  0.00    +0.150 HD
BRANCH   3   6
ATOM      6  C   UNL     1      33.824 -22.747 -18.867  0.00  0.00    +0.136 C 
ATOM      7  C   UNL     1      33.161 -21.519 -19.412  0.00  0.00    +0.035 C 
ATOM      8  C   UNL     1      34.633 -21.512 -19.119  0.00  0.00    +0.035 C 
BRANCH   6  10
ATOM      9  N   UNL     1      34.157 -24.756 -20.478  0.00  0.00    -0.194 NA
ATOM     10  C   UNL     1      34.008 -23.857 -19.758  0.00  0.00    +0.090 C 
ENDBRANCH   6  10
ENDBRANCH   3   6
ENDBRANCH   1   4
BRANCH   1  11
ATOM     11  N   UNL     1      34.992 -23.188 -14.210  0.00  0.00    +0.401 N 
ATOM     12  H   UNL     1      34.559 -22.489 -13.606  0.00  0.00    -0.083 HD
ATOM     13  H   UNL     1      35.786 -22.784 -14.707  0.00  0.00    -0.083 HD
BRANCH  11  14
ATOM     14  C   UNL     1      35.466 -24.295 -13.394  0.00  0.00    +0.059 C 
BRANCH  14  16
ATOM     15  F   UNL     1      40.473 -26.160 -15.140  0.00  0.00    -0.204 F 
ATOM     16  C   UNL     1      36.817 -24.798 -13.865  0.00  0.00    -0.034 C 
ATOM     17  C   UNL     1      37.700 -23.908 -14.449  0.00  0.00    -0.004 C 
ATOM     18  C   UNL     1      37.132 -26.135 -13.699  0.00  0.00    -0.004 C 
ATOM     19  C   UNL     1      38.942 -24.371 -14.881  0.00  0.00    +0.029 C 
ATOM     20  C   UNL     1      38.374 -26.597 -14.132  0.00  0.00    +0.029 C 
ATOM     21  C   UNL     1      39.280 -25.716 -14.723  0.00  0.00    +0.140 C 
ENDBRANCH  14  16
BRANCH  14  25
ATOM     22  F   UNL     1      34.270 -23.393 -11.558  0.00  0.00    -0.172 F 
ATOM     23  F   UNL     1      35.682 -24.993 -11.135  0.00  0.00    -0.172 F 
ATOM     24  F   UNL     1      36.412 -22.994 -11.622  0.00  0.00    -0.172 F 
ATOM     25  C   UNL     1      35.468 -23.911 -11.918  0.00  0.00    +0.384 C 
ENDBRANCH  14  25
ENDBRANCH  11  14
ENDBRANCH   1  11
BRANCH   1  26
ATOM     26  C   UNL     1      32.659 -23.011 -14.886  0.00  0.00    +0.139 C 
BRANCH  26  27
ATOM     27  S   UNL     1      31.566 -24.138 -14.073  0.00  0.00    -0.010 S 
ATOM     28  O   UNL     1      32.203 -25.442 -14.040  0.00  0.00    -0.173 OA
ATOM     29  O   UNL     1      31.097 -23.510 -12.850  0.00  0.00    -0.173 OA
BRANCH  27  30
ATOM     30  C   UNL     1      30.184 -24.242 -15.187  0.00  0.00    +0.170 C 
BRANCH  30  33
ATOM     31  O   UNL     1      27.163 -23.017 -18.097  0.00  0.00    -0.275 OA
ATOM     32  N   UNL     1      29.303 -23.073 -17.148  0.00  0.00    -0.304 N 
ATOM     33  C   UNL     1      29.892 -22.899 -15.842  0.00  0.00    +0.096 C 
ATOM     34  C   UNL     1      28.827 -22.101 -15.100  0.00  0.00    +0.031 C 
ATOM     35  C   UNL     1      27.514 -22.542 -15.741  0.00  0.00    +0.087 C 
ATOM     36  C   UNL     1      27.924 -22.889 -17.151  0.00  0.00    +0.223 C 
ATOM     37  H   UNL     1      29.823 -23.298 -17.952  0.00  0.00    +0.149 HD
ENDBRANCH  30  33
ENDBRANCH  27  30
ENDBRANCH  26  27
ENDBRANCH   1  26
TORSDOF 11
ENDMDL
MODEL 2
REMARK VINA RESULT:      -9.4     11.432     14.561
REMARK  Name = 11840933
REMARK  11 active torsions:
REMARK  status: ('A' for Active; 'I' for Inactive)
REMARK    1  A    between atoms: C_1  and  C_4
REMARK    2  A    between atoms: C_1  and  N_11
REMARK    3  A    between atoms: C_1  and  C_26
REMARK    4  A    between atoms: N_3  and  C_6
REMARK    5  A    between atoms: C_6  and  C_10
REMARK    6  A    between atoms: N_11  and  C_14
REMARK    7  A    between atoms: C_14  and  C_16
REMARK    8  A    between atoms: C_14  and  C_25
REMARK    9  A    between atoms: C_26  and  S_27
REMARK   10  A    between atoms: S_27  and  C_30
REMARK   11  A    between atoms: C_30  and  C_33
REMARK                            x       y       z     vdW  Elec       q    Type
REMARK                         _______ _______ _______ _____ _____    ______ ____
ROOT
ATOM      1  C   UNL     1      32.862 -12.692 -22.404  0.00  0.00    +0.042 C 
ENDROOT
BRANCH   1   4
ATOM      2  O   UNL     1      34.218 -12.144 -24.338  0.00  0.00    -0.277 OA
ATOM      3  N   UNL     1      32.821 -13.992 -24.448  0.00  0.00    -0.297 N 
ATOM      4  C   UNL     1      33.392 -12.894 -23.819  0.00  0.00    +0.205 C 
ATOM      5  H   UNL     1      32.168 -14.536 -23.951  0.00  0.00    +0.150 HD
BRANCH   3   6
ATOM      6  C   UNL     1      33.146 -14.364 -25.795  0.00  0.00    +0.136 C 
ATOM      7  C   UNL     1      32.178 -14.048 -26.895  0.00  0.00    +0.035 C 
ATOM      8  C   UNL     1      33.472 -13.294 -26.793  0.00  0.00    +0.035 C 
BRANCH   6  10
ATOM      9  N   UNL     1      34.461 -16.597 -25.951  0.00  0.00    -0.194 NA
ATOM     10  C   UNL     1      33.873 -15.598 -25.881  0.00  0.00    +0.090 C 
ENDBRANCH   6  10
ENDBRANCH   3   6
ENDBRANCH   1   4
BRANCH   1  11
ATOM     11  N   UNL     1      31.886 -11.607 -22.494  0.00  0.00    +0.401 N 
ATOM     12  H   UNL     1      30.946 -11.997 -22.426  0.00  0.00    -0.083 HD
ATOM     13  H   UNL     1      32.008 -11.129 -23.387  0.00  0.00    -0.083 HD
BRANCH  11  14
ATOM     14  C   UNL     1      32.083 -10.647 -21.419  0.00  0.00    +0.059 C 
BRANCH  14  16
ATOM     15  F   UNL     1      31.771  -5.353 -23.279  0.00  0.00    -0.204 F 
ATOM     16  C   UNL     1      31.999  -9.219 -21.922  0.00  0.00    -0.034 C 
ATOM     17  C   UNL     1      32.684  -8.227 -21.244  0.00  0.00    -0.004 C 
ATOM     18  C   UNL     1      31.239  -8.944 -23.044  0.00  0.00    -0.004 C 
ATOM     19  C   UNL     1      32.606  -6.913 -21.706  0.00  0.00    +0.029 C 
ATOM     20  C   UNL     1      31.162  -7.630 -23.506  0.00  0.00    +0.029 C 
ATOM     21  C   UNL     1      31.846  -6.614 -22.836  0.00  0.00    +0.140 C 
ENDBRANCH  14  16
BRANCH  14  25
ATOM     22  F   UNL     1      29.921 -11.346 -20.746  0.00  0.00    -0.172 F 
ATOM     23  F   UNL     1      31.588 -11.893 -19.460  0.00  0.00    -0.172 F 
ATOM     24  F   UNL     1      30.886  -9.826 -19.517  0.00  0.00    -0.172 F 
ATOM     25  C   UNL     1      31.115 -10.920 -20.272  0.00  0.00    +0.384 C 
ENDBRANCH  14  25
ENDBRANCH  11  14
ENDBRANCH   1  11
BRANCH   1  26
ATOM     26  C   UNL     1      32.176 -13.941 -21.860  0.00  0.00    +0.139 C 
BRANCH  26  27
ATOM     27  S   UNL     1      33.271 -14.914 -20.871  0.00  0.00    -0.010 S 
ATOM     28  O   UNL     1      34.551 -14.232 -20.809  0.00  0.00    -0.173 OA
ATOM     29  O   UNL     1      32.570 -15.287 -19.655  0.00  0.00    -0.173 OA
BRANCH  27  30
ATOM     30  C   UNL     1      33.493 -16.389 -21.838  0.00  0.00    +0.170 C 
BRANCH  30  33
ATOM     31  O   UNL     1      35.711 -19.774 -20.189  0.00  0.00    -0.275 OA
ATOM     32  N   UNL     1      35.374 -17.530 -20.768  0.00  0.00    -0.304 N 
ATOM     33  C   UNL     1      34.960 -16.782 -21.931  0.00  0.00    +0.096 C 
ATOM     34  C   UNL     1      35.239 -17.756 -23.069  0.00  0.00    +0.031 C 
ATOM     35  C   UNL     1      35.054 -19.133 -22.438  0.00  0.00    +0.087 C 
ATOM     36  C   UNL     1      35.437 -18.900 -20.997  0.00  0.00    +0.223 C 
ATOM     37  H   UNL     1      35.590 -17.113 -19.903  0.00  0.00    +0.149 HD
ENDBRANCH  30  33
ENDBRANCH  27  30
ENDBRANCH  26  27
ENDBRANCH   1  26
TORSDOF 11
ENDMDL
MODEL 3
REMARK VINA RESULT:      -9.0      3.004      7.505
REMARK  Name = 11840933
REMARK  11 active torsions:
REMARK  status: ('A' for Active; 'I' for Inactive)
REMARK    1  A    between atoms: C_1  and  C_4
REMARK    2  A    between atoms: C_1  and  N_11
REMARK    3  A    between atoms: C_1  and  C_26
REMARK    4  A    between atoms: N_3  and  C_6
REMARK    5  A    between atoms: C_6  and  C_10
REMARK    6  A    between atoms: N_11  and  C_14
REMARK    7  A    between atoms: C_14  and  C_16
REMARK    8  A    between atoms: C_14  and  C_25
REMARK    9  A    between atoms: C_26  and  S_27
REMARK   10  A    between atoms: S_27  and  C_30
REMARK   11  A    between atoms: C_30  and  C_33
REMARK                            x       y       z     vdW  Elec       q    Type
REMARK                         _______ _______ _______ _____ _____    ______ ____
ROOT
ATOM      1  C   UNL     1      33.685 -23.353 -16.220  0.00  0.00    +0.042 C 
ENDROOT
BRANCH   1   4
ATOM      2  O   UNL     1      33.426 -23.909 -18.566  0.00  0.00    -0.277 OA
ATOM      3  N   UNL     1      34.457 -21.908 -18.006  0.00  0.00    -0.297 N 
ATOM      4  C   UNL     1      33.821 -23.109 -17.720  0.00  0.00    +0.205 C 
ATOM      5  H   UNL     1      34.737 -21.330 -17.260  0.00  0.00    +0.150 HD
BRANCH   3   6
ATOM      6  C   UNL     1      34.720 -21.477 -19.350  0.00  0.00    +0.136 C 
ATOM      7  C   UNL     1      36.054 -20.879 -19.677  0.00  0.00    +0.035 C 
ATOM      8  C   UNL     1      35.698 -22.245 -20.187  0.00  0.00    +0.035 C 
BRANCH   6  10
ATOM      9  N   UNL     1      32.632 -20.491 -20.536  0.00  0.00    -0.194 NA
ATOM     10  C   UNL     1      33.566 -20.933 -20.005  0.00  0.00    +0.090 C 
ENDBRANCH   6  10
ENDBRANCH   3   6
ENDBRANCH   1   4
BRANCH   1  11
ATOM     11  N   UNL     1      32.495 -24.185 -16.057  0.00  0.00    +0.401 N 
ATOM     12  H   UNL     1      32.780 -25.135 -15.819  0.00  0.00    -0.083 HD
ATOM     13  H   UNL     1      31.969 -24.182 -16.932  0.00  0.00    -0.083 HD
BRANCH  11  14
ATOM     14  C   UNL     1      31.644 -23.663 -14.999  0.00  0.00    +0.059 C 
BRANCH  14  16
ATOM     15  F   UNL     1      26.533 -22.321 -16.915  0.00  0.00    -0.204 F 
ATOM     16  C   UNL     1      30.265 -23.301 -15.517  0.00  0.00    -0.034 C 
ATOM     17  C   UNL     1      29.558 -22.290 -14.893  0.00  0.00    -0.004 C 
ATOM     18  C   UNL     1      29.750 -23.992 -16.598  0.00  0.00    -0.004 C 
ATOM     19  C   UNL     1      28.290 -21.957 -15.369  0.00  0.00    +0.029 C 
ATOM     20  C   UNL     1      28.482 -23.659 -17.074  0.00  0.00    +0.029 C 
ATOM     21  C   UNL     1      27.751 -22.641 -16.459  0.00  0.00    +0.140 C 
ENDBRANCH  14  16
BRANCH  14  25
ATOM     22  F   UNL     1      30.963 -24.073 -12.767  0.00  0.00    -0.172 F 
ATOM     23  F   UNL     1      30.894 -25.750 -14.150  0.00  0.00    -0.172 F 
ATOM     24  F   UNL     1      32.816 -25.020 -13.415  0.00  0.00    -0.172 F 
ATOM     25  C   UNL     1      31.590 -24.636 -13.826  0.00  0.00    +0.384 C 
ENDBRANCH  14  25
ENDBRANCH  11  14
ENDBRANCH   1  11
BRANCH   1  26
ATOM     26  C   UNL     1      34.893 -24.086 -15.644  0.00  0.00    +0.139 C 
BRANCH  26  27
ATOM     27  S   UNL     1      36.277 -23.007 -15.436  0.00  0.00    -0.010 S 
ATOM     28  O   UNL     1      37.139 -23.148 -16.595  0.00  0.00    -0.173 OA
ATOM     29  O   UNL     1      35.778 -21.702 -15.039  0.00  0.00    -0.173 OA
BRANCH  27  30
ATOM     30  C   UNL     1      37.131 -23.702 -14.040  0.00  0.00    +0.170 C 
BRANCH  30  33
ATOM     31  O   UNL     1      40.549 -25.824 -15.749  0.00  0.00    -0.275 OA
ATOM     32  N   UNL     1      38.275 -25.408 -15.370  0.00  0.00    -0.304 N 
ATOM     33  C   UNL     1      37.409 -25.186 -14.238  0.00  0.00    +0.096 C 
ATOM     34  C   UNL     1      38.201 -25.795 -13.088  0.00  0.00    +0.031 C 
ATOM     35  C   UNL     1      39.659 -25.610 -13.498  0.00  0.00    +0.087 C 
ATOM     36  C   UNL     1      39.596 -25.649 -15.005  0.00  0.00    +0.223 C 
ATOM     37  H   UNL     1      37.964 -25.391 -16.303  0.00  0.00    +0.149 HD
ENDBRANCH  30  33
ENDBRANCH  27  30
ENDBRANCH  26  27
ENDBRANCH   1  26
TORSDOF 11
ENDMDL
MODEL 4
REMARK VINA RESULT:      -8.9     11.980     15.030
REMARK  Name = 11840933
REMARK  11 active torsions:
REMARK  status: ('A' for Active; 'I' for Inactive)
REMARK    1  A    between atoms: C_1  and  C_4
REMARK    2  A    between atoms: C_1  and  N_11
REMARK    3  A    between atoms: C_1  and  C_26
REMARK    4  A    between atoms: N_3  and  C_6
REMARK    5  A    between atoms: C_6  and  C_10
REMARK    6  A    between atoms: N_11  and  C_14
REMARK    7  A    between atoms: C_14  and  C_16
REMARK    8  A    between atoms: C_14  and  C_25
REMARK    9  A    between atoms: C_26  and  S_27
REMARK   10  A    between atoms: S_27  and  C_30
REMARK   11  A    between atoms: C_30  and  C_33
REMARK                            x       y       z     vdW  Elec       q    Type
REMARK                         _______ _______ _______ _____ _____    ______ ____
ROOT
ATOM      1  C   UNL     1      32.806 -12.267 -22.639  0.00  0.00    +0.042 C 
ENDROOT
BRANCH   1   4
ATOM      2  O   UNL     1      33.269 -10.519 -24.254  0.00  0.00    -0.277 OA
ATOM      3  N   UNL     1      33.414 -12.731 -24.938  0.00  0.00    -0.297 N 
ATOM      4  C   UNL     1      33.192 -11.722 -24.010  0.00  0.00    +0.205 C 
ATOM      5  H   UNL     1      33.329 -13.668 -24.649  0.00  0.00    +0.150 HD
BRANCH   3   6
ATOM      6  C   UNL     1      33.763 -12.458 -26.303  0.00  0.00    +0.136 C 
ATOM      7  C   UNL     1      33.755 -13.579 -27.298  0.00  0.00    +0.035 C 
ATOM      8  C   UNL     1      32.699 -12.514 -27.357  0.00  0.00    +0.035 C 
BRANCH   6  10
ATOM      9  N   UNL     1      35.604 -10.644 -26.546  0.00  0.00    -0.194 NA
ATOM     10  C   UNL     1      34.781 -11.455 -26.437  0.00  0.00    +0.090 C 
ENDBRANCH   6  10
ENDBRANCH   3   6
ENDBRANCH   1   4
BRANCH   1  11
ATOM     11  N   UNL     1      31.742 -11.394 -22.147  0.00  0.00    +0.401 N 
ATOM     12  H   UNL     1      30.962 -11.966 -21.824  0.00  0.00    -0.083 HD
ATOM     13  H   UNL     1      31.442 -10.781 -22.906  0.00  0.00    -0.083 HD
BRANCH  11  14
ATOM     14  C   UNL     1      32.219 -10.572 -21.046  0.00  0.00    +0.059 C 
BRANCH  14  16
ATOM     15  F   UNL     1      31.518  -5.093 -22.086  0.00  0.00    -0.204 F 
ATOM     16  C   UNL     1      32.030  -9.094 -21.327  0.00  0.00    -0.034 C 
ATOM     17  C   UNL     1      32.497  -8.170 -20.410  0.00  0.00    -0.004 C 
ATOM     18  C   UNL     1      31.394  -8.707 -22.492  0.00  0.00    -0.004 C 
ATOM     19  C   UNL     1      32.324  -6.811 -20.669  0.00  0.00    +0.029 C 
ATOM     20  C   UNL     1      31.220  -7.347 -22.751  0.00  0.00    +0.029 C 
ATOM     21  C   UNL     1      31.685  -6.399 -21.838  0.00  0.00    +0.140 C 
ENDBRANCH  14  16
BRANCH  14  25
ATOM     22  F   UNL     1      31.651 -12.346 -19.581  0.00  0.00    -0.172 F 
ATOM     23  F   UNL     1      32.199 -10.447 -18.675  0.00  0.00    -0.172 F 
ATOM     24  F   UNL     1      30.266 -10.665 -19.666  0.00  0.00    -0.172 F 
ATOM     25  C   UNL     1      31.570 -11.004 -19.735  0.00  0.00    +0.384 C 
ENDBRANCH  14  25
ENDBRANCH  11  14
ENDBRANCH   1  11
BRANCH   1  26
ATOM     26  C   UNL     1      32.286 -13.699 -22.712  0.00  0.00    +0.139 C 
BRANCH  26  27
ATOM     27  S   UNL     1      33.398 -14.841 -21.946  0.00  0.00    -0.010 S 
ATOM     28  O   UNL     1      34.597 -14.117 -21.564  0.00  0.00    -0.173 OA
ATOM     29  O   UNL     1      32.651 -15.608 -20.965  0.00  0.00    -0.173 OA
BRANCH  27  30
ATOM     30  C   UNL     1      33.831 -15.941 -23.273  0.00  0.00    +0.170 C 
BRANCH  30  33
ATOM     31  O   UNL     1      34.840 -19.193 -20.534  0.00  0.00    -0.275 OA
ATOM     32  N   UNL     1      35.187 -17.158 -21.640  0.00  0.00    -0.304 N 
ATOM     33  C   UNL     1      35.142 -16.664 -22.995  0.00  0.00    +0.096 C 
ATOM     34  C   UNL     1      35.300 -17.935 -23.820  0.00  0.00    +0.031 C 
ATOM     35  C   UNL     1      34.677 -19.024 -22.952  0.00  0.00    +0.087 C 
ATOM     36  C   UNL     1      34.915 -18.519 -21.549  0.00  0.00    +0.223 C 
ATOM     37  H   UNL     1      35.390 -16.592 -20.862  0.00  0.00    +0.149 HD
ENDBRANCH  30  33
ENDBRANCH  27  30
ENDBRANCH  26  27
ENDBRANCH   1  26
TORSDOF 11
ENDMDL
MODEL 5
REMARK VINA RESULT:      -8.9      3.032      7.544
REMARK  Name = 11840933
REMARK  11 active torsions:
REMARK  status: ('A' for Active; 'I' for Inactive)
REMARK    1  A    between atoms: C_1  and  C_4
REMARK    2  A    between atoms: C_1  and  N_11
REMARK    3  A    between atoms: C_1  and  C_26
REMARK    4  A    between atoms: N_3  and  C_6
REMARK    5  A    between atoms: C_6  and  C_10
REMARK    6  A    between atoms: N_11  and  C_14
REMARK    7  A    between atoms: C_14  and  C_16
REMARK    8  A    between atoms: C_14  and  C_25
REMARK    9  A    between atoms: C_26  and  S_27
REMARK   10  A    between atoms: S_27  and  C_30
REMARK   11  A    between atoms: C_30  and  C_33
REMARK                            x       y       z     vdW  Elec       q    Type
REMARK                         _______ _______ _______ _____ _____    ______ ____
ROOT
ATOM      1  C   UNL     1      33.157 -23.376 -16.377  0.00  0.00    +0.042 C 
ENDROOT
BRANCH   1   4
ATOM      2  O   UNL     1      32.248 -22.735 -18.531  0.00  0.00    -0.277 OA
ATOM      3  N   UNL     1      34.451 -22.193 -18.049  0.00  0.00    -0.297 N 
ATOM      4  C   UNL     1      33.207 -22.737 -17.761  0.00  0.00    +0.205 C 
ATOM      5  H   UNL     1      35.160 -22.241 -17.367  0.00  0.00    +0.150 HD
BRANCH   3   6
ATOM      6  C   UNL     1      34.743 -21.561 -19.305  0.00  0.00    +0.136 C 
ATOM      7  C   UNL     1      36.120 -21.025 -19.550  0.00  0.00    +0.035 C 
ATOM      8  C   UNL     1      35.651 -22.250 -20.278  0.00  0.00    +0.035 C 
BRANCH   6  10
ATOM      9  N   UNL     1      32.738 -20.223 -20.267  0.00  0.00    -0.194 NA
ATOM     10  C   UNL     1      33.634 -20.822 -19.837  0.00  0.00    +0.090 C 
ENDBRANCH   6  10
ENDBRANCH   3   6
ENDBRANCH   1   4
BRANCH   1  11
ATOM     11  N   UNL     1      31.908 -24.133 -16.331  0.00  0.00    +0.401 N 
ATOM     12  H   UNL     1      32.121 -25.126 -16.239  0.00  0.00    -0.083 HD
ATOM     13  H   UNL     1      31.387 -23.961 -17.191  0.00  0.00    -0.083 HD
BRANCH  11  14
ATOM     14  C   UNL     1      31.094 -23.714 -15.200  0.00  0.00    +0.059 C 
BRANCH  14  16
ATOM     15  F   UNL     1      26.048 -21.866 -16.849  0.00  0.00    -0.204 F 
ATOM     16  C   UNL     1      29.732 -23.216 -15.644  0.00  0.00    -0.034 C 
ATOM     17  C   UNL     1      29.243 -23.606 -16.877  0.00  0.00    -0.004 C 
ATOM     18  C   UNL     1      29.015 -22.382 -14.806  0.00  0.00    -0.004 C 
ATOM     19  C   UNL     1      27.991 -23.148 -17.286  0.00  0.00    +0.029 C 
ATOM     20  C   UNL     1      27.763 -21.924 -15.215  0.00  0.00    +0.029 C 
ATOM     21  C   UNL     1      27.251 -22.307 -16.455  0.00  0.00    +0.140 C 
ENDBRANCH  14  16
BRANCH  14  25
ATOM     22  F   UNL     1      30.083 -25.753 -14.542  0.00  0.00    -0.172 F 
ATOM     23  F   UNL     1      32.180 -25.475 -14.036  0.00  0.00    -0.172 F 
ATOM     24  F   UNL     1      30.639 -24.377 -12.946  0.00  0.00    -0.172 F 
ATOM     25  C   UNL     1      30.998 -24.830 -14.165  0.00  0.00    +0.384 C 
ENDBRANCH  14  25
ENDBRANCH  11  14
ENDBRANCH   1  11
BRANCH   1  26
ATOM     26  C   UNL     1      34.328 -24.324 -16.137  0.00  0.00    +0.139 C 
BRANCH  26  27
ATOM     27  S   UNL     1      35.422 -23.715 -14.889  0.00  0.00    -0.010 S 
ATOM     28  O   UNL     1      35.830 -22.372 -15.262  0.00  0.00    -0.173 OA
ATOM     29  O   UNL     1      34.818 -23.973 -13.594  0.00  0.00    -0.173 OA
BRANCH  27  30
ATOM     30  C   UNL     1      36.843 -24.772 -15.040  0.00  0.00    +0.170 C 
BRANCH  30  33
ATOM     31  O   UNL     1      37.213 -24.059 -10.745  0.00  0.00    -0.275 OA
ATOM     32  N   UNL     1      37.531 -23.583 -13.015  0.00  0.00    -0.304 N 
ATOM     33  C   UNL     1      38.003 -24.273 -14.191  0.00  0.00    +0.096 C 
ATOM     34  C   UNL     1      38.832 -25.407 -13.600  0.00  0.00    +0.031 C 
ATOM     35  C   UNL     1      38.162 -25.703 -12.262  0.00  0.00    +0.087 C 
ATOM     36  C   UNL     1      37.587 -24.364 -11.866  0.00  0.00    +0.223 C 
ATOM     37  H   UNL     1      37.202 -22.655 -13.026  0.00  0.00    +0.149 HD
ENDBRANCH  30  33
ENDBRANCH  27  30
ENDBRANCH  26  27
ENDBRANCH   1  26
TORSDOF 11
ENDMDL
MODEL 6
REMARK VINA RESULT:      -8.7     11.786     14.833
REMARK  Name = 11840933
REMARK  11 active torsions:
REMARK  status: ('A' for Active; 'I' for Inactive)
REMARK    1  A    between atoms: C_1  and  C_4
REMARK    2  A    between atoms: C_1  and  N_11
REMARK    3  A    between atoms: C_1  and  C_26
REMARK    4  A    between atoms: N_3  and  C_6
REMARK    5  A    between atoms: C_6  and  C_10
REMARK    6  A    between atoms: N_11  and  C_14
REMARK    7  A    between atoms: C_14  and  C_16
REMARK    8  A    between atoms: C_14  and  C_25
REMARK    9  A    between atoms: C_26  and  S_27
REMARK   10  A    between atoms: S_27  and  C_30
REMARK   11  A    between atoms: C_30  and  C_33
REMARK                            x       y       z     vdW  Elec       q    Type
REMARK                         _______ _______ _______ _____ _____    ______ ____
ROOT
ATOM      1  C   UNL     1      32.940 -12.728 -22.208  0.00  0.00    +0.042 C 
ENDROOT
BRANCH   1   4
ATOM      2  O   UNL     1      34.249 -13.624 -24.042  0.00  0.00    -0.277 OA
ATOM      3  N   UNL     1      33.665 -11.380 -24.086  0.00  0.00    -0.297 N 
ATOM      4  C   UNL     1      33.683 -12.655 -23.538  0.00  0.00    +0.205 C 
ATOM      5  H   UNL     1      33.184 -10.665 -23.609  0.00  0.00    +0.150 HD
BRANCH   3   6
ATOM      6  C   UNL     1      34.323 -11.063 -25.322  0.00  0.00    +0.136 C 
ATOM      7  C   UNL     1      34.582  -9.628 -25.666  0.00  0.00    +0.035 C 
ATOM      8  C   UNL     1      35.723 -10.529 -25.291  0.00  0.00    +0.035 C 
BRANCH   6  10
ATOM      9  N   UNL     1      33.688 -12.672 -27.257  0.00  0.00    -0.194 NA
ATOM     10  C   UNL     1      33.972 -11.952 -26.392  0.00  0.00    +0.090 C 
ENDBRANCH   6  10
ENDBRANCH   3   6
ENDBRANCH   1   4
BRANCH   1  11
ATOM     11  N   UNL     1      31.885 -11.719 -22.283  0.00  0.00    +0.401 N 
ATOM     12  H   UNL     1      30.979 -12.173 -22.169  0.00  0.00    -0.083 HD
ATOM     13  H   UNL     1      31.937 -11.256 -23.191  0.00  0.00    -0.083 HD
BRANCH  11  14
ATOM     14  C   UNL     1      32.053 -10.720 -21.239  0.00  0.00    +0.059 C 
BRANCH  14  16
ATOM     15  F   UNL     1      31.618  -5.497 -23.269  0.00  0.00    -0.204 F 
ATOM     16  C   UNL     1      31.936  -9.312 -21.788  0.00  0.00    -0.034 C 
ATOM     17  C   UNL     1      32.528  -8.270 -21.096  0.00  0.00    -0.004 C 
ATOM     18  C   UNL     1      31.240  -9.103 -22.964  0.00  0.00    -0.004 C 
ATOM     19  C   UNL     1      32.420  -6.974 -21.600  0.00  0.00    +0.029 C 
ATOM     20  C   UNL     1      31.133  -7.807 -23.468  0.00  0.00    +0.029 C 
ATOM     21  C   UNL     1      31.722  -6.742 -22.786  0.00  0.00    +0.140 C 
ENDBRANCH  14  16
BRANCH  14  25
ATOM     22  F   UNL     1      29.853 -11.277 -20.557  0.00  0.00    -0.172 F 
ATOM     23  F   UNL     1      31.492 -12.036 -19.344  0.00  0.00    -0.172 F 
ATOM     24  F   UNL     1      30.965  -9.919 -19.264  0.00  0.00    -0.172 F 
ATOM     25  C   UNL     1      31.088 -10.981 -20.088  0.00  0.00    +0.384 C 
ENDBRANCH  14  25
ENDBRANCH  11  14
ENDBRANCH   1  11
BRANCH   1  26
ATOM     26  C   UNL     1      32.309 -14.097 -21.974  0.00  0.00    +0.139 C 
BRANCH  26  27
ATOM     27  S   UNL     1      33.218 -15.046 -20.791  0.00  0.00    -0.010 S 
ATOM     28  O   UNL     1      34.553 -14.485 -20.692  0.00  0.00    -0.173 OA
ATOM     29  O   UNL     1      32.390 -15.204 -19.608  0.00  0.00    -0.173 OA
BRANCH  27  30
ATOM     30  C   UNL     1      33.358 -16.639 -21.566  0.00  0.00    +0.170 C 
BRANCH  30  33
ATOM     31  O   UNL     1      36.031 -19.827 -20.227  0.00  0.00    -0.275 OA
ATOM     32  N   UNL     1      35.466 -17.633 -20.823  0.00  0.00    -0.304 N 
ATOM     33  C   UNL     1      34.803 -16.965 -21.916  0.00  0.00    +0.096 C 
ATOM     34  C   UNL     1      34.921 -17.980 -23.047  0.00  0.00    +0.031 C 
ATOM     35  C   UNL     1      34.934 -19.331 -22.338  0.00  0.00    +0.087 C 
ATOM     36  C   UNL     1      35.563 -19.009 -21.004  0.00  0.00    +0.223 C 
ATOM     37  H   UNL     1      35.815 -17.164 -20.031  0.00  0.00    +0.149 HD
ENDBRANCH  30  33
ENDBRANCH  27  30
ENDBRANCH  26  27
ENDBRANCH   1  26
TORSDOF 11
ENDMDL
MODEL 7
REMARK VINA RESULT:      -8.6     12.199     15.393
REMARK  Name = 11840933
REMARK  11 active torsions:
REMARK  status: ('A' for Active; 'I' for Inactive)
REMARK    1  A    between atoms: C_1  and  C_4
REMARK    2  A    between atoms: C_1  and  N_11
REMARK    3  A    between atoms: C_1  and  C_26
REMARK    4  A    between atoms: N_3  and  C_6
REMARK    5  A    between atoms: C_6  and  C_10
REMARK    6  A    between atoms: N_11  and  C_14
REMARK    7  A    between atoms: C_14  and  C_16
REMARK    8  A    between atoms: C_14  and  C_25
REMARK    9  A    between atoms: C_26  and  S_27
REMARK   10  A    between atoms: S_27  and  C_30
REMARK   11  A    between atoms: C_30  and  C_33
REMARK                            x       y       z     vdW  Elec       q    Type
REMARK                         _______ _______ _______ _____ _____    ______ ____
ROOT
ATOM      1  C   UNL     1      32.089 -12.698 -22.580  0.00  0.00    +0.042 C 
ENDROOT
BRANCH   1   4
ATOM      2  O   UNL     1      30.280 -11.222 -21.927  0.00  0.00    -0.277 OA
ATOM      3  N   UNL     1      32.163 -11.338 -20.577  0.00  0.00    -0.297 N 
ATOM      4  C   UNL     1      31.392 -11.685 -21.678  0.00  0.00    +0.205 C 
ATOM      5  H   UNL     1      33.042 -11.764 -20.460  0.00  0.00    +0.150 HD
BRANCH   3   6
ATOM      6  C   UNL     1      31.724 -10.380 -19.601  0.00  0.00    +0.136 C 
ATOM      7  C   UNL     1      30.358 -10.519 -19.002  0.00  0.00    +0.035 C 
ATOM      8  C   UNL     1      31.575 -10.806 -18.172  0.00  0.00    +0.035 C 
BRANCH   6  10
ATOM      9  N   UNL     1      32.602  -7.980 -20.057  0.00  0.00    -0.194 NA
ATOM     10  C   UNL     1      32.210  -9.053 -19.854  0.00  0.00    +0.090 C 
ENDBRANCH   6  10
ENDBRANCH   3   6
ENDBRANCH   1   4
BRANCH   1  11
ATOM     11  N   UNL     1      33.305 -12.040 -23.055  0.00  0.00    +0.401 N 
ATOM     12  H   UNL     1      33.996 -12.749 -23.298  0.00  0.00    -0.083 HD
ATOM     13  H   UNL     1      33.662 -11.435 -22.316  0.00  0.00    -0.083 HD
BRANCH  11  14
ATOM     14  C   UNL     1      33.024 -11.227 -24.228  0.00  0.00    +0.059 C 
BRANCH  14  16
ATOM     15  F   UNL     1      33.177  -5.736 -23.035  0.00  0.00    -0.204 F 
ATOM     16  C   UNL     1      33.066  -9.746 -23.906  0.00  0.00    -0.034 C 
ATOM     17  C   UNL     1      31.888  -9.022 -23.919  0.00  0.00    -0.004 C 
ATOM     18  C   UNL     1      34.280  -9.156 -23.608  0.00  0.00    -0.004 C 
ATOM     19  C   UNL     1      31.926  -7.659 -23.622  0.00  0.00    +0.029 C 
ATOM     20  C   UNL     1      34.318  -7.793 -23.312  0.00  0.00    +0.029 C 
ATOM     21  C   UNL     1      33.140  -7.045 -23.319  0.00  0.00    +0.140 C 
ENDBRANCH  14  16
BRANCH  14  25
ATOM     22  F   UNL     1      34.661 -12.717 -25.075  0.00  0.00    -0.172 F 
ATOM     23  F   UNL     1      33.258 -11.866 -26.503  0.00  0.00    -0.172 F 
ATOM     24  F   UNL     1      34.845 -10.625 -25.660  0.00  0.00    -0.172 F 
ATOM     25  C   UNL     1      33.957 -11.601 -25.376  0.00  0.00    +0.384 C 
ENDBRANCH  14  25
ENDBRANCH  11  14
ENDBRANCH   1  11
BRANCH   1  26
ATOM     26  C   UNL     1      32.468 -13.973 -21.833  0.00  0.00    +0.139 C 
BRANCH  26  27
ATOM     27  S   UNL     1      33.741 -14.870 -22.668  0.00  0.00    -0.010 S 
ATOM     28  O   UNL     1      33.290 -15.142 -24.021  0.00  0.00    -0.173 OA
ATOM     29  O   UNL     1      35.003 -14.191 -22.430  0.00  0.00    -0.173 OA
BRANCH  27  30
ATOM     30  C   UNL     1      33.791 -16.418 -21.794  0.00  0.00    +0.170 C 
BRANCH  30  33
ATOM     31  O   UNL     1      35.366 -20.147 -20.150  0.00  0.00    -0.275 OA
ATOM     32  N   UNL     1      35.457 -17.893 -20.779  0.00  0.00    -0.304 N 
ATOM     33  C   UNL     1      35.142 -17.101 -21.943  0.00  0.00    +0.096 C 
ATOM     34  C   UNL     1      35.160 -18.133 -23.064  0.00  0.00    +0.031 C 
ATOM     35  C   UNL     1      34.735 -19.431 -22.384  0.00  0.00    +0.087 C 
ATOM     36  C   UNL     1      35.231 -19.253 -20.970  0.00  0.00    +0.223 C 
ATOM     37  H   UNL     1      35.797 -17.512 -19.938  0.00  0.00    +0.149 HD
ENDBRANCH  30  33
ENDBRANCH  27  30
ENDBRANCH  26  27
ENDBRANCH   1  26
TORSDOF 11
ENDMDL
MODEL 8
REMARK VINA RESULT:      -8.2     10.463     13.705
REMARK  Name = 11840933
REMARK  11 active torsions:
REMARK  status: ('A' for Active; 'I' for Inactive)
REMARK    1  A    between atoms: C_1  and  C_4
REMARK    2  A    between atoms: C_1  and  N_11
REMARK    3  A    between atoms: C_1  and  C_26
REMARK    4  A    between atoms: N_3  and  C_6
REMARK    5  A    between atoms: C_6  and  C_10
REMARK    6  A    between atoms: N_11  and  C_14
REMARK    7  A    between atoms: C_14  and  C_16
REMARK    8  A    between atoms: C_14  and  C_25
REMARK    9  A    between atoms: C_26  and  S_27
REMARK   10  A    between atoms: S_27  and  C_30
REMARK   11  A    between atoms: C_30  and  C_33
REMARK                            x       y       z     vdW  Elec       q    Type
REMARK                         _______ _______ _______ _____ _____    ______ ____
ROOT
ATOM      1  C   UNL     1      33.637 -14.172 -23.858  0.00  0.00    +0.042 C 
ENDROOT
BRANCH   1   4
ATOM      2  O   UNL     1      33.177 -12.761 -25.775  0.00  0.00    -0.277 OA
ATOM      3  N   UNL     1      34.155 -11.805 -23.903  0.00  0.00    -0.297 N 
ATOM      4  C   UNL     1      33.612 -12.856 -24.629  0.00  0.00    +0.205 C 
ATOM      5  H   UNL     1      34.478 -11.977 -22.989  0.00  0.00    +0.150 HD
BRANCH   3   6
ATOM      6  C   UNL     1      34.263 -10.476 -24.434  0.00  0.00    +0.136 C 
ATOM      7  C   UNL     1      33.059  -9.585 -24.426  0.00  0.00    +0.035 C 
ATOM      8  C   UNL     1      34.206  -9.306 -23.499  0.00  0.00    +0.035 C 
BRANCH   6  10
ATOM      9  N   UNL     1      35.868 -10.315 -26.468  0.00  0.00    -0.194 NA
ATOM     10  C   UNL     1      35.151 -10.387 -25.558  0.00  0.00    +0.090 C 
ENDBRANCH   6  10
ENDBRANCH   3   6
ENDBRANCH   1   4
BRANCH   1  11
ATOM     11  N   UNL     1      32.496 -14.122 -22.946  0.00  0.00    +0.401 N 
ATOM     12  H   UNL     1      31.993 -15.008 -22.992  0.00  0.00    -0.083 HD
ATOM     13  H   UNL     1      31.886 -13.354 -23.224  0.00  0.00    -0.083 HD
BRANCH  11  14
ATOM     14  C   UNL     1      32.939 -13.895 -21.579  0.00  0.00    +0.059 C 
BRANCH  14  16
ATOM     15  F   UNL     1      30.220  -9.586 -19.207  0.00  0.00    -0.204 F 
ATOM     16  C   UNL     1      32.205 -12.733 -20.939  0.00  0.00    -0.034 C 
ATOM     17  C   UNL     1      31.427 -11.910 -21.732  0.00  0.00    -0.004 C 
ATOM     18  C   UNL     1      32.333 -12.525 -19.578  0.00  0.00    -0.004 C 
ATOM     19  C   UNL     1      30.753 -10.841 -21.143  0.00  0.00    +0.029 C 
ATOM     20  C   UNL     1      31.658 -11.456 -18.989  0.00  0.00    +0.029 C 
ATOM     21  C   UNL     1      30.868 -10.613 -19.772  0.00  0.00    +0.140 C 
ENDBRANCH  14  16
BRANCH  14  25
ATOM     22  F   UNL     1      31.977 -16.048 -21.347  0.00  0.00    -0.172 F 
ATOM     23  F   UNL     1      34.028 -15.798 -20.669  0.00  0.00    -0.172 F 
ATOM     24  F   UNL     1      32.384 -14.954 -19.506  0.00  0.00    -0.172 F 
ATOM     25  C   UNL     1      32.830 -15.177 -20.760  0.00  0.00    +0.384 C 
ENDBRANCH  14  25
ENDBRANCH  11  14
ENDBRANCH   1  11
BRANCH   1  26
ATOM     26  C   UNL     1      33.495 -15.381 -24.776  0.00  0.00    +0.139 C 
BRANCH  26  27
ATOM     27  S   UNL     1      34.749 -16.589 -24.471  0.00  0.00    -0.010 S 
ATOM     28  O   UNL     1      34.996 -17.308 -25.708  0.00  0.00    -0.173 OA
ATOM     29  O   UNL     1      35.838 -15.940 -23.761  0.00  0.00    -0.173 OA
BRANCH  27  30
ATOM     30  C   UNL     1      33.966 -17.714 -23.339  0.00  0.00    +0.170 C 
BRANCH  30  33
ATOM     31  O   UNL     1      38.005 -18.554 -21.897  0.00  0.00    -0.275 OA
ATOM     32  N   UNL     1      36.167 -18.782 -23.331  0.00  0.00    -0.304 N 
ATOM     33  C   UNL     1      34.748 -19.014 -23.212  0.00  0.00    +0.096 C 
ATOM     34  C   UNL     1      34.628 -19.641 -21.829  0.00  0.00    +0.031 C 
ATOM     35  C   UNL     1      35.782 -19.031 -21.039  0.00  0.00    +0.087 C 
ATOM     36  C   UNL     1      36.821 -18.770 -22.103  0.00  0.00    +0.223 C 
ATOM     37  H   UNL     1      36.625 -18.647 -24.192  0.00  0.00    +0.149 HD
ENDBRANCH  30  33
ENDBRANCH  27  30
ENDBRANCH  26  27
ENDBRANCH   1  26
TORSDOF 11
ENDMDL
MODEL 9
REMARK VINA RESULT:      -8.1     11.741     14.910
REMARK  Name = 11840933
REMARK  11 active torsions:
REMARK  status: ('A' for Active; 'I' for Inactive)
REMARK    1  A    between atoms: C_1  and  C_4
REMARK    2  A    between atoms: C_1  and  N_11
REMARK    3  A    between atoms: C_1  and  C_26
REMARK    4  A    between atoms: N_3  and  C_6
REMARK    5  A    between atoms: C_6  and  C_10
REMARK    6  A    between atoms: N_11  and  C_14
REMARK    7  A    between atoms: C_14  and  C_16
REMARK    8  A    between atoms: C_14  and  C_25
REMARK    9  A    between atoms: C_26  and  S_27
REMARK   10  A    between atoms: S_27  and  C_30
REMARK   11  A    between atoms: C_30  and  C_33
REMARK                            x       y       z     vdW  Elec       q    Type
REMARK                         _______ _______ _______ _____ _____    ______ ____
ROOT
ATOM      1  C   UNL     1      32.189 -13.248 -22.160  0.00  0.00    +0.042 C 
ENDROOT
BRANCH   1   4
ATOM      2  O   UNL     1      30.451 -11.583 -21.867  0.00  0.00    -0.277 OA
ATOM      3  N   UNL     1      32.171 -11.678 -20.314  0.00  0.00    -0.297 N 
ATOM      4  C   UNL     1      31.490 -12.093 -21.450  0.00  0.00    +0.205 C 
ATOM      5  H   UNL     1      32.997 -12.149 -20.058  0.00  0.00    +0.150 HD
BRANCH   3   6
ATOM      6  C   UNL     1      31.717 -10.588 -19.499  0.00  0.00    +0.136 C 
ATOM      7  C   UNL     1      30.313 -10.601 -18.976  0.00  0.00    +0.035 C 
ATOM      8  C   UNL     1      31.465 -10.819 -18.040  0.00  0.00    +0.035 C 
BRANCH   6  10
ATOM      9  N   UNL     1      32.723  -8.299 -20.199  0.00  0.00    -0.194 NA
ATOM     10  C   UNL     1      32.272  -9.322 -19.886  0.00  0.00    +0.090 C 
ENDBRANCH   6  10
ENDBRANCH   3   6
ENDBRANCH   1   4
BRANCH   1  11
ATOM     11  N   UNL     1      33.351 -12.663 -22.826  0.00  0.00    +0.401 N 
ATOM     12  H   UNL     1      34.005 -13.407 -23.072  0.00  0.00    -0.083 HD
ATOM     13  H   UNL     1      33.794 -11.998 -22.191  0.00  0.00    -0.083 HD
BRANCH  11  14
ATOM     14  C   UNL     1      32.952 -11.960 -24.035  0.00  0.00    +0.059 C 
BRANCH  14  16
ATOM     15  F   UNL     1      34.800  -6.652 -24.053  0.00  0.00    -0.204 F 
ATOM     16  C   UNL     1      33.450 -10.528 -24.040  0.00  0.00    -0.034 C 
ATOM     17  C   UNL     1      34.760 -10.273 -24.402  0.00  0.00    -0.004 C 
ATOM     18  C   UNL     1      32.582  -9.513 -23.681  0.00  0.00    -0.004 C 
ATOM     19  C   UNL     1      35.218  -8.956 -24.407  0.00  0.00    +0.029 C 
ATOM     20  C   UNL     1      33.041  -8.195 -23.686  0.00  0.00    +0.029 C 
ATOM     21  C   UNL     1      34.359  -7.917 -24.049  0.00  0.00    +0.140 C 
ENDBRANCH  14  16
BRANCH  14  25
ATOM     22  F   UNL     1      32.510 -13.727 -25.550  0.00  0.00    -0.172 F 
ATOM     23  F   UNL     1      33.428 -11.929 -26.360  0.00  0.00    -0.172 F 
ATOM     24  F   UNL     1      34.605 -13.297 -25.132  0.00  0.00    -0.172 F 
ATOM     25  C   UNL     1      33.387 -12.734 -25.274  0.00  0.00    +0.384 C 
ENDBRANCH  14  25
ENDBRANCH  11  14
ENDBRANCH   1  11
BRANCH   1  26
ATOM     26  C   UNL     1      32.657 -14.325 -21.186  0.00  0.00    +0.139 C 
BRANCH  26  27
ATOM     27  S   UNL     1      33.985 -15.282 -21.854  0.00  0.00    -0.010 S 
ATOM     28  O   UNL     1      33.728 -15.486 -23.268  0.00  0.00    -0.173 OA
ATOM     29  O   UNL     1      35.235 -14.695 -21.404  0.00  0.00    -0.173 OA
BRANCH  27  30
ATOM     30  C   UNL     1      33.805 -16.852 -21.040  0.00  0.00    +0.170 C 
BRANCH  30  33
ATOM     31  O   UNL     1      37.681 -18.663 -21.930  0.00  0.00    -0.275 OA
ATOM     32  N   UNL     1      35.549 -17.841 -22.443  0.00  0.00    -0.304 N 
ATOM     33  C   UNL     1      34.201 -18.003 -21.954  0.00  0.00    +0.096 C 
ATOM     34  C   UNL     1      34.270 -19.339 -21.223  0.00  0.00    +0.031 C 
ATOM     35  C   UNL     1      35.711 -19.420 -20.727  0.00  0.00    +0.087 C 
ATOM     36  C   UNL     1      36.472 -18.629 -21.763  0.00  0.00    +0.223 C 
ATOM     37  H   UNL     1      35.790 -17.236 -23.181  0.00  0.00    +0.149 HD
ENDBRANCH  30  33
ENDBRANCH  27  30
ENDBRANCH  26  27
ENDBRANCH   1  26
TORSDOF 11
ENDMDL
