MODEL 1
REMARK VINA RESULT:      -9.6      0.000      0.000
REMARK  Name = 25113128
REMARK  7 active torsions:
REMARK  status: ('A' for Active; 'I' for Inactive)
REMARK    1  A    between atoms: N_2  and  C_19
REMARK    2  A    between atoms: C_3  and  C_7
REMARK    3  A    between atoms: C_11  and  C_12
REMARK    4  A    between atoms: C_12  and  N_13
REMARK    5  A    between atoms: C_12  and  C_17
REMARK    6  A    between atoms: C_19  and  C_20
REMARK    7  A    between atoms: C_25  and  C_28
REMARK                            x       y       z     vdW  Elec       q    Type
REMARK                         _______ _______ _______ _____ _____    ______ ____
ROOT
ATOM      1  O   UNL     1      34.033 -24.491 -16.501  0.00  0.00    -0.273 OA
ATOM      2  N   UNL     1      33.177 -22.679 -17.686  0.00  0.00    -0.299 N 
ATOM      3  C   UNL     1      33.336 -23.482 -16.570  0.00  0.00    +0.241 C 
ATOM      4  H   UNL     1      32.589 -21.893 -17.618  0.00  0.00    +0.150 HD
ENDROOT
BRANCH   3   7
ATOM      5  O   UNL     1      30.501 -22.064 -17.169  0.00  0.00    -0.277 OA
ATOM      6  N   UNL     1      31.211 -23.500 -15.500  0.00  0.00    -0.275 N 
ATOM      7  C   UNL     1      32.565 -22.972 -15.390  0.00  0.00    +0.152 C 
ATOM      8  C   UNL     1      33.097 -23.539 -14.079  0.00  0.00    +0.031 C 
ATOM      9  C   UNL     1      32.344 -24.859 -13.931  0.00  0.00    +0.024 C 
ATOM     10  C   UNL     1      30.972 -24.545 -14.507  0.00  0.00    +0.094 C 
ATOM     11  C   UNL     1      30.261 -22.945 -16.342  0.00  0.00    +0.205 C 
BRANCH  11  12
ATOM     12  C   UNL     1      28.866 -23.501 -16.203  0.00  0.00    +0.013 C 
BRANCH  12  13
ATOM     13  N   UNL     1      28.356 -23.605 -17.564  0.00  0.00    +0.387 N 
ATOM     14  H   UNL     1      29.136 -23.724 -18.211  0.00  0.00    -0.089 HD
ATOM     15  H   UNL     1      27.844 -22.755 -17.801  0.00  0.00    -0.089 HD
ATOM     16  H   UNL     1      27.732 -24.409 -17.632  0.00  0.00    -0.089 HD
ENDBRANCH  12  13
BRANCH  12  17
ATOM     17  C   UNL     1      27.993 -22.586 -15.349  0.00  0.00    -0.013 C 
ATOM     18  C   UNL     1      26.751 -22.107 -16.091  0.00  0.00    -0.002 C 
ENDBRANCH  12  17
ENDBRANCH  11  12
ENDBRANCH   3   7
BRANCH   2  19
ATOM     19  C   UNL     1      33.833 -22.940 -18.947  0.00  0.00    +0.116 C 
BRANCH  19  20
ATOM     20  C   UNL     1      34.250 -21.672 -19.636  0.00  0.00    -0.003 C 
ATOM     21  C   UNL     1      35.603 -21.365 -19.769  0.00  0.00    -0.003 C 
ATOM     22  C   UNL     1      33.283 -20.803 -20.141  0.00  0.00    -0.003 C 
ATOM     23  C   UNL     1      35.992 -20.187 -20.408  0.00  0.00    +0.002 C 
ATOM     24  C   UNL     1      33.671 -19.625 -20.780  0.00  0.00    +0.002 C 
ATOM     25  C   UNL     1      35.026 -19.316 -20.913  0.00  0.00    +0.031 C 
BRANCH  25  28
ATOM     26  N   UNL     1      36.213 -18.114 -22.731  0.00  0.00    -0.343 N 
ATOM     27  N   UNL     1      35.057 -16.920 -21.088  0.00  0.00    -0.285 NA
ATOM     28  C   UNL     1      35.430 -18.089 -21.579  0.00  0.00    +0.117 C 
ATOM     29  H   UNL     1      36.476 -17.270 -23.166  0.00  0.00    +0.144 HD
ATOM     30  H   UNL     1      36.504 -18.975 -23.110  0.00  0.00    +0.144 HD
ATOM     31  H   UNL     1      35.330 -16.088 -21.537  0.00  0.00    +0.188 HD
ENDBRANCH  25  28
ENDBRANCH  19  20
ENDBRANCH   2  19
TORSDOF 7
ENDMDL
MODEL 2
REMARK VINA RESULT:      -9.3      4.332      9.355
REMARK  Name = 25113128
REMARK  7 active torsions:
REMARK  status: ('A' for Active; 'I' for Inactive)
REMARK    1  A    between atoms: N_2  and  C_19
REMARK    2  A    between atoms: C_3  and  C_7
REMARK    3  A    between atoms: C_11  and  C_12
REMARK    4  A    between atoms: C_12  and  N_13
REMARK    5  A    between atoms: C_12  and  C_17
REMARK    6  A    between atoms: C_19  and  C_20
REMARK    7  A    between atoms: C_25  and  C_28
REMARK                            x       y       z     vdW  Elec       q    Type
REMARK                         _______ _______ _______ _____ _____    ______ ____
ROOT
ATOM      1  O   UNL     1      34.135 -17.549 -23.027  0.00  0.00    -0.273 OA
ATOM      2  N   UNL     1      35.666 -17.955 -21.322  0.00  0.00    -0.299 N 
ATOM      3  C   UNL     1      34.795 -17.174 -22.062  0.00  0.00    +0.241 C 
ATOM      4  H   UNL     1      36.141 -17.539 -20.567  0.00  0.00    +0.150 HD
ENDROOT
BRANCH   3   7
ATOM      5  O   UNL     1      35.158 -14.788 -24.203  0.00  0.00    -0.277 OA
ATOM      6  N   UNL     1      33.755 -15.059 -22.383  0.00  0.00    -0.275 N 
ATOM      7  C   UNL     1      34.709 -15.771 -21.542  0.00  0.00    +0.152 C 
ATOM      8  C   UNL     1      34.103 -15.723 -20.144  0.00  0.00    +0.031 C 
ATOM      9  C   UNL     1      32.601 -15.660 -20.409  0.00  0.00    +0.024 C 
ATOM     10  C   UNL     1      32.504 -14.814 -21.669  0.00  0.00    +0.094 C 
ATOM     11  C   UNL     1      34.091 -14.559 -23.631  0.00  0.00    +0.205 C 
BRANCH  11  12
ATOM     12  C   UNL     1      33.043 -13.699 -24.290  0.00  0.00    +0.013 C 
BRANCH  12  13
ATOM     13  N   UNL     1      32.922 -14.211 -25.648  0.00  0.00    +0.387 N 
ATOM     14  H   UNL     1      31.951 -14.141 -25.952  0.00  0.00    -0.089 HD
ATOM     15  H   UNL     1      33.215 -15.188 -25.670  0.00  0.00    -0.089 HD
ATOM     16  H   UNL     1      33.514 -13.663 -26.271  0.00  0.00    -0.089 HD
ENDBRANCH  12  13
BRANCH  12  17
ATOM     17  C   UNL     1      33.455 -12.229 -24.283  0.00  0.00    -0.013 C 
ATOM     18  C   UNL     1      33.866 -11.733 -25.663  0.00  0.00    -0.002 C 
ENDBRANCH  12  17
ENDBRANCH  11  12
ENDBRANCH   3   7
BRANCH   2  19
ATOM     19  C   UNL     1      35.911 -19.351 -21.604  0.00  0.00    +0.116 C 
BRANCH  19  20
ATOM     20  C   UNL     1      35.211 -20.252 -20.628  0.00  0.00    -0.003 C 
ATOM     21  C   UNL     1      35.951 -21.135 -19.842  0.00  0.00    -0.003 C 
ATOM     22  C   UNL     1      33.822 -20.208 -20.511  0.00  0.00    -0.003 C 
ATOM     23  C   UNL     1      35.300 -21.974 -18.936  0.00  0.00    +0.002 C 
ATOM     24  C   UNL     1      33.172 -21.047 -19.605  0.00  0.00    +0.002 C 
ATOM     25  C   UNL     1      33.911 -21.930 -18.818  0.00  0.00    +0.031 C 
BRANCH  25  28
ATOM     26  N   UNL     1      31.860 -22.712 -17.658  0.00  0.00    -0.343 N 
ATOM     27  N   UNL     1      33.926 -23.705 -17.198  0.00  0.00    -0.285 NA
ATOM     28  C   UNL     1      33.234 -22.804 -17.874  0.00  0.00    +0.117 C 
ATOM     29  H   UNL     1      31.423 -23.314 -17.013  0.00  0.00    +0.144 HD
ATOM     30  H   UNL     1      31.328 -22.045 -18.148  0.00  0.00    +0.144 HD
ATOM     31  H   UNL     1      33.469 -24.297 -16.559  0.00  0.00    +0.188 HD
ENDBRANCH  25  28
ENDBRANCH  19  20
ENDBRANCH   2  19
TORSDOF 7
ENDMDL
MODEL 3
REMARK VINA RESULT:      -9.2      6.910     11.007
REMARK  Name = 25113128
REMARK  7 active torsions:
REMARK  status: ('A' for Active; 'I' for Inactive)
REMARK    1  A    between atoms: N_2  and  C_19
REMARK    2  A    between atoms: C_3  and  C_7
REMARK    3  A    between atoms: C_11  and  C_12
REMARK    4  A    between atoms: C_12  and  N_13
REMARK    5  A    between atoms: C_12  and  C_17
REMARK    6  A    between atoms: C_19  and  C_20
REMARK    7  A    between atoms: C_25  and  C_28
REMARK                            x       y       z     vdW  Elec       q    Type
REMARK                         _______ _______ _______ _____ _____    ______ ____
ROOT
ATOM      1  O   UNL     1      32.350 -15.455 -21.583  0.00  0.00    -0.273 OA
ATOM      2  N   UNL     1      32.808 -13.249 -22.167  0.00  0.00    -0.299 N 
ATOM      3  C   UNL     1      33.083 -14.603 -22.077  0.00  0.00    +0.241 C 
ATOM      4  H   UNL     1      33.477 -12.662 -22.587  0.00  0.00    +0.150 HD
ENDROOT
BRANCH   3   7
ATOM      5  O   UNL     1      35.019 -16.540 -20.373  0.00  0.00    -0.277 OA
ATOM      6  N   UNL     1      34.533 -16.406 -22.631  0.00  0.00    -0.275 N 
ATOM      7  C   UNL     1      34.405 -14.955 -22.688  0.00  0.00    +0.152 C 
ATOM      8  C   UNL     1      34.449 -14.621 -24.175  0.00  0.00    +0.031 C 
ATOM      9  C   UNL     1      33.871 -15.870 -24.837  0.00  0.00    +0.024 C 
ATOM     10  C   UNL     1      34.384 -17.000 -23.958  0.00  0.00    +0.094 C 
ATOM     11  C   UNL     1      34.904 -17.076 -21.476  0.00  0.00    +0.205 C 
BRANCH  11  12
ATOM     12  C   UNL     1      35.159 -18.553 -21.636  0.00  0.00    +0.013 C 
BRANCH  12  13
ATOM     13  N   UNL     1      34.027 -19.211 -20.998  0.00  0.00    +0.387 N 
ATOM     14  H   UNL     1      33.630 -18.593 -20.290  0.00  0.00    -0.089 HD
ATOM     15  H   UNL     1      34.341 -20.076 -20.558  0.00  0.00    -0.089 HD
ATOM     16  H   UNL     1      33.318 -19.423 -21.700  0.00  0.00    -0.089 HD
ENDBRANCH  12  13
BRANCH  12  17
ATOM     17  C   UNL     1      36.479 -18.957 -20.984  0.00  0.00    -0.013 C 
ATOM     18  C   UNL     1      36.387 -20.296 -20.263  0.00  0.00    -0.002 C 
ENDBRANCH  12  17
ENDBRANCH  11  12
ENDBRANCH   3   7
BRANCH   2  19
ATOM     19  C   UNL     1      31.587 -12.656 -21.673  0.00  0.00    +0.116 C 
BRANCH  19  20
ATOM     20  C   UNL     1      31.764 -11.203 -21.337  0.00  0.00    -0.003 C 
ATOM     21  C   UNL     1      31.961 -10.272 -22.357  0.00  0.00    -0.003 C 
ATOM     22  C   UNL     1      31.734 -10.786 -20.007  0.00  0.00    -0.003 C 
ATOM     23  C   UNL     1      32.127  -8.922 -22.045  0.00  0.00    +0.002 C 
ATOM     24  C   UNL     1      31.900  -9.435 -19.696  0.00  0.00    +0.002 C 
ATOM     25  C   UNL     1      32.097  -8.504 -20.715  0.00  0.00    +0.031 C 
BRANCH  25  28
ATOM     26  N   UNL     1      31.633  -6.100 -21.128  0.00  0.00    -0.343 N 
ATOM     27  N   UNL     1      33.047  -6.744 -19.382  0.00  0.00    -0.285 NA
ATOM     28  C   UNL     1      32.269  -7.097 -20.391  0.00  0.00    +0.117 C 
ATOM     29  H   UNL     1      31.764  -5.153 -20.891  0.00  0.00    +0.144 HD
ATOM     30  H   UNL     1      31.053  -6.342 -21.886  0.00  0.00    +0.144 HD
ATOM     31  H   UNL     1      33.164  -5.793 -19.161  0.00  0.00    +0.188 HD
ENDBRANCH  25  28
ENDBRANCH  19  20
ENDBRANCH   2  19
TORSDOF 7
ENDMDL
MODEL 4
REMARK VINA RESULT:      -9.1      5.016      9.839
REMARK  Name = 25113128
REMARK  7 active torsions:
REMARK  status: ('A' for Active; 'I' for Inactive)
REMARK    1  A    between atoms: N_2  and  C_19
REMARK    2  A    between atoms: C_3  and  C_7
REMARK    3  A    between atoms: C_11  and  C_12
REMARK    4  A    between atoms: C_12  and  N_13
REMARK    5  A    between atoms: C_12  and  C_17
REMARK    6  A    between atoms: C_19  and  C_20
REMARK    7  A    between atoms: C_25  and  C_28
REMARK                            x       y       z     vdW  Elec       q    Type
REMARK                         _______ _______ _______ _____ _____    ______ ____
ROOT
ATOM      1  O   UNL     1      35.075 -14.725 -21.658  0.00  0.00    -0.273 OA
ATOM      2  N   UNL     1      34.395 -16.810 -22.436  0.00  0.00    -0.299 N 
ATOM      3  C   UNL     1      34.291 -15.440 -22.277  0.00  0.00    +0.241 C 
ATOM      4  H   UNL     1      33.700 -17.275 -22.957  0.00  0.00    +0.150 HD
ENDROOT
BRANCH   3   7
ATOM      5  O   UNL     1      32.012 -14.087 -20.437  0.00  0.00    -0.277 OA
ATOM      6  N   UNL     1      32.910 -13.514 -22.491  0.00  0.00    -0.275 N 
ATOM      7  C   UNL     1      33.093 -14.876 -22.979  0.00  0.00    +0.152 C 
ATOM      8  C   UNL     1      33.335 -14.721 -24.476  0.00  0.00    +0.031 C 
ATOM      9  C   UNL     1      33.984 -13.344 -24.591  0.00  0.00    +0.024 C 
ATOM     10  C   UNL     1      33.281 -12.535 -23.511  0.00  0.00    +0.094 C 
ATOM     11  C   UNL     1      32.310 -13.234 -21.273  0.00  0.00    +0.205 C 
BRANCH  11  12
ATOM     12  C   UNL     1      32.041 -11.775 -21.004  0.00  0.00    +0.013 C 
BRANCH  12  13
ATOM     13  N   UNL     1      31.766 -11.692 -19.576  0.00  0.00    +0.387 N 
ATOM     14  H   UNL     1      30.769 -11.537 -19.429  0.00  0.00    -0.089 HD
ATOM     15  H   UNL     1      32.294 -10.918 -19.173  0.00  0.00    -0.089 HD
ATOM     16  H   UNL     1      32.044 -12.564 -19.125  0.00  0.00    -0.089 HD
ENDBRANCH  12  13
BRANCH  12  17
ATOM     17  C   UNL     1      30.859 -11.272 -21.829  0.00  0.00    -0.013 C 
ATOM     18  C   UNL     1      31.112  -9.895 -22.429  0.00  0.00    -0.002 C 
ENDBRANCH  12  17
ENDBRANCH  11  12
ENDBRANCH   3   7
BRANCH   2  19
ATOM     19  C   UNL     1      35.473 -17.592 -21.877  0.00  0.00    +0.116 C 
BRANCH  19  20
ATOM     20  C   UNL     1      34.971 -18.822 -21.176  0.00  0.00    -0.003 C 
ATOM     21  C   UNL     1      35.876 -19.741 -20.648  0.00  0.00    -0.003 C 
ATOM     22  C   UNL     1      33.599 -19.044 -21.055  0.00  0.00    -0.003 C 
ATOM     23  C   UNL     1      35.410 -20.885 -19.998  0.00  0.00    +0.002 C 
ATOM     24  C   UNL     1      33.133 -20.187 -20.405  0.00  0.00    +0.002 C 
ATOM     25  C   UNL     1      34.038 -21.108 -19.877  0.00  0.00    +0.031 C 
BRANCH  25  28
ATOM     26  N   UNL     1      32.490 -22.238 -18.300  0.00  0.00    -0.343 N 
ATOM     27  N   UNL     1      34.126 -23.467 -19.429  0.00  0.00    -0.285 NA
ATOM     28  C   UNL     1      33.553 -22.299 -19.199  0.00  0.00    +0.117 C 
ATOM     29  H   UNL     1      32.177 -23.058 -17.852  0.00  0.00    +0.144 HD
ATOM     30  H   UNL     1      32.052 -21.377 -18.112  0.00  0.00    +0.144 HD
ATOM     31  H   UNL     1      33.799 -24.274 -18.971  0.00  0.00    +0.188 HD
ENDBRANCH  25  28
ENDBRANCH  19  20
ENDBRANCH   2  19
TORSDOF 7
ENDMDL
MODEL 5
REMARK VINA RESULT:      -9.0      3.752      5.304
REMARK  Name = 25113128
REMARK  7 active torsions:
REMARK  status: ('A' for Active; 'I' for Inactive)
REMARK    1  A    between atoms: N_2  and  C_19
REMARK    2  A    between atoms: C_3  and  C_7
REMARK    3  A    between atoms: C_11  and  C_12
REMARK    4  A    between atoms: C_12  and  N_13
REMARK    5  A    between atoms: C_12  and  C_17
REMARK    6  A    between atoms: C_19  and  C_20
REMARK    7  A    between atoms: C_25  and  C_28
REMARK                            x       y       z     vdW  Elec       q    Type
REMARK                         _______ _______ _______ _____ _____    ______ ____
ROOT
ATOM      1  O   UNL     1      34.179 -23.932 -16.724  0.00  0.00    -0.273 OA
ATOM      2  N   UNL     1      35.180 -22.125 -17.797  0.00  0.00    -0.299 N 
ATOM      3  C   UNL     1      34.967 -22.990 -16.738  0.00  0.00    +0.241 C 
ATOM      4  H   UNL     1      35.842 -21.405 -17.688  0.00  0.00    +0.150 HD
ENDROOT
BRANCH   3   7
ATOM      5  O   UNL     1      34.827 -25.002 -14.220  0.00  0.00    -0.277 OA
ATOM      6  N   UNL     1      36.581 -23.887 -15.238  0.00  0.00    -0.275 N 
ATOM      7  C   UNL     1      35.841 -22.674 -15.562  0.00  0.00    +0.152 C 
ATOM      8  C   UNL     1      36.914 -21.649 -15.914  0.00  0.00    +0.031 C 
ATOM      9  C   UNL     1      38.054 -22.503 -16.465  0.00  0.00    +0.024 C 
ATOM     10  C   UNL     1      37.987 -23.764 -15.617  0.00  0.00    +0.094 C 
ATOM     11  C   UNL     1      36.019 -24.932 -14.521  0.00  0.00    +0.205 C 
BRANCH  11  12
ATOM     12  C   UNL     1      36.972 -26.030 -14.121  0.00  0.00    +0.013 C 
BRANCH  12  13
ATOM     13  N   UNL     1      36.362 -27.263 -14.603  0.00  0.00    +0.387 N 
ATOM     14  H   UNL     1      35.994 -27.115 -15.542  0.00  0.00    -0.089 HD
ATOM     15  H   UNL     1      35.602 -27.532 -13.978  0.00  0.00    -0.089 HD
ATOM     16  H   UNL     1      37.064 -28.003 -14.624  0.00  0.00    -0.089 HD
ENDBRANCH  12  13
BRANCH  12  17
ATOM     17  C   UNL     1      37.172 -26.061 -12.609  0.00  0.00    -0.013 C 
ATOM     18  C   UNL     1      37.943 -24.850 -12.098  0.00  0.00    -0.002 C 
ENDBRANCH  12  17
ENDBRANCH  11  12
ENDBRANCH   3   7
BRANCH   2  19
ATOM     19  C   UNL     1      34.479 -22.229 -19.056  0.00  0.00    +0.116 C 
BRANCH  19  20
ATOM     20  C   UNL     1      34.664 -21.004 -19.905  0.00  0.00    -0.003 C 
ATOM     21  C   UNL     1      35.947 -20.528 -20.171  0.00  0.00    -0.003 C 
ATOM     22  C   UNL     1      33.552 -20.342 -20.425  0.00  0.00    -0.003 C 
ATOM     23  C   UNL     1      36.119 -19.388 -20.958  0.00  0.00    +0.002 C 
ATOM     24  C   UNL     1      33.724 -19.203 -21.212  0.00  0.00    +0.002 C 
ATOM     25  C   UNL     1      35.008 -18.726 -21.478  0.00  0.00    +0.031 C 
BRANCH  25  28
ATOM     26  N   UNL     1      34.913 -16.266 -21.802  0.00  0.00    -0.343 N 
ATOM     27  N   UNL     1      35.614 -17.658 -23.544  0.00  0.00    -0.285 NA
ATOM     28  C   UNL     1      35.187 -17.539 -22.299  0.00  0.00    +0.117 C 
ATOM     29  H   UNL     1      35.042 -15.476 -22.376  0.00  0.00    +0.144 HD
ATOM     30  H   UNL     1      34.590 -16.157 -20.879  0.00  0.00    +0.144 HD
ATOM     31  H   UNL     1      35.736 -16.856 -24.100  0.00  0.00    +0.188 HD
ENDBRANCH  25  28
ENDBRANCH  19  20
ENDBRANCH   2  19
TORSDOF 7
ENDMDL
MODEL 6
REMARK VINA RESULT:      -8.9      9.283     14.114
REMARK  Name = 25113128
REMARK  7 active torsions:
REMARK  status: ('A' for Active; 'I' for Inactive)
REMARK    1  A    between atoms: N_2  and  C_19
REMARK    2  A    between atoms: C_3  and  C_7
REMARK    3  A    between atoms: C_11  and  C_12
REMARK    4  A    between atoms: C_12  and  N_13
REMARK    5  A    between atoms: C_12  and  C_17
REMARK    6  A    between atoms: C_19  and  C_20
REMARK    7  A    between atoms: C_25  and  C_28
REMARK                            x       y       z     vdW  Elec       q    Type
REMARK                         _______ _______ _______ _____ _____    ______ ____
ROOT
ATOM      1  O   UNL     1      32.267  -9.383 -21.424  0.00  0.00    -0.273 OA
ATOM      2  N   UNL     1      32.084 -11.309 -22.718  0.00  0.00    -0.299 N 
ATOM      3  C   UNL     1      32.291  -9.956 -22.510  0.00  0.00    +0.241 C 
ATOM      4  H   UNL     1      32.128 -11.653 -23.639  0.00  0.00    +0.150 HD
ENDROOT
BRANCH   3   7
ATOM      5  O   UNL     1      30.398  -7.444 -23.226  0.00  0.00    -0.277 OA
ATOM      6  N   UNL     1      32.672  -7.807 -23.456  0.00  0.00    -0.275 N 
ATOM      7  C   UNL     1      32.582  -9.224 -23.785  0.00  0.00    +0.152 C 
ATOM      8  C   UNL     1      33.956  -9.580 -24.340  0.00  0.00    +0.031 C 
ATOM      9  C   UNL     1      34.891  -8.604 -23.629  0.00  0.00    +0.024 C 
ATOM     10  C   UNL     1      34.055  -7.339 -23.516  0.00  0.00    +0.094 C 
ATOM     11  C   UNL     1      31.551  -7.013 -23.273  0.00  0.00    +0.205 C 
BRANCH  11  12
ATOM     12  C   UNL     1      31.820  -5.538 -23.114  0.00  0.00    +0.013 C 
BRANCH  12  13
ATOM     13  N   UNL     1      31.146  -5.154 -21.880  0.00  0.00    +0.387 N 
ATOM     14  H   UNL     1      31.212  -4.144 -21.756  0.00  0.00    -0.089 HD
ATOM     15  H   UNL     1      31.590  -5.624 -21.091  0.00  0.00    -0.089 HD
ATOM     16  H   UNL     1      30.165  -5.428 -21.931  0.00  0.00    -0.089 HD
ENDBRANCH  12  13
BRANCH  12  17
ATOM     17  C   UNL     1      31.288  -4.750 -24.308  0.00  0.00    -0.013 C 
ATOM     18  C   UNL     1      32.247  -4.767 -25.491  0.00  0.00    -0.002 C 
ENDBRANCH  12  17
ENDBRANCH  11  12
ENDBRANCH   3   7
BRANCH   2  19
ATOM     19  C   UNL     1      31.807 -12.240 -21.648  0.00  0.00    +0.116 C 
BRANCH  19  20
ATOM     20  C   UNL     1      32.683 -13.458 -21.724  0.00  0.00    -0.003 C 
ATOM     21  C   UNL     1      32.689 -14.377 -20.675  0.00  0.00    -0.003 C 
ATOM     22  C   UNL     1      33.489 -13.669 -22.842  0.00  0.00    -0.003 C 
ATOM     23  C   UNL     1      33.503 -15.509 -20.744  0.00  0.00    +0.002 C 
ATOM     24  C   UNL     1      34.304 -14.800 -22.911  0.00  0.00    +0.002 C 
ATOM     25  C   UNL     1      34.311 -15.720 -21.861  0.00  0.00    +0.031 C 
BRANCH  25  28
ATOM     26  N   UNL     1      35.360 -17.715 -20.822  0.00  0.00    -0.343 N 
ATOM     27  N   UNL     1      35.759 -17.210 -23.069  0.00  0.00    -0.285 NA
ATOM     28  C   UNL     1      35.158 -16.898 -21.933  0.00  0.00    +0.117 C 
ATOM     29  H   UNL     1      35.938 -18.509 -20.893  0.00  0.00    +0.144 HD
ATOM     30  H   UNL     1      34.925 -17.498 -19.966  0.00  0.00    +0.144 HD
ATOM     31  H   UNL     1      36.333 -18.007 -23.119  0.00  0.00    +0.188 HD
ENDBRANCH  25  28
ENDBRANCH  19  20
ENDBRANCH   2  19
TORSDOF 7
ENDMDL
MODEL 7
REMARK VINA RESULT:      -8.9      6.206     10.355
REMARK  Name = 25113128
REMARK  7 active torsions:
REMARK  status: ('A' for Active; 'I' for Inactive)
REMARK    1  A    between atoms: N_2  and  C_19
REMARK    2  A    between atoms: C_3  and  C_7
REMARK    3  A    between atoms: C_11  and  C_12
REMARK    4  A    between atoms: C_12  and  N_13
REMARK    5  A    between atoms: C_12  and  C_17
REMARK    6  A    between atoms: C_19  and  C_20
REMARK    7  A    between atoms: C_25  and  C_28
REMARK                            x       y       z     vdW  Elec       q    Type
REMARK                         _______ _______ _______ _____ _____    ______ ____
ROOT
ATOM      1  O   UNL     1      33.063 -16.041 -21.847  0.00  0.00    -0.273 OA
ATOM      2  N   UNL     1      33.508 -14.427 -23.463  0.00  0.00    -0.299 N 
ATOM      3  C   UNL     1      33.751 -15.594 -22.760  0.00  0.00    +0.241 C 
ATOM      4  H   UNL     1      34.135 -14.171 -24.177  0.00  0.00    +0.150 HD
ENDROOT
BRANCH   3   7
ATOM      5  O   UNL     1      35.419 -17.312 -20.598  0.00  0.00    -0.277 OA
ATOM      6  N   UNL     1      34.866 -17.695 -22.812  0.00  0.00    -0.275 N 
ATOM      7  C   UNL     1      34.973 -16.310 -23.252  0.00  0.00    +0.152 C 
ATOM      8  C   UNL     1      35.007 -16.389 -24.774  0.00  0.00    +0.031 C 
ATOM      9  C   UNL     1      34.208 -17.653 -25.082  0.00  0.00    +0.024 C 
ATOM     10  C   UNL     1      34.568 -18.583 -23.934  0.00  0.00    +0.094 C 
ATOM     11  C   UNL     1      35.173 -18.091 -21.520  0.00  0.00    +0.205 C 
BRANCH  11  12
ATOM     12  C   UNL     1      35.180 -19.580 -21.282  0.00  0.00    +0.013 C 
BRANCH  12  13
ATOM     13  N   UNL     1      33.922 -19.867 -20.605  0.00  0.00    +0.387 N 
ATOM     14  H   UNL     1      33.593 -19.027 -20.129  0.00  0.00    -0.089 HD
ATOM     15  H   UNL     1      34.066 -20.611 -19.922  0.00  0.00    -0.089 HD
ATOM     16  H   UNL     1      33.228 -20.164 -21.291  0.00  0.00    -0.089 HD
ENDBRANCH  12  13
BRANCH  12  17
ATOM     17  C   UNL     1      36.377 -19.995 -20.432  0.00  0.00    -0.013 C 
ATOM     18  C   UNL     1      36.128 -21.288 -19.666  0.00  0.00    -0.002 C 
ENDBRANCH  12  17
ENDBRANCH  11  12
ENDBRANCH   3   7
BRANCH   2  19
ATOM     19  C   UNL     1      32.379 -13.565 -23.198  0.00  0.00    +0.116 C 
BRANCH  19  20
ATOM     20  C   UNL     1      32.758 -12.112 -23.247  0.00  0.00    -0.003 C 
ATOM     21  C   UNL     1      32.031 -11.178 -22.510  0.00  0.00    -0.003 C 
ATOM     22  C   UNL     1      33.835 -11.699 -24.031  0.00  0.00    -0.003 C 
ATOM     23  C   UNL     1      32.382  -9.828 -22.557  0.00  0.00    +0.002 C 
ATOM     24  C   UNL     1      34.186 -10.349 -24.077  0.00  0.00    +0.002 C 
ATOM     25  C   UNL     1      33.459  -9.413 -23.341  0.00  0.00    +0.031 C 
BRANCH  25  28
ATOM     26  N   UNL     1      32.867  -7.016 -23.602  0.00  0.00    -0.343 N 
ATOM     27  N   UNL     1      35.087  -7.649 -23.233  0.00  0.00    -0.285 NA
ATOM     28  C   UNL     1      33.824  -8.007 -23.389  0.00  0.00    +0.117 C 
ATOM     29  H   UNL     1      33.137  -6.070 -23.631  0.00  0.00    +0.144 HD
ATOM     30  H   UNL     1      31.922  -7.263 -23.724  0.00  0.00    +0.144 HD
ATOM     31  H   UNL     1      35.336  -6.698 -23.264  0.00  0.00    +0.188 HD
ENDBRANCH  25  28
ENDBRANCH  19  20
ENDBRANCH   2  19
TORSDOF 7
ENDMDL
MODEL 8
REMARK VINA RESULT:      -8.8      2.909      7.495
REMARK  Name = 25113128
REMARK  7 active torsions:
REMARK  status: ('A' for Active; 'I' for Inactive)
REMARK    1  A    between atoms: N_2  and  C_19
REMARK    2  A    between atoms: C_3  and  C_7
REMARK    3  A    between atoms: C_11  and  C_12
REMARK    4  A    between atoms: C_12  and  N_13
REMARK    5  A    between atoms: C_12  and  C_17
REMARK    6  A    between atoms: C_19  and  C_20
REMARK    7  A    between atoms: C_25  and  C_28
REMARK                            x       y       z     vdW  Elec       q    Type
REMARK                         _______ _______ _______ _____ _____    ______ ____
ROOT
ATOM      1  O   UNL     1      35.430 -23.603 -13.090  0.00  0.00    -0.273 OA
ATOM      2  N   UNL     1      33.736 -24.702 -14.248  0.00  0.00    -0.299 N 
ATOM      3  C   UNL     1      35.043 -24.311 -14.016  0.00  0.00    +0.241 C 
ATOM      4  H   UNL     1      33.548 -25.272 -15.027  0.00  0.00    +0.150 HD
ENDROOT
BRANCH   3   7
ATOM      5  O   UNL     1      34.721 -23.284 -17.058  0.00  0.00    -0.277 OA
ATOM      6  N   UNL     1      36.572 -23.747 -15.749  0.00  0.00    -0.275 N 
ATOM      7  C   UNL     1      35.991 -24.874 -15.031  0.00  0.00    +0.152 C 
ATOM      8  C   UNL     1      37.179 -25.567 -14.372  0.00  0.00    +0.031 C 
ATOM      9  C   UNL     1      38.175 -24.430 -14.151  0.00  0.00    +0.024 C 
ATOM     10  C   UNL     1      37.968 -23.543 -15.369  0.00  0.00    +0.094 C 
ATOM     11  C   UNL     1      35.901 -23.086 -16.765  0.00  0.00    +0.205 C 
BRANCH  11  12
ATOM     12  C   UNL     1      36.711 -22.061 -17.519  0.00  0.00    +0.013 C 
BRANCH  12  13
ATOM     13  N   UNL     1      36.827 -20.923 -16.617  0.00  0.00    +0.387 N 
ATOM     14  H   UNL     1      36.039 -20.921 -15.970  0.00  0.00    -0.089 HD
ATOM     15  H   UNL     1      36.825 -20.059 -17.159  0.00  0.00    -0.089 HD
ATOM     16  H   UNL     1      37.698 -20.994 -16.092  0.00  0.00    -0.089 HD
ENDBRANCH  12  13
BRANCH  12  17
ATOM     17  C   UNL     1      36.024 -21.670 -18.825  0.00  0.00    -0.013 C 
ATOM     18  C   UNL     1      36.850 -20.688 -19.646  0.00  0.00    -0.002 C 
ENDBRANCH  12  17
ENDBRANCH  11  12
ENDBRANCH   3   7
BRANCH   2  19
ATOM     19  C   UNL     1      32.632 -24.312 -13.400  0.00  0.00    +0.116 C 
BRANCH  19  20
ATOM     20  C   UNL     1      31.404 -23.975 -14.197  0.00  0.00    -0.003 C 
ATOM     21  C   UNL     1      30.334 -24.868 -14.237  0.00  0.00    -0.003 C 
ATOM     22  C   UNL     1      31.335 -22.770 -14.896  0.00  0.00    -0.003 C 
ATOM     23  C   UNL     1      29.193 -24.556 -14.978  0.00  0.00    +0.002 C 
ATOM     24  C   UNL     1      30.195 -22.459 -15.637  0.00  0.00    +0.002 C 
ATOM     25  C   UNL     1      29.124 -23.352 -15.678  0.00  0.00    +0.031 C 
BRANCH  25  28
ATOM     26  N   UNL     1      26.906 -22.260 -15.907  0.00  0.00    -0.343 N 
ATOM     27  N   UNL     1      27.815 -23.467 -17.690  0.00  0.00    -0.285 NA
ATOM     28  C   UNL     1      27.935 -23.027 -16.450  0.00  0.00    +0.117 C 
ATOM     29  H   UNL     1      26.110 -22.052 -16.448  0.00  0.00    +0.144 HD
ATOM     30  H   UNL     1      26.975 -21.927 -14.984  0.00  0.00    +0.144 HD
ATOM     31  H   UNL     1      27.011 -23.248 -18.214  0.00  0.00    +0.188 HD
ENDBRANCH  25  28
ENDBRANCH  19  20
ENDBRANCH   2  19
TORSDOF 7
ENDMDL
MODEL 9
REMARK VINA RESULT:      -8.7      3.889      8.584
REMARK  Name = 25113128
REMARK  7 active torsions:
REMARK  status: ('A' for Active; 'I' for Inactive)
REMARK    1  A    between atoms: N_2  and  C_19
REMARK    2  A    between atoms: C_3  and  C_7
REMARK    3  A    between atoms: C_11  and  C_12
REMARK    4  A    between atoms: C_12  and  N_13
REMARK    5  A    between atoms: C_12  and  C_17
REMARK    6  A    between atoms: C_19  and  C_20
REMARK    7  A    between atoms: C_25  and  C_28
REMARK                            x       y       z     vdW  Elec       q    Type
REMARK                         _______ _______ _______ _____ _____    ______ ____
ROOT
ATOM      1  O   UNL     1      36.701 -18.567 -21.517  0.00  0.00    -0.273 OA
ATOM      2  N   UNL     1      35.476 -20.379 -20.720  0.00  0.00    -0.299 N 
ATOM      3  C   UNL     1      35.664 -19.223 -21.458  0.00  0.00    +0.241 C 
ATOM      4  H   UNL     1      34.595 -20.817 -20.753  0.00  0.00    +0.150 HD
ENDROOT
BRANCH   3   7
ATOM      5  O   UNL     1      33.958 -16.715 -20.361  0.00  0.00    -0.277 OA
ATOM      6  N   UNL     1      34.528 -17.408 -22.494  0.00  0.00    -0.275 N 
ATOM      7  C   UNL     1      34.440 -18.839 -22.233  0.00  0.00    +0.152 C 
ATOM      8  C   UNL     1      34.420 -19.483 -23.614  0.00  0.00    +0.031 C 
ATOM      9  C   UNL     1      35.209 -18.500 -24.476  0.00  0.00    +0.024 C 
ATOM     10  C   UNL     1      34.828 -17.146 -23.899  0.00  0.00    +0.094 C 
ATOM     11  C   UNL     1      34.204 -16.456 -21.539  0.00  0.00    +0.205 C 
BRANCH  11  12
ATOM     12  C   UNL     1      34.180 -15.030 -22.027  0.00  0.00    +0.013 C 
BRANCH  12  13
ATOM     13  N   UNL     1      34.844 -14.256 -20.987  0.00  0.00    +0.387 N 
ATOM     14  H   UNL     1      35.760 -13.956 -21.319  0.00  0.00    -0.089 HD
ATOM     15  H   UNL     1      34.955 -14.833 -20.153  0.00  0.00    -0.089 HD
ATOM     16  H   UNL     1      34.279 -13.437 -20.761  0.00  0.00    -0.089 HD
ENDBRANCH  12  13
BRANCH  12  17
ATOM     17  C   UNL     1      32.749 -14.550 -22.252  0.00  0.00    -0.013 C 
ATOM     18  C   UNL     1      32.311 -13.518 -21.220  0.00  0.00    -0.002 C 
ENDBRANCH  12  17
ENDBRANCH  11  12
ENDBRANCH   3   7
BRANCH   2  19
ATOM     19  C   UNL     1      36.510 -20.972 -19.903  0.00  0.00    +0.116 C 
BRANCH  19  20
ATOM     20  C   UNL     1      35.943 -21.675 -18.703  0.00  0.00    -0.003 C 
ATOM     21  C   UNL     1      36.721 -21.833 -17.556  0.00  0.00    -0.003 C 
ATOM     22  C   UNL     1      34.640 -22.171 -18.736  0.00  0.00    -0.003 C 
ATOM     23  C   UNL     1      36.195 -22.487 -16.441  0.00  0.00    +0.002 C 
ATOM     24  C   UNL     1      34.114 -22.825 -17.621  0.00  0.00    +0.002 C 
ATOM     25  C   UNL     1      34.892 -22.983 -16.474  0.00  0.00    +0.031 C 
BRANCH  25  28
ATOM     26  N   UNL     1      34.826 -24.907 -14.907  0.00  0.00    -0.343 N 
ATOM     27  N   UNL     1      33.367 -23.104 -14.621  0.00  0.00    -0.285 NA
ATOM     28  C   UNL     1      34.345 -23.664 -15.312  0.00  0.00    +0.117 C 
ATOM     29  H   UNL     1      34.440 -25.350 -14.116  0.00  0.00    +0.144 HD
ATOM     30  H   UNL     1      35.551 -25.343 -15.410  0.00  0.00    +0.144 HD
ATOM     31  H   UNL     1      32.995 -23.564 -13.834  0.00  0.00    +0.188 HD
ENDBRANCH  25  28
ENDBRANCH  19  20
ENDBRANCH   2  19
TORSDOF 7
ENDMDL
