MODEL 1
REMARK VINA RESULT:      -9.3      0.000      0.000
REMARK  Name = 92253
REMARK  5 active torsions:
REMARK  status: ('A' for Active; 'I' for Inactive)
REMARK    1  A    between atoms: N_2  and  C_5
REMARK    2  A    between atoms: C_3  and  C_14
REMARK    3  A    between atoms: N_13  and  C_20
REMARK    4  A    between atoms: C_20  and  C_21
REMARK    5  A    between atoms: C_21  and  C_22
REMARK                            x       y       z     vdW  Elec       q    Type
REMARK                         _______ _______ _______ _____ _____    ______ ____
ROOT
ATOM      1  O   UNL     1      31.944 -14.744 -22.233  0.00  0.00    -0.277 OA
ATOM      2  N   UNL     1      34.085 -14.836 -23.203  0.00  0.00    -0.286 N 
ATOM      3  C   UNL     1      32.848 -14.275 -22.916  0.00  0.00    +0.207 C 
ATOM      4  H   UNL     1      34.685 -14.301 -23.772  0.00  0.00    +0.155 HD
ENDROOT
BRANCH   2   5
ATOM      5  C   UNL     1      34.583 -16.089 -22.774  0.00  0.00    +0.042 C 
ATOM      6  C   UNL     1      34.822 -16.301 -21.424  0.00  0.00    -0.009 C 
ATOM      7  C   UNL     1      34.823 -17.084 -23.710  0.00  0.00    -0.009 C 
ATOM      8  C   UNL     1      35.313 -17.536 -21.001  0.00  0.00    -0.003 C 
ATOM      9  C   UNL     1      35.313 -18.319 -23.285  0.00  0.00    -0.003 C 
ATOM     10  C   UNL     1      34.570 -15.239 -20.403  0.00  0.00    +0.032 C 
ATOM     11  C   UNL     1      34.569 -16.873 -25.167  0.00  0.00    +0.032 C 
ATOM     12  C   UNL     1      35.558 -18.546 -21.931  0.00  0.00    -0.001 C 
ENDBRANCH   2   5
BRANCH   3  14
ATOM     13  N   UNL     1      32.684 -11.902 -22.505  0.00  0.00    +0.394 N 
ATOM     14  C   UNL     1      32.702 -12.929 -23.562  0.00  0.00    +0.021 C 
ATOM     15  C   UNL     1      33.892 -12.752 -24.515  0.00  0.00    -0.012 C 
ATOM     16  C   UNL     1      32.680 -10.547 -23.085  0.00  0.00    -0.077 C 
ATOM     17  C   UNL     1      33.932 -11.352 -25.111  0.00  0.00    -0.004 C 
ATOM     18  C   UNL     1      33.882 -10.312 -24.000  0.00  0.00    -0.023 C 
ATOM     19  H   UNL     1      33.532 -12.038 -21.953  0.00  0.00    -0.079 HD
BRANCH  13  20
ATOM     20  C   UNL     1      31.520 -12.043 -21.621  0.00  0.00    -0.077 C 
BRANCH  20  21
ATOM     21  C   UNL     1      31.944 -11.915 -20.159  0.00  0.00    -0.023 C 
BRANCH  21  22
ATOM     22  C   UNL     1      31.200 -10.773 -19.466  0.00  0.00    -0.002 C 
ATOM     23  C   UNL     1      31.944  -9.455 -19.609  0.00  0.00    -0.000 C 
ENDBRANCH  21  22
ENDBRANCH  20  21
ENDBRANCH  13  20
ENDBRANCH   3  14
TORSDOF 5
ENDMDL
MODEL 2
REMARK VINA RESULT:      -9.3      0.061      1.879
REMARK  Name = 92253
REMARK  5 active torsions:
REMARK  status: ('A' for Active; 'I' for Inactive)
REMARK    1  A    between atoms: N_2  and  C_5
REMARK    2  A    between atoms: C_3  and  C_14
REMARK    3  A    between atoms: N_13  and  C_20
REMARK    4  A    between atoms: C_20  and  C_21
REMARK    5  A    between atoms: C_21  and  C_22
REMARK                            x       y       z     vdW  Elec       q    Type
REMARK                         _______ _______ _______ _____ _____    ______ ____
ROOT
ATOM      1  O   UNL     1      31.983 -14.737 -22.246  0.00  0.00    -0.277 OA
ATOM      2  N   UNL     1      34.123 -14.830 -23.219  0.00  0.00    -0.286 N 
ATOM      3  C   UNL     1      32.889 -14.266 -22.925  0.00  0.00    +0.207 C 
ATOM      4  H   UNL     1      34.725 -14.293 -23.782  0.00  0.00    +0.155 HD
ENDROOT
BRANCH   2   5
ATOM      5  C   UNL     1      34.616 -16.089 -22.801  0.00  0.00    +0.042 C 
ATOM      6  C   UNL     1      34.855 -17.075 -23.746  0.00  0.00    -0.009 C 
ATOM      7  C   UNL     1      34.852 -16.315 -21.453  0.00  0.00    -0.009 C 
ATOM      8  C   UNL     1      35.340 -18.316 -23.335  0.00  0.00    -0.003 C 
ATOM      9  C   UNL     1      35.338 -17.556 -21.042  0.00  0.00    -0.003 C 
ATOM     10  C   UNL     1      34.605 -16.848 -25.202  0.00  0.00    +0.032 C 
ATOM     11  C   UNL     1      34.601 -15.263 -20.422  0.00  0.00    +0.032 C 
ATOM     12  C   UNL     1      35.583 -18.557 -21.982  0.00  0.00    -0.001 C 
ENDBRANCH   2   5
BRANCH   3  14
ATOM     13  N   UNL     1      32.689 -11.900 -22.490  0.00  0.00    +0.394 N 
ATOM     14  C   UNL     1      32.749 -12.913 -23.559  0.00  0.00    +0.021 C 
ATOM     15  C   UNL     1      33.965 -12.713 -24.473  0.00  0.00    -0.012 C 
ATOM     16  C   UNL     1      32.689 -10.537 -23.053  0.00  0.00    -0.077 C 
ATOM     17  C   UNL     1      34.008 -11.305 -25.051  0.00  0.00    -0.004 C 
ATOM     18  C   UNL     1      33.915 -10.280 -23.929  0.00  0.00    -0.023 C 
ATOM     19  H   UNL     1      33.521 -12.035 -21.915  0.00  0.00    -0.079 HD
BRANCH  13  20
ATOM     20  C   UNL     1      31.500 -12.063 -21.643  0.00  0.00    -0.077 C 
BRANCH  20  21
ATOM     21  C   UNL     1      31.873 -11.914 -20.169  0.00  0.00    -0.023 C 
BRANCH  21  22
ATOM     22  C   UNL     1      31.111 -10.757 -19.521  0.00  0.00    -0.002 C 
ATOM     23  C   UNL     1      31.884  -9.452 -19.627  0.00  0.00    -0.000 C 
ENDBRANCH  21  22
ENDBRANCH  20  21
ENDBRANCH  13  20
ENDBRANCH   3  14
TORSDOF 5
ENDMDL
MODEL 3
REMARK VINA RESULT:      -9.2      1.103      3.264
REMARK  Name = 92253
REMARK  5 active torsions:
REMARK  status: ('A' for Active; 'I' for Inactive)
REMARK    1  A    between atoms: N_2  and  C_5
REMARK    2  A    between atoms: C_3  and  C_14
REMARK    3  A    between atoms: N_13  and  C_20
REMARK    4  A    between atoms: C_20  and  C_21
REMARK    5  A    between atoms: C_21  and  C_22
REMARK                            x       y       z     vdW  Elec       q    Type
REMARK                         _______ _______ _______ _____ _____    ______ ____
ROOT
ATOM      1  O   UNL     1      31.983 -15.606 -21.582  0.00  0.00    -0.277 OA
ATOM      2  N   UNL     1      33.993 -15.126 -22.707  0.00  0.00    -0.286 N 
ATOM      3  C   UNL     1      32.858 -14.834 -21.960  0.00  0.00    +0.207 C 
ATOM      4  H   UNL     1      34.586 -14.367 -22.912  0.00  0.00    +0.155 HD
ENDROOT
BRANCH   2   5
ATOM      5  C   UNL     1      34.395 -16.387 -23.207  0.00  0.00    +0.042 C 
ATOM      6  C   UNL     1      34.938 -17.322 -22.340  0.00  0.00    -0.009 C 
ATOM      7  C   UNL     1      34.236 -16.666 -24.556  0.00  0.00    -0.009 C 
ATOM      8  C   UNL     1      35.335 -18.565 -22.833  0.00  0.00    -0.003 C 
ATOM      9  C   UNL     1      34.632 -17.910 -25.049  0.00  0.00    -0.003 C 
ATOM     10  C   UNL     1      35.116 -17.036 -20.884  0.00  0.00    +0.032 C 
ATOM     11  C   UNL     1      33.650 -15.670 -25.504  0.00  0.00    +0.032 C 
ATOM     12  C   UNL     1      35.180 -18.860 -24.187  0.00  0.00    -0.001 C 
ENDBRANCH   2   5
BRANCH   3  14
ATOM     13  N   UNL     1      32.023 -12.686 -22.675  0.00  0.00    +0.394 N 
ATOM     14  C   UNL     1      32.793 -13.374 -21.624  0.00  0.00    +0.021 C 
ATOM     15  C   UNL     1      32.120 -13.256 -20.249  0.00  0.00    -0.012 C 
ATOM     16  C   UNL     1      31.806 -11.269 -22.330  0.00  0.00    -0.077 C 
ATOM     17  C   UNL     1      31.858 -11.804 -19.874  0.00  0.00    -0.004 C 
ATOM     18  C   UNL     1      31.089 -11.109 -20.989  0.00  0.00    -0.023 C 
ATOM     19  H   UNL     1      31.125 -13.166 -22.739  0.00  0.00    -0.079 HD
BRANCH  13  20
ATOM     20  C   UNL     1      32.690 -12.759 -23.982  0.00  0.00    -0.077 C 
BRANCH  20  21
ATOM     21  C   UNL     1      33.825 -11.740 -24.057  0.00  0.00    -0.023 C 
BRANCH  21  22
ATOM     22  C   UNL     1      34.175 -11.409 -25.509  0.00  0.00    -0.002 C 
ATOM     23  C   UNL     1      35.299 -10.388 -25.592  0.00  0.00    -0.000 C 
ENDBRANCH  21  22
ENDBRANCH  20  21
ENDBRANCH  13  20
ENDBRANCH   3  14
TORSDOF 5
ENDMDL
MODEL 4
REMARK VINA RESULT:      -9.2      1.109      3.656
REMARK  Name = 92253
REMARK  5 active torsions:
REMARK  status: ('A' for Active; 'I' for Inactive)
REMARK    1  A    between atoms: N_2  and  C_5
REMARK    2  A    between atoms: C_3  and  C_14
REMARK    3  A    between atoms: N_13  and  C_20
REMARK    4  A    between atoms: C_20  and  C_21
REMARK    5  A    between atoms: C_21  and  C_22
REMARK                            x       y       z     vdW  Elec       q    Type
REMARK                         _______ _______ _______ _____ _____    ______ ____
ROOT
ATOM      1  O   UNL     1      31.985 -15.616 -21.574  0.00  0.00    -0.277 OA
ATOM      2  N   UNL     1      33.987 -15.138 -22.715  0.00  0.00    -0.286 N 
ATOM      3  C   UNL     1      32.856 -14.845 -21.964  0.00  0.00    +0.207 C 
ATOM      4  H   UNL     1      34.576 -14.379 -22.929  0.00  0.00    +0.155 HD
ENDROOT
BRANCH   2   5
ATOM      5  C   UNL     1      34.389 -16.402 -23.208  0.00  0.00    +0.042 C 
ATOM      6  C   UNL     1      34.231 -16.689 -24.556  0.00  0.00    -0.009 C 
ATOM      7  C   UNL     1      34.937 -17.331 -22.336  0.00  0.00    -0.009 C 
ATOM      8  C   UNL     1      34.627 -17.934 -25.043  0.00  0.00    -0.003 C 
ATOM      9  C   UNL     1      35.334 -18.576 -22.824  0.00  0.00    -0.003 C 
ATOM     10  C   UNL     1      33.642 -15.699 -25.508  0.00  0.00    +0.032 C 
ATOM     11  C   UNL     1      35.116 -17.037 -20.882  0.00  0.00    +0.032 C 
ATOM     12  C   UNL     1      35.180 -18.878 -24.177  0.00  0.00    -0.001 C 
ENDBRANCH   2   5
BRANCH   3  14
ATOM     13  N   UNL     1      32.012 -12.703 -22.690  0.00  0.00    +0.394 N 
ATOM     14  C   UNL     1      32.788 -13.383 -21.637  0.00  0.00    +0.021 C 
ATOM     15  C   UNL     1      32.122 -13.256 -20.260  0.00  0.00    -0.012 C 
ATOM     16  C   UNL     1      31.793 -11.285 -22.354  0.00  0.00    -0.077 C 
ATOM     17  C   UNL     1      31.858 -11.802 -19.895  0.00  0.00    -0.004 C 
ATOM     18  C   UNL     1      31.082 -11.118 -21.011  0.00  0.00    -0.023 C 
ATOM     19  H   UNL     1      31.115 -13.186 -22.746  0.00  0.00    -0.079 HD
BRANCH  13  20
ATOM     20  C   UNL     1      32.673 -12.785 -23.999  0.00  0.00    -0.077 C 
BRANCH  20  21
ATOM     21  C   UNL     1      33.852 -11.816 -24.061  0.00  0.00    -0.023 C 
BRANCH  21  22
ATOM     22  C   UNL     1      34.140 -11.387 -25.500  0.00  0.00    -0.002 C 
ATOM     23  C   UNL     1      35.287 -10.390 -25.565  0.00  0.00    -0.000 C 
ENDBRANCH  21  22
ENDBRANCH  20  21
ENDBRANCH  13  20
ENDBRANCH   3  14
TORSDOF 5
ENDMDL
MODEL 5
REMARK VINA RESULT:      -9.1      2.582      5.339
REMARK  Name = 92253
REMARK  5 active torsions:
REMARK  status: ('A' for Active; 'I' for Inactive)
REMARK    1  A    between atoms: N_2  and  C_5
REMARK    2  A    between atoms: C_3  and  C_14
REMARK    3  A    between atoms: N_13  and  C_20
REMARK    4  A    between atoms: C_20  and  C_21
REMARK    5  A    between atoms: C_21  and  C_22
REMARK                            x       y       z     vdW  Elec       q    Type
REMARK                         _______ _______ _______ _____ _____    ______ ____
ROOT
ATOM      1  O   UNL     1      35.048 -16.175 -19.909  0.00  0.00    -0.277 OA
ATOM      2  N   UNL     1      34.350 -17.619 -21.630  0.00  0.00    -0.286 N 
ATOM      3  C   UNL     1      34.625 -16.393 -21.039  0.00  0.00    +0.207 C 
ATOM      4  H   UNL     1      34.017 -17.592 -22.556  0.00  0.00    +0.155 HD
ENDROOT
BRANCH   2   5
ATOM      5  C   UNL     1      34.494 -18.904 -21.054  0.00  0.00    +0.042 C 
ATOM      6  C   UNL     1      35.754 -19.477 -20.973  0.00  0.00    -0.009 C 
ATOM      7  C   UNL     1      33.372 -19.567 -20.579  0.00  0.00    -0.009 C 
ATOM      8  C   UNL     1      35.895 -20.744 -20.406  0.00  0.00    -0.003 C 
ATOM      9  C   UNL     1      33.514 -20.833 -20.011  0.00  0.00    -0.003 C 
ATOM     10  C   UNL     1      36.973 -18.777 -21.481  0.00  0.00    +0.032 C 
ATOM     11  C   UNL     1      32.007 -18.962 -20.657  0.00  0.00    +0.032 C 
ATOM     12  C   UNL     1      34.776 -21.421 -19.924  0.00  0.00    -0.001 C 
ENDBRANCH   2   5
BRANCH   3  14
ATOM     13  N   UNL     1      34.052 -15.826 -23.314  0.00  0.00    +0.394 N 
ATOM     14  C   UNL     1      34.340 -15.262 -21.983  0.00  0.00    +0.021 C 
ATOM     15  C   UNL     1      33.143 -14.489 -21.416  0.00  0.00    -0.012 C 
ATOM     16  C   UNL     1      33.630 -14.772 -24.255  0.00  0.00    -0.077 C 
ATOM     17  C   UNL     1      32.665 -13.408 -22.376  0.00  0.00    -0.004 C 
ATOM     18  C   UNL     1      32.404 -14.011 -23.749  0.00  0.00    -0.023 C 
ATOM     19  H   UNL     1      33.295 -16.498 -23.188  0.00  0.00    -0.079 HD
BRANCH  13  20
ATOM     20  C   UNL     1      35.214 -16.527 -23.878  0.00  0.00    -0.077 C 
BRANCH  20  21
ATOM     21  C   UNL     1      34.862 -17.134 -25.234  0.00  0.00    -0.023 C 
BRANCH  21  22
ATOM     22  C   UNL     1      34.025 -18.403 -25.071  0.00  0.00    -0.002 C 
ATOM     23  C   UNL     1      34.875 -19.575 -24.607  0.00  0.00    -0.000 C 
ENDBRANCH  21  22
ENDBRANCH  20  21
ENDBRANCH  13  20
ENDBRANCH   3  14
TORSDOF 5
ENDMDL
MODEL 6
REMARK VINA RESULT:      -8.9      7.583     11.243
REMARK  Name = 92253
REMARK  5 active torsions:
REMARK  status: ('A' for Active; 'I' for Inactive)
REMARK    1  A    between atoms: N_2  and  C_5
REMARK    2  A    between atoms: C_3  and  C_14
REMARK    3  A    between atoms: N_13  and  C_20
REMARK    4  A    between atoms: C_20  and  C_21
REMARK    5  A    between atoms: C_21  and  C_22
REMARK                            x       y       z     vdW  Elec       q    Type
REMARK                         _______ _______ _______ _____ _____    ______ ____
ROOT
ATOM      1  O   UNL     1      33.838 -24.074 -19.090  0.00  0.00    -0.277 OA
ATOM      2  N   UNL     1      34.010 -21.911 -18.182  0.00  0.00    -0.286 N 
ATOM      3  C   UNL     1      33.617 -23.242 -18.217  0.00  0.00    +0.207 C 
ATOM      4  H   UNL     1      33.738 -21.397 -17.388  0.00  0.00    +0.155 HD
ENDROOT
BRANCH   2   5
ATOM      5  C   UNL     1      34.755 -21.207 -19.157  0.00  0.00    +0.042 C 
ATOM      6  C   UNL     1      34.089 -20.547 -20.179  0.00  0.00    -0.009 C 
ATOM      7  C   UNL     1      36.140 -21.188 -19.073  0.00  0.00    -0.009 C 
ATOM      8  C   UNL     1      34.824 -19.854 -21.140  0.00  0.00    -0.003 C 
ATOM      9  C   UNL     1      36.874 -20.493 -20.035  0.00  0.00    -0.003 C 
ATOM     10  C   UNL     1      32.599 -20.558 -20.284  0.00  0.00    +0.032 C 
ATOM     11  C   UNL     1      36.873 -21.892 -17.978  0.00  0.00    +0.032 C 
ATOM     12  C   UNL     1      36.217 -19.826 -21.068  0.00  0.00    -0.001 C 
ENDBRANCH   2   5
BRANCH   3  14
ATOM     13  N   UNL     1      33.659 -23.300 -15.804  0.00  0.00    +0.394 N 
ATOM     14  C   UNL     1      32.838 -23.608 -16.988  0.00  0.00    +0.021 C 
ATOM     15  C   UNL     1      31.539 -22.791 -17.015  0.00  0.00    -0.012 C 
ATOM     16  C   UNL     1      32.895 -23.510 -14.561  0.00  0.00    -0.077 C 
ATOM     17  C   UNL     1      30.738 -22.966 -15.732  0.00  0.00    -0.004 C 
ATOM     18  C   UNL     1      31.618 -22.670 -14.525  0.00  0.00    -0.023 C 
ATOM     19  H   UNL     1      33.926 -22.318 -15.883  0.00  0.00    -0.079 HD
BRANCH  13  20
ATOM     20  C   UNL     1      34.880 -24.116 -15.754  0.00  0.00    -0.077 C 
BRANCH  20  21
ATOM     21  C   UNL     1      35.892 -23.500 -14.790  0.00  0.00    -0.023 C 
BRANCH  21  22
ATOM     22  C   UNL     1      37.264 -24.160 -14.933  0.00  0.00    -0.002 C 
ATOM     23  C   UNL     1      37.155 -25.677 -14.936  0.00  0.00    -0.000 C 
ENDBRANCH  21  22
ENDBRANCH  20  21
ENDBRANCH  13  20
ENDBRANCH   3  14
TORSDOF 5
ENDMDL
MODEL 7
REMARK VINA RESULT:      -8.9      1.901      6.591
REMARK  Name = 92253
REMARK  5 active torsions:
REMARK  status: ('A' for Active; 'I' for Inactive)
REMARK    1  A    between atoms: N_2  and  C_5
REMARK    2  A    between atoms: C_3  and  C_14
REMARK    3  A    between atoms: N_13  and  C_20
REMARK    4  A    between atoms: C_20  and  C_21
REMARK    5  A    between atoms: C_21  and  C_22
REMARK                            x       y       z     vdW  Elec       q    Type
REMARK                         _______ _______ _______ _____ _____    ______ ____
ROOT
ATOM      1  O   UNL     1      35.380 -15.180 -21.289  0.00  0.00    -0.277 OA
ATOM      2  N   UNL     1      33.571 -14.902 -22.767  0.00  0.00    -0.286 N 
ATOM      3  C   UNL     1      34.713 -15.510 -22.264  0.00  0.00    +0.207 C 
ATOM      4  H   UNL     1      33.170 -15.319 -23.564  0.00  0.00    +0.155 HD
ENDROOT
BRANCH   2   5
ATOM      5  C   UNL     1      32.916 -13.751 -22.267  0.00  0.00    +0.042 C 
ATOM      6  C   UNL     1      32.882 -12.598 -23.036  0.00  0.00    -0.009 C 
ATOM      7  C   UNL     1      32.318 -13.797 -21.016  0.00  0.00    -0.009 C 
ATOM      8  C   UNL     1      32.237 -11.464 -22.543  0.00  0.00    -0.003 C 
ATOM      9  C   UNL     1      31.673 -12.663 -20.524  0.00  0.00    -0.003 C 
ATOM     10  C   UNL     1      33.522 -12.532 -24.385  0.00  0.00    +0.032 C 
ATOM     11  C   UNL     1      32.345 -15.032 -20.175  0.00  0.00    +0.032 C 
ATOM     12  C   UNL     1      31.632 -11.496 -21.287  0.00  0.00    -0.001 C 
ENDBRANCH   2   5
BRANCH   3  14
ATOM     13  N   UNL     1      34.369 -17.882 -22.552  0.00  0.00    +0.394 N 
ATOM     14  C   UNL     1      35.091 -16.711 -23.081  0.00  0.00    +0.021 C 
ATOM     15  C   UNL     1      34.706 -16.408 -24.535  0.00  0.00    -0.012 C 
ATOM     16  C   UNL     1      34.593 -19.068 -23.399  0.00  0.00    -0.077 C 
ATOM     17  C   UNL     1      34.901 -17.622 -25.433  0.00  0.00    -0.004 C 
ATOM     18  C   UNL     1      34.172 -18.824 -24.848  0.00  0.00    -0.023 C 
ATOM     19  H   UNL     1      33.378 -17.639 -22.555  0.00  0.00    -0.079 HD
BRANCH  13  20
ATOM     20  C   UNL     1      34.771 -18.200 -21.175  0.00  0.00    -0.077 C 
BRANCH  20  21
ATOM     21  C   UNL     1      34.679 -19.704 -20.928  0.00  0.00    -0.023 C 
BRANCH  21  22
ATOM     22  C   UNL     1      33.301 -20.093 -20.392  0.00  0.00    -0.002 C 
ATOM     23  C   UNL     1      33.367 -21.355 -19.546  0.00  0.00    -0.000 C 
ENDBRANCH  21  22
ENDBRANCH  20  21
ENDBRANCH  13  20
ENDBRANCH   3  14
TORSDOF 5
ENDMDL
MODEL 8
REMARK VINA RESULT:      -8.9      2.303      3.765
REMARK  Name = 92253
REMARK  5 active torsions:
REMARK  status: ('A' for Active; 'I' for Inactive)
REMARK    1  A    between atoms: N_2  and  C_5
REMARK    2  A    between atoms: C_3  and  C_14
REMARK    3  A    between atoms: N_13  and  C_20
REMARK    4  A    between atoms: C_20  and  C_21
REMARK    5  A    between atoms: C_21  and  C_22
REMARK                            x       y       z     vdW  Elec       q    Type
REMARK                         _______ _______ _______ _____ _____    ______ ____
ROOT
ATOM      1  O   UNL     1      34.986 -16.429 -20.419  0.00  0.00    -0.277 OA
ATOM      2  N   UNL     1      34.350 -18.285 -21.717  0.00  0.00    -0.286 N 
ATOM      3  C   UNL     1      34.446 -16.937 -21.396  0.00  0.00    +0.207 C 
ATOM      4  H   UNL     1      33.877 -18.501 -22.553  0.00  0.00    +0.155 HD
ENDROOT
BRANCH   2   5
ATOM      5  C   UNL     1      34.854 -19.384 -20.982  0.00  0.00    +0.042 C 
ATOM      6  C   UNL     1      36.222 -19.608 -20.943  0.00  0.00    -0.009 C 
ATOM      7  C   UNL     1      33.971 -20.217 -20.311  0.00  0.00    -0.009 C 
ATOM      8  C   UNL     1      36.719 -20.691 -20.218  0.00  0.00    -0.003 C 
ATOM      9  C   UNL     1      34.468 -21.300 -19.585  0.00  0.00    -0.003 C 
ATOM     10  C   UNL     1      37.187 -18.720 -21.660  0.00  0.00    +0.032 C 
ATOM     11  C   UNL     1      32.495 -19.989 -20.341  0.00  0.00    +0.032 C 
ATOM     12  C   UNL     1      35.842 -21.537 -19.538  0.00  0.00    -0.001 C 
ENDBRANCH   2   5
BRANCH   3  14
ATOM     13  N   UNL     1      33.950 -14.670 -22.059  0.00  0.00    +0.394 N 
ATOM     14  C   UNL     1      33.781 -16.085 -22.436  0.00  0.00    +0.021 C 
ATOM     15  C   UNL     1      34.450 -16.405 -23.779  0.00  0.00    -0.012 C 
ATOM     16  C   UNL     1      33.436 -13.777 -23.113  0.00  0.00    -0.077 C 
ATOM     17  C   UNL     1      33.959 -15.482 -24.886  0.00  0.00    -0.004 C 
ATOM     18  C   UNL     1      34.117 -14.029 -24.459  0.00  0.00    -0.023 C 
ATOM     19  H   UNL     1      34.952 -14.519 -21.938  0.00  0.00    -0.079 HD
BRANCH  13  20
ATOM     20  C   UNL     1      33.271 -14.353 -20.796  0.00  0.00    -0.077 C 
BRANCH  20  21
ATOM     21  C   UNL     1      32.071 -13.442 -21.051  0.00  0.00    -0.023 C 
BRANCH  21  22
ATOM     22  C   UNL     1      32.019 -12.299 -20.037  0.00  0.00    -0.002 C 
ATOM     23  C   UNL     1      31.053 -11.209 -20.475  0.00  0.00    -0.000 C 
ENDBRANCH  21  22
ENDBRANCH  20  21
ENDBRANCH  13  20
ENDBRANCH   3  14
TORSDOF 5
ENDMDL
MODEL 9
REMARK VINA RESULT:      -8.8      1.894      6.423
REMARK  Name = 92253
REMARK  5 active torsions:
REMARK  status: ('A' for Active; 'I' for Inactive)
REMARK    1  A    between atoms: N_2  and  C_5
REMARK    2  A    between atoms: C_3  and  C_14
REMARK    3  A    between atoms: N_13  and  C_20
REMARK    4  A    between atoms: C_20  and  C_21
REMARK    5  A    between atoms: C_21  and  C_22
REMARK                            x       y       z     vdW  Elec       q    Type
REMARK                         _______ _______ _______ _____ _____    ______ ____
ROOT
ATOM      1  O   UNL     1      35.291 -15.215 -21.226  0.00  0.00    -0.277 OA
ATOM      2  N   UNL     1      33.570 -14.875 -22.793  0.00  0.00    -0.286 N 
ATOM      3  C   UNL     1      34.674 -15.513 -22.243  0.00  0.00    +0.207 C 
ATOM      4  H   UNL     1      33.208 -15.268 -23.620  0.00  0.00    +0.155 HD
ENDROOT
BRANCH   2   5
ATOM      5  C   UNL     1      32.907 -13.725 -22.303  0.00  0.00    +0.042 C 
ATOM      6  C   UNL     1      32.276 -13.777 -21.070  0.00  0.00    -0.009 C 
ATOM      7  C   UNL     1      32.900 -12.566 -23.065  0.00  0.00    -0.009 C 
ATOM      8  C   UNL     1      31.622 -12.644 -20.586  0.00  0.00    -0.003 C 
ATOM      9  C   UNL     1      32.247 -11.433 -22.581  0.00  0.00    -0.003 C 
ATOM     10  C   UNL     1      32.274 -15.017 -20.237  0.00  0.00    +0.032 C 
ATOM     11  C   UNL     1      33.576 -12.494 -24.396  0.00  0.00    +0.032 C 
ATOM     12  C   UNL     1      31.608 -11.471 -21.342  0.00  0.00    -0.001 C 
ENDBRANCH   2   5
BRANCH   3  14
ATOM     13  N   UNL     1      34.388 -17.892 -22.538  0.00  0.00    +0.394 N 
ATOM     14  C   UNL     1      35.078 -16.701 -23.065  0.00  0.00    +0.021 C 
ATOM     15  C   UNL     1      34.680 -16.403 -24.517  0.00  0.00    -0.012 C 
ATOM     16  C   UNL     1      34.637 -19.068 -23.390  0.00  0.00    -0.077 C 
ATOM     17  C   UNL     1      34.901 -17.609 -25.420  0.00  0.00    -0.004 C 
ATOM     18  C   UNL     1      34.204 -18.830 -24.836  0.00  0.00    -0.023 C 
ATOM     19  H   UNL     1      33.391 -17.673 -22.536  0.00  0.00    -0.079 HD
BRANCH  13  20
ATOM     20  C   UNL     1      34.803 -18.204 -21.164  0.00  0.00    -0.077 C 
BRANCH  20  21
ATOM     21  C   UNL     1      34.694 -19.705 -20.904  0.00  0.00    -0.023 C 
BRANCH  21  22
ATOM     22  C   UNL     1      33.289 -20.085 -20.435  0.00  0.00    -0.002 C 
ATOM     23  C   UNL     1      33.317 -21.294 -19.514  0.00  0.00    -0.000 C 
ENDBRANCH  21  22
ENDBRANCH  20  21
ENDBRANCH  13  20
ENDBRANCH   3  14
TORSDOF 5
ENDMDL
