MODEL 1
REMARK VINA RESULT:      -9.9      0.000      0.000
REMARK  Name = 11779786
REMARK  7 active torsions:
REMARK  status: ('A' for Active; 'I' for Inactive)
REMARK    1  A    between atoms: C_2  and  C_11
REMARK    2  A    between atoms: C_3  and  O_14
REMARK    3  A    between atoms: C_5  and  O_8
REMARK    4  A    between atoms: C_11  and  O_12
REMARK    5  A    between atoms: O_14  and  C_15
REMARK    6  A    between atoms: C_18  and  O_22
REMARK    7  A    between atoms: C_20  and  O_24
REMARK                            x       y       z     vdW  Elec       q    Type
REMARK                         _______ _______ _______ _____ _____    ______ ____
ROOT
ATOM      1  C   UNL     1      33.554 -20.386 -20.341  0.00  0.00    -0.010 C 
ATOM      2  C   UNL     1      34.867 -19.977 -20.573  0.00  0.00    +0.105 C 
ATOM      3  C   UNL     1      34.365 -22.274 -19.070  0.00  0.00    +0.148 C 
ATOM      4  C   UNL     1      33.302 -21.534 -19.589  0.00  0.00    +0.034 C 
ATOM      5  C   UNL     1      35.929 -20.717 -20.053  0.00  0.00    +0.143 C 
ATOM      6  C   UNL     1      35.678 -21.865 -19.302  0.00  0.00    +0.074 C 
ATOM      7  C   UNL     1      32.395 -19.614 -20.883  0.00  0.00    +0.031 C 
ENDROOT
BRANCH   5   8
ATOM      8  O   UNL     1      37.221 -20.337 -20.267  0.00  0.00    -0.505 OA
ATOM      9  H   UNL     1      37.749 -20.047 -19.550  0.00  0.00    +0.292 HD
ENDBRANCH   5   8
BRANCH   2  11
ATOM     10  O   UNL     1      35.076 -18.749 -22.587  0.00  0.00    -0.245 OA
ATOM     11  C   UNL     1      35.135 -18.777 -21.358  0.00  0.00    +0.344 C 
BRANCH  11  12
ATOM     12  O   UNL     1      35.456 -17.688 -20.590  0.00  0.00    -0.441 OA
ATOM     13  C   UNL     1      34.823 -16.454 -20.946  0.00  0.00    +0.256 C 
ENDBRANCH  11  12
ENDBRANCH   2  11
BRANCH   3  14
ATOM     14  O   UNL     1      34.120 -23.395 -18.337  0.00  0.00    -0.450 OA
BRANCH  14  15
ATOM     15  C   UNL     1      33.627 -23.335 -17.060  0.00  0.00    +0.181 C 
ATOM     16  C   UNL     1      31.740 -23.146 -15.574  0.00  0.00    -0.016 C 
ATOM     17  C   UNL     1      32.255 -23.206 -16.869  0.00  0.00    +0.037 C 
ATOM     18  C   UNL     1      34.490 -23.405 -15.972  0.00  0.00    +0.203 C 
ATOM     19  C   UNL     1      32.600 -23.215 -14.477  0.00  0.00    +0.036 C 
ATOM     20  C   UNL     1      33.974 -23.345 -14.676  0.00  0.00    +0.170 C 
ATOM     21  C   UNL     1      30.271 -23.007 -15.362  0.00  0.00    +0.031 C 
BRANCH  18  22
ATOM     22  O   UNL     1      35.833 -23.535 -16.165  0.00  0.00    -0.501 OA
ATOM     23  H   UNL     1      36.259 -23.039 -16.837  0.00  0.00    +0.292 HD
ENDBRANCH  18  22
BRANCH  20  24
ATOM     24  O   UNL     1      34.803 -23.415 -13.597  0.00  0.00    -0.503 OA
ATOM     25  H   UNL     1      34.445 -23.456 -12.733  0.00  0.00    +0.292 HD
ENDBRANCH  20  24
ENDBRANCH  14  15
ENDBRANCH   3  14
TORSDOF 7
ENDMDL
MODEL 2
REMARK VINA RESULT:      -9.7      0.812      1.816
REMARK  Name = 11779786
REMARK  7 active torsions:
REMARK  status: ('A' for Active; 'I' for Inactive)
REMARK    1  A    between atoms: C_2  and  C_11
REMARK    2  A    between atoms: C_3  and  O_14
REMARK    3  A    between atoms: C_5  and  O_8
REMARK    4  A    between atoms: C_11  and  O_12
REMARK    5  A    between atoms: O_14  and  C_15
REMARK    6  A    between atoms: C_18  and  O_22
REMARK    7  A    between atoms: C_20  and  O_24
REMARK                            x       y       z     vdW  Elec       q    Type
REMARK                         _______ _______ _______ _____ _____    ______ ____
ROOT
ATOM      1  C   UNL     1      35.710 -20.724 -20.004  0.00  0.00    -0.010 C 
ATOM      2  C   UNL     1      34.631 -20.037 -20.558  0.00  0.00    +0.105 C 
ATOM      3  C   UNL     1      34.189 -22.322 -19.021  0.00  0.00    +0.148 C 
ATOM      4  C   UNL     1      35.490 -21.867 -19.235  0.00  0.00    +0.034 C 
ATOM      5  C   UNL     1      33.331 -20.493 -20.345  0.00  0.00    +0.143 C 
ATOM      6  C   UNL     1      33.109 -21.635 -19.576  0.00  0.00    +0.074 C 
ATOM      7  C   UNL     1      37.115 -20.261 -20.216  0.00  0.00    +0.031 C 
ENDROOT
BRANCH   5   8
ATOM      8  O   UNL     1      32.260 -19.836 -20.877  0.00  0.00    -0.505 OA
ATOM      9  H   UNL     1      31.708 -20.268 -21.500  0.00  0.00    +0.292 HD
ENDBRANCH   5   8
BRANCH   2  11
ATOM     10  O   UNL     1      34.714 -18.814 -22.585  0.00  0.00    -0.245 OA
ATOM     11  C   UNL     1      34.857 -18.841 -21.363  0.00  0.00    +0.344 C 
BRANCH  11  12
ATOM     12  O   UNL     1      35.242 -17.754 -20.622  0.00  0.00    -0.441 OA
ATOM     13  C   UNL     1      34.757 -16.482 -21.065  0.00  0.00    +0.256 C 
ENDBRANCH  11  12
ENDBRANCH   2  11
BRANCH   3  14
ATOM     14  O   UNL     1      33.972 -23.437 -18.270  0.00  0.00    -0.450 OA
BRANCH  14  15
ATOM     15  C   UNL     1      33.490 -23.368 -16.989  0.00  0.00    +0.181 C 
ATOM     16  C   UNL     1      31.621 -23.124 -15.488  0.00  0.00    -0.016 C 
ATOM     17  C   UNL     1      32.125 -23.194 -16.787  0.00  0.00    +0.037 C 
ATOM     18  C   UNL     1      34.358 -23.474 -15.907  0.00  0.00    +0.203 C 
ATOM     19  C   UNL     1      32.486 -23.229 -14.398  0.00  0.00    +0.036 C 
ATOM     20  C   UNL     1      33.854 -23.404 -14.608  0.00  0.00    +0.170 C 
ATOM     21  C   UNL     1      30.159 -22.937 -15.264  0.00  0.00    +0.031 C 
BRANCH  18  22
ATOM     22  O   UNL     1      35.694 -23.648 -16.111  0.00  0.00    -0.501 OA
ATOM     23  H   UNL     1      36.300 -23.479 -15.417  0.00  0.00    +0.292 HD
ENDBRANCH  18  22
BRANCH  20  24
ATOM     24  O   UNL     1      34.687 -23.508 -13.535  0.00  0.00    -0.503 OA
ATOM     25  H   UNL     1      34.474 -23.076 -12.732  0.00  0.00    +0.292 HD
ENDBRANCH  20  24
ENDBRANCH  14  15
ENDBRANCH   3  14
TORSDOF 7
ENDMDL
MODEL 3
REMARK VINA RESULT:      -9.6      2.197      7.974
REMARK  Name = 11779786
REMARK  7 active torsions:
REMARK  status: ('A' for Active; 'I' for Inactive)
REMARK    1  A    between atoms: C_2  and  C_11
REMARK    2  A    between atoms: C_3  and  O_14
REMARK    3  A    between atoms: C_5  and  O_8
REMARK    4  A    between atoms: C_11  and  O_12
REMARK    5  A    between atoms: O_14  and  C_15
REMARK    6  A    between atoms: C_18  and  O_22
REMARK    7  A    between atoms: C_20  and  O_24
REMARK                            x       y       z     vdW  Elec       q    Type
REMARK                         _______ _______ _______ _____ _____    ______ ____
ROOT
ATOM      1  C   UNL     1      35.782 -20.730 -19.908  0.00  0.00    -0.010 C 
ATOM      2  C   UNL     1      34.435 -21.084 -19.995  0.00  0.00    +0.105 C 
ATOM      3  C   UNL     1      35.355 -18.773 -21.259  0.00  0.00    +0.148 C 
ATOM      4  C   UNL     1      36.242 -19.574 -20.539  0.00  0.00    +0.034 C 
ATOM      5  C   UNL     1      33.549 -20.282 -20.714  0.00  0.00    +0.143 C 
ATOM      6  C   UNL     1      34.008 -19.127 -21.346  0.00  0.00    +0.074 C 
ATOM      7  C   UNL     1      36.755 -21.567 -19.144  0.00  0.00    +0.031 C 
ENDROOT
BRANCH   5   8
ATOM      8  O   UNL     1      32.229 -20.610 -20.813  0.00  0.00    -0.505 OA
ATOM      9  H   UNL     1      31.852 -20.789 -21.652  0.00  0.00    +0.292 HD
ENDBRANCH   5   8
BRANCH   2  11
ATOM     10  O   UNL     1      34.416 -23.410 -19.550  0.00  0.00    -0.245 OA
ATOM     11  C   UNL     1      33.950 -22.291 -19.336  0.00  0.00    +0.344 C 
BRANCH  11  12
ATOM     12  O   UNL     1      32.926 -22.054 -18.455  0.00  0.00    -0.441 OA
ATOM     13  C   UNL     1      32.760 -23.014 -17.405  0.00  0.00    +0.256 C 
ENDBRANCH  11  12
ENDBRANCH   2  11
BRANCH   3  14
ATOM     14  O   UNL     1      35.803 -17.645 -21.876  0.00  0.00    -0.450 OA
BRANCH  14  15
ATOM     15  C   UNL     1      34.951 -16.648 -22.275  0.00  0.00    +0.181 C 
ATOM     16  C   UNL     1      33.458 -14.846 -21.702  0.00  0.00    -0.016 C 
ATOM     17  C   UNL     1      34.325 -15.866 -21.310  0.00  0.00    +0.037 C 
ATOM     18  C   UNL     1      34.721 -16.422 -23.628  0.00  0.00    +0.203 C 
ATOM     19  C   UNL     1      33.222 -14.614 -23.058  0.00  0.00    +0.036 C 
ATOM     20  C   UNL     1      33.853 -15.402 -24.020  0.00  0.00    +0.170 C 
ATOM     21  C   UNL     1      32.783 -14.004 -20.673  0.00  0.00    +0.031 C 
BRANCH  18  22
ATOM     22  O   UNL     1      35.340 -17.190 -24.569  0.00  0.00    -0.501 OA
ATOM     23  H   UNL     1      34.829 -17.666 -25.193  0.00  0.00    +0.292 HD
ENDBRANCH  18  22
BRANCH  20  24
ATOM     24  O   UNL     1      33.617 -15.163 -25.340  0.00  0.00    -0.503 OA
ATOM     25  H   UNL     1      32.745 -15.217 -25.678  0.00  0.00    +0.292 HD
ENDBRANCH  20  24
ENDBRANCH  14  15
ENDBRANCH   3  14
TORSDOF 7
ENDMDL
MODEL 4
REMARK VINA RESULT:      -9.5      2.279      7.885
REMARK  Name = 11779786
REMARK  7 active torsions:
REMARK  status: ('A' for Active; 'I' for Inactive)
REMARK    1  A    between atoms: C_2  and  C_11
REMARK    2  A    between atoms: C_3  and  O_14
REMARK    3  A    between atoms: C_5  and  O_8
REMARK    4  A    between atoms: C_11  and  O_12
REMARK    5  A    between atoms: O_14  and  C_15
REMARK    6  A    between atoms: C_18  and  O_22
REMARK    7  A    between atoms: C_20  and  O_24
REMARK                            x       y       z     vdW  Elec       q    Type
REMARK                         _______ _______ _______ _____ _____    ______ ____
ROOT
ATOM      1  C   UNL     1      35.792 -20.784 -19.814  0.00  0.00    -0.010 C 
ATOM      2  C   UNL     1      34.442 -21.110 -19.946  0.00  0.00    +0.105 C 
ATOM      3  C   UNL     1      35.454 -18.826 -21.188  0.00  0.00    +0.148 C 
ATOM      4  C   UNL     1      36.299 -19.642 -20.435  0.00  0.00    +0.034 C 
ATOM      5  C   UNL     1      33.599 -20.294 -20.698  0.00  0.00    +0.143 C 
ATOM      6  C   UNL     1      34.104 -19.152 -21.320  0.00  0.00    +0.074 C 
ATOM      7  C   UNL     1      36.721 -21.638 -19.013  0.00  0.00    +0.031 C 
ENDROOT
BRANCH   5   8
ATOM      8  O   UNL     1      32.276 -20.593 -20.841  0.00  0.00    -0.505 OA
ATOM      9  H   UNL     1      32.001 -21.488 -20.885  0.00  0.00    +0.292 HD
ENDBRANCH   5   8
BRANCH   2  11
ATOM     10  O   UNL     1      34.311 -23.440 -19.544  0.00  0.00    -0.245 OA
ATOM     11  C   UNL     1      33.909 -22.303 -19.298  0.00  0.00    +0.344 C 
BRANCH  11  12
ATOM     12  O   UNL     1      32.918 -22.031 -18.390  0.00  0.00    -0.441 OA
ATOM     13  C   UNL     1      32.715 -23.008 -17.364  0.00  0.00    +0.256 C 
ENDBRANCH  11  12
ENDBRANCH   2  11
BRANCH   3  14
ATOM     14  O   UNL     1      35.948 -17.712 -21.795  0.00  0.00    -0.450 OA
BRANCH  14  15
ATOM     15  C   UNL     1      35.128 -16.747 -22.320  0.00  0.00    +0.181 C 
ATOM     16  C   UNL     1      34.000 -15.797 -24.226  0.00  0.00    -0.016 C 
ATOM     17  C   UNL     1      34.835 -16.773 -23.680  0.00  0.00    +0.037 C 
ATOM     18  C   UNL     1      34.595 -15.758 -21.500  0.00  0.00    +0.203 C 
ATOM     19  C   UNL     1      33.462 -14.802 -23.409  0.00  0.00    +0.036 C 
ATOM     20  C   UNL     1      33.760 -14.783 -22.047  0.00  0.00    +0.170 C 
ATOM     21  C   UNL     1      33.683 -15.818 -25.683  0.00  0.00    +0.031 C 
BRANCH  18  22
ATOM     22  O   UNL     1      34.883 -15.740 -20.168  0.00  0.00    -0.501 OA
ATOM     23  H   UNL     1      35.276 -14.982 -19.784  0.00  0.00    +0.292 HD
ENDBRANCH  18  22
BRANCH  20  24
ATOM     24  O   UNL     1      33.226 -13.808 -21.259  0.00  0.00    -0.503 OA
ATOM     25  H   UNL     1      33.052 -13.978 -20.355  0.00  0.00    +0.292 HD
ENDBRANCH  20  24
ENDBRANCH  14  15
ENDBRANCH   3  14
TORSDOF 7
ENDMDL
MODEL 5
REMARK VINA RESULT:      -9.2      1.893      7.627
REMARK  Name = 11779786
REMARK  7 active torsions:
REMARK  status: ('A' for Active; 'I' for Inactive)
REMARK    1  A    between atoms: C_2  and  C_11
REMARK    2  A    between atoms: C_3  and  O_14
REMARK    3  A    between atoms: C_5  and  O_8
REMARK    4  A    between atoms: C_11  and  O_12
REMARK    5  A    between atoms: O_14  and  C_15
REMARK    6  A    between atoms: C_18  and  O_22
REMARK    7  A    between atoms: C_20  and  O_24
REMARK                            x       y       z     vdW  Elec       q    Type
REMARK                         _______ _______ _______ _____ _____    ______ ____
ROOT
ATOM      1  C   UNL     1      33.964 -20.414 -20.343  0.00  0.00    -0.010 C 
ATOM      2  C   UNL     1      34.943 -21.228 -19.773  0.00  0.00    +0.105 C 
ATOM      3  C   UNL     1      35.676 -18.892 -21.111  0.00  0.00    +0.148 C 
ATOM      4  C   UNL     1      34.330 -19.246 -21.012  0.00  0.00    +0.034 C 
ATOM      5  C   UNL     1      36.288 -20.874 -19.872  0.00  0.00    +0.143 C 
ATOM      6  C   UNL     1      36.655 -19.707 -20.541  0.00  0.00    +0.074 C 
ATOM      7  C   UNL     1      32.515 -20.766 -20.254  0.00  0.00    +0.031 C 
ENDROOT
BRANCH   5   8
ATOM      8  O   UNL     1      37.261 -21.655 -19.322  0.00  0.00    -0.505 OA
ATOM      9  H   UNL     1      37.278 -22.576 -19.496  0.00  0.00    +0.292 HD
ENDBRANCH   5   8
BRANCH   2  11
ATOM     10  O   UNL     1      33.996 -23.393 -19.622  0.00  0.00    -0.245 OA
ATOM     11  C   UNL     1      34.564 -22.450 -19.072  0.00  0.00    +0.344 C 
BRANCH  11  12
ATOM     12  O   UNL     1      34.905 -22.442 -17.744  0.00  0.00    -0.441 OA
ATOM     13  C   UNL     1      34.052 -23.187 -16.868  0.00  0.00    +0.256 C 
ENDBRANCH  11  12
ENDBRANCH   2  11
BRANCH   3  14
ATOM     14  O   UNL     1      36.035 -17.752 -21.763  0.00  0.00    -0.450 OA
BRANCH  14  15
ATOM     15  C   UNL     1      35.117 -16.801 -22.123  0.00  0.00    +0.181 C 
ATOM     16  C   UNL     1      33.555 -15.081 -21.485  0.00  0.00    -0.016 C 
ATOM     17  C   UNL     1      34.491 -16.053 -21.131  0.00  0.00    +0.037 C 
ATOM     18  C   UNL     1      34.818 -16.588 -23.465  0.00  0.00    +0.203 C 
ATOM     19  C   UNL     1      33.250 -14.862 -22.828  0.00  0.00    +0.036 C 
ATOM     20  C   UNL     1      33.882 -15.615 -23.818  0.00  0.00    +0.170 C 
ATOM     21  C   UNL     1      32.881 -14.276 -20.426  0.00  0.00    +0.031 C 
BRANCH  18  22
ATOM     22  O   UNL     1      35.436 -17.322 -24.432  0.00  0.00    -0.501 OA
ATOM     23  H   UNL     1      35.919 -18.091 -24.200  0.00  0.00    +0.292 HD
ENDBRANCH  18  22
BRANCH  20  24
ATOM     24  O   UNL     1      33.577 -15.390 -25.127  0.00  0.00    -0.503 OA
ATOM     25  H   UNL     1      33.366 -14.525 -25.417  0.00  0.00    +0.292 HD
ENDBRANCH  20  24
ENDBRANCH  14  15
ENDBRANCH   3  14
TORSDOF 7
ENDMDL
MODEL 6
REMARK VINA RESULT:      -9.1      1.254      2.104
REMARK  Name = 11779786
REMARK  7 active torsions:
REMARK  status: ('A' for Active; 'I' for Inactive)
REMARK    1  A    between atoms: C_2  and  C_11
REMARK    2  A    between atoms: C_3  and  O_14
REMARK    3  A    between atoms: C_5  and  O_8
REMARK    4  A    between atoms: C_11  and  O_12
REMARK    5  A    between atoms: O_14  and  C_15
REMARK    6  A    between atoms: C_18  and  O_22
REMARK    7  A    between atoms: C_20  and  O_24
REMARK                            x       y       z     vdW  Elec       q    Type
REMARK                         _______ _______ _______ _____ _____    ______ ____
ROOT
ATOM      1  C   UNL     1      33.446 -20.316 -20.373  0.00  0.00    -0.010 C 
ATOM      2  C   UNL     1      34.812 -20.086 -20.535  0.00  0.00    +0.105 C 
ATOM      3  C   UNL     1      33.931 -22.298 -19.080  0.00  0.00    +0.148 C 
ATOM      4  C   UNL     1      33.005 -21.421 -19.645  0.00  0.00    +0.034 C 
ATOM      5  C   UNL     1      35.738 -20.962 -19.969  0.00  0.00    +0.143 C 
ATOM      6  C   UNL     1      35.298 -22.068 -19.242  0.00  0.00    +0.074 C 
ATOM      7  C   UNL     1      32.430 -19.394 -20.966  0.00  0.00    +0.031 C 
ENDROOT
BRANCH   5   8
ATOM      8  O   UNL     1      37.078 -20.758 -20.115  0.00  0.00    -0.505 OA
ATOM      9  H   UNL     1      37.482 -20.006 -19.729  0.00  0.00    +0.292 HD
ENDBRANCH   5   8
BRANCH   2  11
ATOM     10  O   UNL     1      35.415 -18.940 -22.518  0.00  0.00    -0.245 OA
ATOM     11  C   UNL     1      35.277 -18.931 -21.295  0.00  0.00    +0.344 C 
BRANCH  11  12
ATOM     12  O   UNL     1      35.543 -17.838 -20.512  0.00  0.00    -0.441 OA
ATOM     13  C   UNL     1      34.912 -16.613 -20.900  0.00  0.00    +0.256 C 
ENDBRANCH  11  12
ENDBRANCH   2  11
BRANCH   3  14
ATOM     14  O   UNL     1      33.502 -23.377 -18.370  0.00  0.00    -0.450 OA
BRANCH  14  15
ATOM     15  C   UNL     1      33.340 -23.335 -17.010  0.00  0.00    +0.181 C 
ATOM     16  C   UNL     1      34.287 -23.522 -14.802  0.00  0.00    -0.016 C 
ATOM     17  C   UNL     1      34.439 -23.565 -16.189  0.00  0.00    +0.037 C 
ATOM     18  C   UNL     1      32.091 -23.063 -16.462  0.00  0.00    +0.203 C 
ATOM     19  C   UNL     1      33.037 -23.251 -14.245  0.00  0.00    +0.036 C 
ATOM     20  C   UNL     1      31.939 -23.021 -15.075  0.00  0.00    +0.170 C 
ATOM     21  C   UNL     1      35.460 -23.769 -13.916  0.00  0.00    +0.031 C 
BRANCH  18  22
ATOM     22  O   UNL     1      31.018 -22.836 -17.272  0.00  0.00    -0.501 OA
ATOM     23  H   UNL     1      30.312 -23.451 -17.297  0.00  0.00    +0.292 HD
ENDBRANCH  18  22
BRANCH  20  24
ATOM     24  O   UNL     1      30.724 -22.754 -14.519  0.00  0.00    -0.503 OA
ATOM     25  H   UNL     1      30.476 -21.869 -14.338  0.00  0.00    +0.292 HD
ENDBRANCH  20  24
ENDBRANCH  14  15
ENDBRANCH   3  14
TORSDOF 7
ENDMDL
MODEL 7
REMARK VINA RESULT:      -9.1      7.624     12.127
REMARK  Name = 11779786
REMARK  7 active torsions:
REMARK  status: ('A' for Active; 'I' for Inactive)
REMARK    1  A    between atoms: C_2  and  C_11
REMARK    2  A    between atoms: C_3  and  O_14
REMARK    3  A    between atoms: C_5  and  O_8
REMARK    4  A    between atoms: C_11  and  O_12
REMARK    5  A    between atoms: O_14  and  C_15
REMARK    6  A    between atoms: C_18  and  O_22
REMARK    7  A    between atoms: C_20  and  O_24
REMARK                            x       y       z     vdW  Elec       q    Type
REMARK                         _______ _______ _______ _____ _____    ______ ____
ROOT
ATOM      1  C   UNL     1      32.746 -14.281 -21.694  0.00  0.00    -0.010 C 
ATOM      2  C   UNL     1      33.479 -14.081 -22.864  0.00  0.00    +0.105 C 
ATOM      3  C   UNL     1      31.989 -11.989 -21.774  0.00  0.00    +0.148 C 
ATOM      4  C   UNL     1      32.001 -13.236 -21.149  0.00  0.00    +0.034 C 
ATOM      5  C   UNL     1      33.466 -12.834 -23.489  0.00  0.00    +0.143 C 
ATOM      6  C   UNL     1      32.721 -11.788 -22.944  0.00  0.00    +0.074 C 
ATOM      7  C   UNL     1      32.739 -15.606 -21.002  0.00  0.00    +0.031 C 
ENDROOT
BRANCH   5   8
ATOM      8  O   UNL     1      34.174 -12.615 -24.633  0.00  0.00    -0.505 OA
ATOM      9  H   UNL     1      35.107 -12.712 -24.633  0.00  0.00    +0.292 HD
ENDBRANCH   5   8
BRANCH   2  11
ATOM     10  O   UNL     1      35.305 -15.586 -22.940  0.00  0.00    -0.245 OA
ATOM     11  C   UNL     1      34.259 -15.171 -23.437  0.00  0.00    +0.344 C 
BRANCH  11  12
ATOM     12  O   UNL     1      33.710 -15.687 -24.583  0.00  0.00    -0.441 OA
ATOM     13  C   UNL     1      34.361 -16.837 -25.135  0.00  0.00    +0.256 C 
ENDBRANCH  11  12
ENDBRANCH   2  11
BRANCH   3  14
ATOM     14  O   UNL     1      31.263 -10.967 -21.242  0.00  0.00    -0.450 OA
BRANCH  14  15
ATOM     15  C   UNL     1      31.648  -9.658 -21.370  0.00  0.00    +0.181 C 
ATOM     16  C   UNL     1      31.794  -7.662 -22.711  0.00  0.00    -0.016 C 
ATOM     17  C   UNL     1      31.408  -8.995 -22.569  0.00  0.00    +0.037 C 
ATOM     18  C   UNL     1      32.269  -9.004 -20.311  0.00  0.00    +0.203 C 
ATOM     19  C   UNL     1      32.418  -6.999 -21.653  0.00  0.00    +0.036 C 
ATOM     20  C   UNL     1      32.655  -7.670 -20.453  0.00  0.00    +0.170 C 
ATOM     21  C   UNL     1      31.541  -6.945 -23.993  0.00  0.00    +0.031 C 
BRANCH  18  22
ATOM     22  O   UNL     1      32.498  -9.659 -19.137  0.00  0.00    -0.501 OA
ATOM     23  H   UNL     1      33.312 -10.102 -19.000  0.00  0.00    +0.292 HD
ENDBRANCH  18  22
BRANCH  20  24
ATOM     24  O   UNL     1      33.262  -7.012 -19.426  0.00  0.00    -0.503 OA
ATOM     25  H   UNL     1      33.623  -6.159 -19.565  0.00  0.00    +0.292 HD
ENDBRANCH  20  24
ENDBRANCH  14  15
ENDBRANCH   3  14
TORSDOF 7
ENDMDL
MODEL 8
REMARK VINA RESULT:      -9.0      5.045     10.874
REMARK  Name = 11779786
REMARK  7 active torsions:
REMARK  status: ('A' for Active; 'I' for Inactive)
REMARK    1  A    between atoms: C_2  and  C_11
REMARK    2  A    between atoms: C_3  and  O_14
REMARK    3  A    between atoms: C_5  and  O_8
REMARK    4  A    between atoms: C_11  and  O_12
REMARK    5  A    between atoms: O_14  and  C_15
REMARK    6  A    between atoms: C_18  and  O_22
REMARK    7  A    between atoms: C_20  and  O_24
REMARK                            x       y       z     vdW  Elec       q    Type
REMARK                         _______ _______ _______ _____ _____    ______ ____
ROOT
ATOM      1  C   UNL     1      34.463 -16.709 -23.712  0.00  0.00    -0.010 C 
ATOM      2  C   UNL     1      34.872 -16.696 -22.379  0.00  0.00    +0.105 C 
ATOM      3  C   UNL     1      33.386 -14.568 -23.404  0.00  0.00    +0.148 C 
ATOM      4  C   UNL     1      33.720 -15.645 -24.226  0.00  0.00    +0.034 C 
ATOM      5  C   UNL     1      34.538 -15.619 -21.558  0.00  0.00    +0.143 C 
ATOM      6  C   UNL     1      33.795 -14.556 -22.070  0.00  0.00    +0.074 C 
ATOM      7  C   UNL     1      34.806 -17.848 -24.617  0.00  0.00    +0.031 C 
ENDROOT
BRANCH   5   8
ATOM      8  O   UNL     1      34.926 -15.586 -20.252  0.00  0.00    -0.505 OA
ATOM      9  H   UNL     1      34.972 -14.767 -19.797  0.00  0.00    +0.292 HD
ENDBRANCH   5   8
BRANCH   2  11
ATOM     10  O   UNL     1      36.756 -18.126 -22.269  0.00  0.00    -0.245 OA
ATOM     11  C   UNL     1      35.648 -17.806 -21.839  0.00  0.00    +0.344 C 
BRANCH  11  12
ATOM     12  O   UNL     1      35.022 -18.454 -20.805  0.00  0.00    -0.441 OA
ATOM     13  C   UNL     1      33.997 -19.384 -21.171  0.00  0.00    +0.256 C 
ENDBRANCH  11  12
ENDBRANCH   2  11
BRANCH   3  14
ATOM     14  O   UNL     1      32.661 -13.530 -23.903  0.00  0.00    -0.450 OA
BRANCH  14  15
ATOM     15  C   UNL     1      33.163 -12.257 -23.966  0.00  0.00    +0.181 C 
ATOM     16  C   UNL     1      34.647 -10.662 -24.995  0.00  0.00    -0.016 C 
ATOM     17  C   UNL     1      34.129 -11.956 -24.919  0.00  0.00    +0.037 C 
ATOM     18  C   UNL     1      32.707 -11.280 -23.087  0.00  0.00    +0.203 C 
ATOM     19  C   UNL     1      34.195  -9.677 -24.116  0.00  0.00    +0.036 C 
ATOM     20  C   UNL     1      33.225  -9.986 -23.162  0.00  0.00    +0.170 C 
ATOM     21  C   UNL     1      35.684 -10.333 -26.014  0.00  0.00    +0.031 C 
BRANCH  18  22
ATOM     22  O   UNL     1      31.757 -11.580 -22.156  0.00  0.00    -0.501 OA
ATOM     23  H   UNL     1      31.367 -12.432 -22.144  0.00  0.00    +0.292 HD
ENDBRANCH  18  22
BRANCH  20  24
ATOM     24  O   UNL     1      32.790  -9.015 -22.312  0.00  0.00    -0.503 OA
ATOM     25  H   UNL     1      33.408  -8.494 -21.839  0.00  0.00    +0.292 HD
ENDBRANCH  20  24
ENDBRANCH  14  15
ENDBRANCH   3  14
TORSDOF 7
ENDMDL
MODEL 9
REMARK VINA RESULT:      -9.0      1.548      2.924
REMARK  Name = 11779786
REMARK  7 active torsions:
REMARK  status: ('A' for Active; 'I' for Inactive)
REMARK    1  A    between atoms: C_2  and  C_11
REMARK    2  A    between atoms: C_3  and  O_14
REMARK    3  A    between atoms: C_5  and  O_8
REMARK    4  A    between atoms: C_11  and  O_12
REMARK    5  A    between atoms: O_14  and  C_15
REMARK    6  A    between atoms: C_18  and  O_22
REMARK    7  A    between atoms: C_20  and  O_24
REMARK                            x       y       z     vdW  Elec       q    Type
REMARK                         _______ _______ _______ _____ _____    ______ ____
ROOT
ATOM      1  C   UNL     1      35.641 -20.948 -19.895  0.00  0.00    -0.010 C 
ATOM      2  C   UNL     1      34.699 -20.083 -20.453  0.00  0.00    +0.105 C 
ATOM      3  C   UNL     1      33.858 -22.321 -19.015  0.00  0.00    +0.148 C 
ATOM      4  C   UNL     1      35.221 -22.067 -19.176  0.00  0.00    +0.034 C 
ATOM      5  C   UNL     1      33.338 -20.338 -20.292  0.00  0.00    +0.143 C 
ATOM      6  C   UNL     1      32.917 -21.456 -19.573  0.00  0.00    +0.074 C 
ATOM      7  C   UNL     1      37.106 -20.703 -20.051  0.00  0.00    +0.031 C 
ENDROOT
BRANCH   5   8
ATOM      8  O   UNL     1      32.400 -19.506 -20.829  0.00  0.00    -0.505 OA
ATOM      9  H   UNL     1      32.084 -18.775 -20.335  0.00  0.00    +0.292 HD
ENDBRANCH   5   8
BRANCH   2  11
ATOM     10  O   UNL     1      35.544 -17.882 -20.672  0.00  0.00    -0.245 OA
ATOM     11  C   UNL     1      35.134 -18.912 -21.206  0.00  0.00    +0.344 C 
BRANCH  11  12
ATOM     12  O   UNL     1      35.042 -19.076 -22.564  0.00  0.00    -0.441 OA
ATOM     13  C   UNL     1      35.301 -17.914 -23.360  0.00  0.00    +0.256 C 
ENDBRANCH  11  12
ENDBRANCH   2  11
BRANCH   3  14
ATOM     14  O   UNL     1      33.447 -23.412 -18.312  0.00  0.00    -0.450 OA
BRANCH  14  15
ATOM     15  C   UNL     1      33.266 -23.376 -16.955  0.00  0.00    +0.181 C 
ATOM     16  C   UNL     1      34.181 -23.577 -14.734  0.00  0.00    -0.016 C 
ATOM     17  C   UNL     1      34.352 -23.612 -16.119  0.00  0.00    +0.037 C 
ATOM     18  C   UNL     1      32.009 -23.104 -16.422  0.00  0.00    +0.203 C 
ATOM     19  C   UNL     1      32.924 -23.305 -14.194  0.00  0.00    +0.036 C 
ATOM     20  C   UNL     1      31.838 -23.069 -15.038  0.00  0.00    +0.170 C 
ATOM     21  C   UNL     1      35.341 -23.829 -13.833  0.00  0.00    +0.031 C 
BRANCH  18  22
ATOM     22  O   UNL     1      30.949 -22.871 -17.246  0.00  0.00    -0.501 OA
ATOM     23  H   UNL     1      30.131 -23.300 -17.089  0.00  0.00    +0.292 HD
ENDBRANCH  18  22
BRANCH  20  24
ATOM     24  O   UNL     1      30.616 -22.802 -14.498  0.00  0.00    -0.503 OA
ATOM     25  H   UNL     1      30.322 -21.916 -14.420  0.00  0.00    +0.292 HD
ENDBRANCH  20  24
ENDBRANCH  14  15
ENDBRANCH   3  14
TORSDOF 7
ENDMDL
