MODEL 1
REMARK VINA RESULT:      -7.3      0.000      0.000
REMARK  Name = 123920
REMARK  0 active torsions:
REMARK  status: ('A' for Active; 'I' for Inactive)
REMARK                            x       y       z     vdW  Elec       q    Type
REMARK                         _______ _______ _______ _____ _____    ______ ____
ROOT
ATOM      1 CL   UNL     1      36.743 -21.530 -19.247  0.00  0.00    -0.082 Cl
ATOM      2 CL   UNL     1      33.919 -22.769 -18.452  0.00  0.00    -0.081 Cl
ATOM      3  N   UNL     1      36.584 -18.268 -22.299  0.00  0.00    +0.387 N 
ATOM      4  C   UNL     1      34.147 -18.009 -22.157  0.00  0.00    +0.003 C 
ATOM      5  C   UNL     1      34.116 -19.182 -21.210  0.00  0.00    -0.029 C 
ATOM      6  C   UNL     1      35.317 -19.748 -20.746  0.00  0.00    -0.036 C 
ATOM      7  C   UNL     1      35.501 -17.295 -22.165  0.00  0.00    -0.077 C 
ATOM      8  C   UNL     1      36.645 -19.135 -21.116  0.00  0.00    -0.054 C 
ATOM      9  C   UNL     1      32.891 -19.749 -20.836  0.00  0.00    -0.004 C 
ATOM     10  C   UNL     1      35.271 -20.852 -19.884  0.00  0.00    +0.062 C 
ATOM     11  C   UNL     1      32.859 -20.854 -19.986  0.00  0.00    +0.012 C 
ATOM     12  C   UNL     1      34.046 -21.404 -19.509  0.00  0.00    +0.068 C 
ATOM     13  H   UNL     1      37.470 -17.773 -22.397  0.00  0.00    -0.084 HD
ATOM     14  H   UNL     1      36.409 -18.845 -23.122  0.00  0.00    -0.084 HD
ENDROOT
TORSDOF 0
ENDMDL
MODEL 2
REMARK VINA RESULT:      -7.2      3.719      5.127
REMARK  Name = 123920
REMARK  0 active torsions:
REMARK  status: ('A' for Active; 'I' for Inactive)
REMARK                            x       y       z     vdW  Elec       q    Type
REMARK                         _______ _______ _______ _____ _____    ______ ____
ROOT
ATOM      1 CL   UNL     1      34.827 -16.006 -20.676  0.00  0.00    -0.082 Cl
ATOM      2 CL   UNL     1      35.856 -18.952 -21.311  0.00  0.00    -0.081 Cl
ATOM      3  N   UNL     1      33.642 -13.606 -24.257  0.00  0.00    +0.387 N 
ATOM      4  C   UNL     1      33.682 -15.528 -25.782  0.00  0.00    +0.003 C 
ATOM      5  C   UNL     1      34.197 -16.372 -24.644  0.00  0.00    -0.029 C 
ATOM      6  C   UNL     1      34.276 -15.836 -23.346  0.00  0.00    -0.036 C 
ATOM      7  C   UNL     1      32.896 -14.307 -25.300  0.00  0.00    -0.077 C 
ATOM      8  C   UNL     1      33.765 -14.446 -23.059  0.00  0.00    -0.054 C 
ATOM      9  C   UNL     1      34.654 -17.674 -24.886  0.00  0.00    -0.004 C 
ATOM     10  C   UNL     1      34.778 -16.626 -22.303  0.00  0.00    +0.062 C 
ATOM     11  C   UNL     1      35.161 -18.447 -23.842  0.00  0.00    +0.012 C 
ATOM     12  C   UNL     1      35.222 -17.925 -22.552  0.00  0.00    +0.068 C 
ATOM     13  H   UNL     1      33.151 -12.745 -24.013  0.00  0.00    -0.084 HD
ATOM     14  H   UNL     1      34.576 -13.392 -24.606  0.00  0.00    -0.084 HD
ENDROOT
TORSDOF 0
ENDMDL
MODEL 3
REMARK VINA RESULT:      -7.1      4.550      6.037
REMARK  Name = 123920
REMARK  0 active torsions:
REMARK  status: ('A' for Active; 'I' for Inactive)
REMARK                            x       y       z     vdW  Elec       q    Type
REMARK                         _______ _______ _______ _____ _____    ______ ____
ROOT
ATOM      1 CL   UNL     1      33.775 -13.875 -22.571  0.00  0.00    -0.082 Cl
ATOM      2 CL   UNL     1      33.008 -14.021 -25.658  0.00  0.00    -0.081 Cl
ATOM      3  N   UNL     1      35.190 -17.723 -20.790  0.00  0.00    +0.387 N 
ATOM      4  C   UNL     1      35.437 -18.844 -22.960  0.00  0.00    +0.003 C 
ATOM      5  C   UNL     1      34.855 -17.618 -23.616  0.00  0.00    -0.029 C 
ATOM      6  C   UNL     1      34.601 -16.462 -22.857  0.00  0.00    -0.036 C 
ATOM      7  C   UNL     1      36.087 -18.536 -21.610  0.00  0.00    -0.077 C 
ATOM      8  C   UNL     1      34.990 -16.403 -21.400  0.00  0.00    -0.054 C 
ATOM      9  C   UNL     1      34.510 -17.646 -24.974  0.00  0.00    -0.004 C 
ATOM     10  C   UNL     1      34.039 -15.338 -23.477  0.00  0.00    +0.062 C 
ATOM     11  C   UNL     1      33.942 -16.524 -25.578  0.00  0.00    +0.012 C 
ATOM     12  C   UNL     1      33.708 -15.372 -24.832  0.00  0.00    +0.068 C 
ATOM     13  H   UNL     1      35.595 -17.606 -19.862  0.00  0.00    -0.084 HD
ATOM     14  H   UNL     1      34.287 -18.194 -20.723  0.00  0.00    -0.084 HD
ENDROOT
TORSDOF 0
ENDMDL
MODEL 4
REMARK VINA RESULT:      -7.0      4.799      6.085
REMARK  Name = 123920
REMARK  0 active torsions:
REMARK  status: ('A' for Active; 'I' for Inactive)
REMARK                            x       y       z     vdW  Elec       q    Type
REMARK                         _______ _______ _______ _____ _____    ______ ____
ROOT
ATOM      1 CL   UNL     1      33.118 -14.536 -24.906  0.00  0.00    -0.082 Cl
ATOM      2 CL   UNL     1      32.023 -12.637 -22.597  0.00  0.00    -0.081 Cl
ATOM      3  N   UNL     1      35.795 -17.840 -23.526  0.00  0.00    +0.387 N 
ATOM      4  C   UNL     1      35.262 -17.522 -21.151  0.00  0.00    +0.003 C 
ATOM      5  C   UNL     1      34.434 -16.322 -21.538  0.00  0.00    -0.029 C 
ATOM      6  C   UNL     1      34.212 -16.022 -22.894  0.00  0.00    -0.036 C 
ATOM      7  C   UNL     1      35.409 -18.527 -22.295  0.00  0.00    -0.077 C 
ATOM      8  C   UNL     1      34.721 -16.945 -23.974  0.00  0.00    -0.054 C 
ATOM      9  C   UNL     1      33.933 -15.467 -20.547  0.00  0.00    -0.004 C 
ATOM     10  C   UNL     1      33.460 -14.891 -23.236  0.00  0.00    +0.062 C 
ATOM     11  C   UNL     1      33.194 -14.338 -20.901  0.00  0.00    +0.012 C 
ATOM     12  C   UNL     1      32.956 -14.051 -22.242  0.00  0.00    +0.068 C 
ATOM     13  H   UNL     1      35.980 -18.531 -24.253  0.00  0.00    -0.084 HD
ATOM     14  H   UNL     1      36.632 -17.285 -23.346  0.00  0.00    -0.084 HD
ENDROOT
TORSDOF 0
ENDMDL
MODEL 5
REMARK VINA RESULT:      -6.9      3.839      5.269
REMARK  Name = 123920
REMARK  0 active torsions:
REMARK  status: ('A' for Active; 'I' for Inactive)
REMARK                            x       y       z     vdW  Elec       q    Type
REMARK                         _______ _______ _______ _____ _____    ______ ____
ROOT
ATOM      1 CL   UNL     1      34.913 -18.333 -24.493  0.00  0.00    -0.082 Cl
ATOM      2 CL   UNL     1      35.659 -18.896 -21.449  0.00  0.00    -0.081 Cl
ATOM      3  N   UNL     1      32.953 -14.389 -25.259  0.00  0.00    +0.387 N 
ATOM      4  C   UNL     1      33.456 -13.502 -23.026  0.00  0.00    +0.003 C 
ATOM      5  C   UNL     1      34.028 -14.849 -22.662  0.00  0.00    -0.029 C 
ATOM      6  C   UNL     1      34.164 -15.848 -23.643  0.00  0.00    -0.036 C 
ATOM      7  C   UNL     1      33.487 -13.238 -24.533  0.00  0.00    -0.077 C 
ATOM      8  C   UNL     1      33.824 -15.557 -25.084  0.00  0.00    -0.054 C 
ATOM      9  C   UNL     1      34.371 -15.130 -21.333  0.00  0.00    -0.004 C 
ATOM     10  C   UNL     1      34.676 -17.102 -23.284  0.00  0.00    +0.062 C 
ATOM     11  C   UNL     1      34.871 -16.385 -20.987  0.00  0.00    +0.012 C 
ATOM     12  C   UNL     1      35.025 -17.369 -21.960  0.00  0.00    +0.068 C 
ATOM     13  H   UNL     1      32.892 -14.162 -26.251  0.00  0.00    -0.084 HD
ATOM     14  H   UNL     1      32.028 -14.611 -24.891  0.00  0.00    -0.084 HD
ENDROOT
TORSDOF 0
ENDMDL
MODEL 6
REMARK VINA RESULT:      -6.9      2.608      4.007
REMARK  Name = 123920
REMARK  0 active torsions:
REMARK  status: ('A' for Active; 'I' for Inactive)
REMARK                            x       y       z     vdW  Elec       q    Type
REMARK                         _______ _______ _______ _____ _____    ______ ____
ROOT
ATOM      1 CL   UNL     1      37.456 -19.113 -21.285  0.00  0.00    -0.082 Cl
ATOM      2 CL   UNL     1      35.389 -17.132 -22.681  0.00  0.00    -0.081 Cl
ATOM      3  N   UNL     1      35.628 -22.096 -18.502  0.00  0.00    +0.387 N 
ATOM      4  C   UNL     1      33.330 -21.641 -19.236  0.00  0.00    +0.003 C 
ATOM      5  C   UNL     1      33.870 -20.538 -20.111  0.00  0.00    -0.029 C 
ATOM      6  C   UNL     1      35.258 -20.359 -20.249  0.00  0.00    -0.036 C 
ATOM      7  C   UNL     1      34.377 -22.716 -18.933  0.00  0.00    -0.077 C 
ATOM      8  C   UNL     1      36.222 -21.319 -19.597  0.00  0.00    -0.054 C 
ATOM      9  C   UNL     1      32.989 -19.651 -20.744  0.00  0.00    -0.004 C 
ATOM     10  C   UNL     1      35.742 -19.315 -21.049  0.00  0.00    +0.062 C 
ATOM     11  C   UNL     1      33.484 -18.610 -21.530  0.00  0.00    +0.012 C 
ATOM     12  C   UNL     1      34.857 -18.443 -21.683  0.00  0.00    +0.068 C 
ATOM     13  H   UNL     1      36.283 -22.824 -18.215  0.00  0.00    -0.084 HD
ATOM     14  H   UNL     1      35.434 -21.469 -17.721  0.00  0.00    -0.084 HD
ENDROOT
TORSDOF 0
ENDMDL
MODEL 7
REMARK VINA RESULT:      -6.8      3.430      4.659
REMARK  Name = 123920
REMARK  0 active torsions:
REMARK  status: ('A' for Active; 'I' for Inactive)
REMARK                            x       y       z     vdW  Elec       q    Type
REMARK                         _______ _______ _______ _____ _____    ______ ____
ROOT
ATOM      1 CL   UNL     1      35.030 -19.570 -21.836  0.00  0.00    -0.082 Cl
ATOM      2 CL   UNL     1      34.976 -20.144 -24.967  0.00  0.00    -0.081 Cl
ATOM      3  N   UNL     1      34.774 -15.253 -20.701  0.00  0.00    +0.387 N 
ATOM      4  C   UNL     1      34.153 -14.512 -22.957  0.00  0.00    +0.003 C 
ATOM      5  C   UNL     1      34.336 -15.931 -23.432  0.00  0.00    -0.029 C 
ATOM      6  C   UNL     1      34.589 -16.960 -22.507  0.00  0.00    -0.036 C 
ATOM      7  C   UNL     1      33.837 -14.428 -21.462  0.00  0.00    -0.077 C 
ATOM      8  C   UNL     1      34.590 -16.673 -21.025  0.00  0.00    -0.054 C 
ATOM      9  C   UNL     1      34.314 -16.220 -24.803  0.00  0.00    -0.004 C 
ATOM     10  C   UNL     1      34.779 -18.269 -22.966  0.00  0.00    +0.062 C 
ATOM     11  C   UNL     1      34.515 -17.526 -25.249  0.00  0.00    +0.012 C 
ATOM     12  C   UNL     1      34.745 -18.550 -24.333  0.00  0.00    +0.068 C 
ATOM     13  H   UNL     1      34.611 -15.114 -19.704  0.00  0.00    -0.084 HD
ATOM     14  H   UNL     1      35.726 -14.981 -20.944  0.00  0.00    -0.084 HD
ENDROOT
TORSDOF 0
ENDMDL
MODEL 8
REMARK VINA RESULT:      -6.8      4.380      5.731
REMARK  Name = 123920
REMARK  0 active torsions:
REMARK  status: ('A' for Active; 'I' for Inactive)
REMARK                            x       y       z     vdW  Elec       q    Type
REMARK                         _______ _______ _______ _____ _____    ______ ____
ROOT
ATOM      1 CL   UNL     1      34.794 -16.524 -24.991  0.00  0.00    -0.082 Cl
ATOM      2 CL   UNL     1      36.140 -18.399 -22.797  0.00  0.00    -0.081 Cl
ATOM      3  N   UNL     1      31.991 -13.438 -23.377  0.00  0.00    +0.387 N 
ATOM      4  C   UNL     1      32.678 -13.774 -21.044  0.00  0.00    +0.003 C 
ATOM      5  C   UNL     1      33.558 -14.908 -21.508  0.00  0.00    -0.029 C 
ATOM      6  C   UNL     1      33.722 -15.161 -22.881  0.00  0.00    -0.036 C 
ATOM      7  C   UNL     1      32.401 -12.755 -22.152  0.00  0.00    -0.077 C 
ATOM      8  C   UNL     1      33.093 -14.250 -23.907  0.00  0.00    -0.054 C 
ATOM      9  C   UNL     1      34.170 -15.749 -20.570  0.00  0.00    -0.004 C 
ATOM     10  C   UNL     1      34.525 -16.231 -23.295  0.00  0.00    +0.062 C 
ATOM     11  C   UNL     1      34.960 -16.818 -20.994  0.00  0.00    +0.012 C 
ATOM     12  C   UNL     1      35.139 -17.058 -22.353  0.00  0.00    +0.068 C 
ATOM     13  H   UNL     1      31.720 -12.745 -24.074  0.00  0.00    -0.084 HD
ATOM     14  H   UNL     1      31.204 -14.051 -23.165  0.00  0.00    -0.084 HD
ENDROOT
TORSDOF 0
ENDMDL
MODEL 9
REMARK VINA RESULT:      -6.8      3.653      4.733
REMARK  Name = 123920
REMARK  0 active torsions:
REMARK  status: ('A' for Active; 'I' for Inactive)
REMARK                            x       y       z     vdW  Elec       q    Type
REMARK                         _______ _______ _______ _____ _____    ______ ____
ROOT
ATOM      1 CL   UNL     1      34.757 -16.960 -25.574  0.00  0.00    -0.082 Cl
ATOM      2 CL   UNL     1      34.956 -20.056 -24.856  0.00  0.00    -0.081 Cl
ATOM      3  N   UNL     1      33.984 -14.260 -22.096  0.00  0.00    +0.387 N 
ATOM      4  C   UNL     1      34.422 -15.998 -20.419  0.00  0.00    +0.003 C 
ATOM      5  C   UNL     1      34.580 -16.990 -21.544  0.00  0.00    -0.029 C 
ATOM      6  C   UNL     1      34.573 -16.551 -22.880  0.00  0.00    -0.036 C 
ATOM      7  C   UNL     1      34.703 -14.560 -20.859  0.00  0.00    -0.077 C 
ATOM      8  C   UNL     1      34.498 -15.078 -23.201  0.00  0.00    -0.054 C 
ATOM      9  C   UNL     1      34.675 -18.359 -21.264  0.00  0.00    -0.004 C 
ATOM     10  C   UNL     1      34.699 -17.487 -23.915  0.00  0.00    +0.062 C 
ATOM     11  C   UNL     1      34.790 -19.283 -22.303  0.00  0.00    +0.012 C 
ATOM     12  C   UNL     1      34.803 -18.848 -23.626  0.00  0.00    +0.068 C 
ATOM     13  H   UNL     1      34.105 -13.274 -22.325  0.00  0.00    -0.084 HD
ATOM     14  H   UNL     1      32.995 -14.472 -21.963  0.00  0.00    -0.084 HD
ENDROOT
TORSDOF 0
ENDMDL
