MODEL 1
REMARK VINA RESULT:      -9.2      0.000      0.000
REMARK  Name = 44129608
REMARK  4 active torsions:
REMARK  status: ('A' for Active; 'I' for Inactive)
REMARK    1  A    between atoms: C_4  and  N_12
REMARK    2  A    between atoms: C_6  and  C_22
REMARK    3  A    between atoms: C_14  and  C_17
REMARK    4  A    between atoms: C_17  and  N_18
REMARK                            x       y       z     vdW  Elec       q    Type
REMARK                         _______ _______ _______ _____ _____    ______ ____
ROOT
ATOM      1  N   UNL     1      31.011 -23.309 -16.291  0.00  0.00    -0.228 NA
ATOM      2  N   UNL     1      30.409 -24.472 -14.257  0.00  0.00    -0.220 N 
ATOM      3  N   UNL     1      30.986 -25.057 -13.191  0.00  0.00    -0.178 NA
ATOM      4  C   UNL     1      33.675 -23.767 -15.342  0.00  0.00    +0.054 C 
ATOM      5  C   UNL     1      32.558 -24.206 -14.620  0.00  0.00    +0.067 C 
ATOM      6  C   UNL     1      33.436 -23.099 -16.542  0.00  0.00    +0.033 C 
ATOM      7  C   UNL     1      31.302 -23.947 -15.144  0.00  0.00    +0.150 C 
ATOM      8  C   UNL     1      32.121 -22.904 -16.954  0.00  0.00    +0.102 C 
ATOM      9  C   UNL     1      32.294 -24.892 -13.418  0.00  0.00    +0.122 C 
ATOM     10  H   UNL     1      29.434 -24.428 -14.385  0.00  0.00    +0.176 HD
ENDROOT
BRANCH   4  12
ATOM     11  O   UNL     1      37.476 -24.538 -13.720  0.00  0.00    -0.355 OA
ATOM     12  N   UNL     1      34.975 -23.992 -14.878  0.00  0.00    -0.303 N 
ATOM     13  C   UNL     1      35.601 -25.306 -15.060  0.00  0.00    +0.118 C 
ATOM     14  C   UNL     1      37.124 -25.172 -14.955  0.00  0.00    +0.113 C 
ATOM     15  C   UNL     1      35.428 -23.242 -13.699  0.00  0.00    +0.123 C 
ATOM     16  C   UNL     1      36.951 -23.213 -13.663  0.00  0.00    +0.163 C 
BRANCH  14  17
ATOM     17  C   UNL     1      37.799 -26.536 -14.987  0.00  0.00    -0.054 C 
BRANCH  17  18
ATOM     18  N   UNL     1      39.032 -26.529 -14.212  0.00  0.00    +0.382 N 
ATOM     19  H   UNL     1      38.893 -27.051 -13.347  0.00  0.00    -0.089 HD
ATOM     20  H   UNL     1      39.290 -25.567 -13.992  0.00  0.00    -0.089 HD
ATOM     21  H   UNL     1      39.777 -26.965 -14.755  0.00  0.00    -0.089 HD
ENDBRANCH  17  18
ENDBRANCH  14  17
ENDBRANCH   4  12
BRANCH   6  22
ATOM     22  C   UNL     1      34.518 -22.603 -17.367  0.00  0.00    +0.003 C 
ATOM     23  C   UNL     1      34.334 -22.451 -18.742  0.00  0.00    +0.000 C 
ATOM     24  C   UNL     1      35.744 -22.277 -16.789  0.00  0.00    +0.000 C 
ATOM     25  C   UNL     1      35.375 -21.974 -19.538  0.00  0.00    +0.000 C 
ATOM     26  C   UNL     1      36.786 -21.800 -17.583  0.00  0.00    +0.000 C 
ATOM     27  C   UNL     1      36.602 -21.648 -18.957  0.00  0.00    +0.000 C 
ENDBRANCH   6  22
TORSDOF 4
ENDMDL
MODEL 2
REMARK VINA RESULT:      -8.0      2.158      4.967
REMARK  Name = 44129608
REMARK  4 active torsions:
REMARK  status: ('A' for Active; 'I' for Inactive)
REMARK    1  A    between atoms: C_4  and  N_12
REMARK    2  A    between atoms: C_6  and  C_22
REMARK    3  A    between atoms: C_14  and  C_17
REMARK    4  A    between atoms: C_17  and  N_18
REMARK                            x       y       z     vdW  Elec       q    Type
REMARK                         _______ _______ _______ _____ _____    ______ ____
ROOT
ATOM      1  N   UNL     1      32.697 -21.860 -18.764  0.00  0.00    -0.228 NA
ATOM      2  N   UNL     1      34.906 -21.430 -19.651  0.00  0.00    -0.220 N 
ATOM      3  N   UNL     1      36.200 -21.630 -19.344  0.00  0.00    -0.178 NA
ATOM      4  C   UNL     1      34.179 -23.066 -16.630  0.00  0.00    +0.054 C 
ATOM      5  C   UNL     1      34.825 -22.482 -17.726  0.00  0.00    +0.067 C 
ATOM      6  C   UNL     1      32.785 -23.036 -16.620  0.00  0.00    +0.033 C 
ATOM      7  C   UNL     1      34.039 -21.919 -18.719  0.00  0.00    +0.150 C 
ATOM      8  C   UNL     1      32.117 -22.437 -17.684  0.00  0.00    +0.102 C 
ATOM      9  C   UNL     1      36.145 -22.271 -18.171  0.00  0.00    +0.122 C 
ATOM     10  H   UNL     1      34.611 -20.972 -20.472  0.00  0.00    +0.176 HD
ENDROOT
BRANCH   4  12
ATOM     11  O   UNL     1      36.568 -24.849 -13.664  0.00  0.00    -0.355 OA
ATOM     12  N   UNL     1      34.903 -23.655 -15.588  0.00  0.00    -0.303 N 
ATOM     13  C   UNL     1      35.728 -22.822 -14.707  0.00  0.00    +0.118 C 
ATOM     14  C   UNL     1      35.995 -23.564 -13.393  0.00  0.00    +0.113 C 
ATOM     15  C   UNL     1      35.377 -25.034 -15.768  0.00  0.00    +0.123 C 
ATOM     16  C   UNL     1      35.661 -25.661 -14.408  0.00  0.00    +0.163 C 
BRANCH  14  17
ATOM     17  C   UNL     1      36.972 -22.795 -12.515  0.00  0.00    -0.054 C 
BRANCH  17  18
ATOM     18  N   UNL     1      37.234 -23.507 -11.273  0.00  0.00    +0.382 N 
ATOM     19  H   UNL     1      36.561 -24.266 -11.168  0.00  0.00    -0.089 HD
ATOM     20  H   UNL     1      37.147 -22.863 -10.487  0.00  0.00    -0.089 HD
ATOM     21  H   UNL     1      38.179 -23.892 -11.294  0.00  0.00    -0.089 HD
ENDBRANCH  17  18
ENDBRANCH  14  17
ENDBRANCH   4  12
BRANCH   6  22
ATOM     22  C   UNL     1      32.017 -23.610 -15.535  0.00  0.00    +0.003 C 
ATOM     23  C   UNL     1      32.063 -23.034 -14.266  0.00  0.00    +0.000 C 
ATOM     24  C   UNL     1      31.230 -24.741 -15.758  0.00  0.00    +0.000 C 
ATOM     25  C   UNL     1      31.325 -23.586 -13.219  0.00  0.00    +0.000 C 
ATOM     26  C   UNL     1      30.491 -25.293 -14.713  0.00  0.00    +0.000 C 
ATOM     27  C   UNL     1      30.538 -24.717 -13.444  0.00  0.00    +0.000 C 
ENDBRANCH   6  22
TORSDOF 4
ENDMDL
MODEL 3
REMARK VINA RESULT:      -7.7      2.064      4.380
REMARK  Name = 44129608
REMARK  4 active torsions:
REMARK  status: ('A' for Active; 'I' for Inactive)
REMARK    1  A    between atoms: C_4  and  N_12
REMARK    2  A    between atoms: C_6  and  C_22
REMARK    3  A    between atoms: C_14  and  C_17
REMARK    4  A    between atoms: C_17  and  N_18
REMARK                            x       y       z     vdW  Elec       q    Type
REMARK                         _______ _______ _______ _____ _____    ______ ____
ROOT
ATOM      1  N   UNL     1      31.271 -24.770 -13.538  0.00  0.00    -0.228 NA
ATOM      2  N   UNL     1      29.656 -23.661 -14.957  0.00  0.00    -0.220 N 
ATOM      3  N   UNL     1      29.602 -22.914 -16.074  0.00  0.00    -0.178 NA
ATOM      4  C   UNL     1      33.135 -23.707 -15.436  0.00  0.00    +0.054 C 
ATOM      5  C   UNL     1      31.759 -23.480 -15.561  0.00  0.00    +0.067 C 
ATOM      6  C   UNL     1      33.560 -24.471 -14.349  0.00  0.00    +0.033 C 
ATOM      7  C   UNL     1      30.920 -24.028 -14.603  0.00  0.00    +0.150 C 
ATOM      8  C   UNL     1      32.610 -24.962 -13.459  0.00  0.00    +0.102 C 
ATOM      9  C   UNL     1      30.885 -22.807 -16.437  0.00  0.00    +0.122 C 
ATOM     10  H   UNL     1      28.856 -23.919 -14.442  0.00  0.00    +0.176 HD
ENDROOT
BRANCH   4  12
ATOM     11  O   UNL     1      35.732 -21.912 -18.213  0.00  0.00    -0.355 OA
ATOM     12  N   UNL     1      34.045 -23.187 -16.363  0.00  0.00    -0.303 N 
ATOM     13  C   UNL     1      35.213 -22.430 -15.897  0.00  0.00    +0.118 C 
ATOM     14  C   UNL     1      36.286 -22.413 -16.991  0.00  0.00    +0.113 C 
ATOM     15  C   UNL     1      33.539 -22.804 -17.687  0.00  0.00    +0.123 C 
ATOM     16  C   UNL     1      34.691 -22.767 -18.685  0.00  0.00    +0.163 C 
BRANCH  14  17
ATOM     17  C   UNL     1      37.450 -21.511 -16.604  0.00  0.00    -0.054 C 
BRANCH  17  18
ATOM     18  N   UNL     1      37.447 -20.286 -17.390  0.00  0.00    +0.382 N 
ATOM     19  H   UNL     1      38.408 -19.996 -17.572  0.00  0.00    -0.089 HD
ATOM     20  H   UNL     1      36.963 -19.551 -16.874  0.00  0.00    -0.089 HD
ATOM     21  H   UNL     1      36.969 -20.450 -18.275  0.00  0.00    -0.089 HD
ENDBRANCH  17  18
ENDBRANCH  14  17
ENDBRANCH   4  12
BRANCH   6  22
ATOM     22  C   UNL     1      34.960 -24.765 -14.125  0.00  0.00    +0.003 C 
ATOM     23  C   UNL     1      35.632 -24.183 -13.051  0.00  0.00    +0.000 C 
ATOM     24  C   UNL     1      35.638 -25.631 -14.983  0.00  0.00    +0.000 C 
ATOM     25  C   UNL     1      36.981 -24.465 -12.834  0.00  0.00    +0.000 C 
ATOM     26  C   UNL     1      36.986 -25.915 -14.767  0.00  0.00    +0.000 C 
ATOM     27  C   UNL     1      37.657 -25.332 -13.693  0.00  0.00    +0.000 C 
ENDBRANCH   6  22
TORSDOF 4
ENDMDL
MODEL 4
REMARK VINA RESULT:      -7.5     13.047     15.477
REMARK  Name = 44129608
REMARK  4 active torsions:
REMARK  status: ('A' for Active; 'I' for Inactive)
REMARK    1  A    between atoms: C_4  and  N_12
REMARK    2  A    between atoms: C_6  and  C_22
REMARK    3  A    between atoms: C_14  and  C_17
REMARK    4  A    between atoms: C_17  and  N_18
REMARK                            x       y       z     vdW  Elec       q    Type
REMARK                         _______ _______ _______ _____ _____    ______ ____
ROOT
ATOM      1  N   UNL     1      31.443 -11.566 -20.228  0.00  0.00    -0.228 NA
ATOM      2  N   UNL     1      32.065 -13.900 -20.350  0.00  0.00    -0.220 N 
ATOM      3  N   UNL     1      32.701 -14.759 -21.167  0.00  0.00    -0.178 NA
ATOM      4  C   UNL     1      32.762 -11.450 -22.768  0.00  0.00    +0.054 C 
ATOM      5  C   UNL     1      32.667 -12.649 -22.051  0.00  0.00    +0.067 C 
ATOM      6  C   UNL     1      32.188 -10.316 -22.195  0.00  0.00    +0.033 C 
ATOM      7  C   UNL     1      32.014 -12.624 -20.828  0.00  0.00    +0.150 C 
ATOM      8  C   UNL     1      31.560 -10.431 -20.959  0.00  0.00    +0.102 C 
ATOM      9  C   UNL     1      33.066 -13.992 -22.200  0.00  0.00    +0.122 C 
ATOM     10  H   UNL     1      31.671 -14.168 -19.488  0.00  0.00    +0.176 HD
ENDROOT
BRANCH   4  12
ATOM     11  O   UNL     1      34.902 -11.421 -26.387  0.00  0.00    -0.355 OA
ATOM     12  N   UNL     1      33.407 -11.394 -24.009  0.00  0.00    -0.303 N 
ATOM     13  C   UNL     1      33.260 -12.501 -24.961  0.00  0.00    +0.118 C 
ATOM     14  C   UNL     1      33.599 -12.016 -26.374  0.00  0.00    +0.113 C 
ATOM     15  C   UNL     1      34.674 -10.658 -24.097  0.00  0.00    +0.123 C 
ATOM     16  C   UNL     1      34.941 -10.269 -25.547  0.00  0.00    +0.163 C 
BRANCH  14  17
ATOM     17  C   UNL     1      33.606 -13.172 -27.365  0.00  0.00    -0.054 C 
BRANCH  17  18
ATOM     18  N   UNL     1      33.233 -14.421 -26.717  0.00  0.00    +0.382 N 
ATOM     19  H   UNL     1      32.334 -14.737 -27.079  0.00  0.00    -0.089 HD
ATOM     20  H   UNL     1      33.161 -14.273 -25.710  0.00  0.00    -0.089 HD
ATOM     21  H   UNL     1      33.944 -15.128 -26.906  0.00  0.00    -0.089 HD
ENDBRANCH  17  18
ENDBRANCH  14  17
ENDBRANCH   4  12
BRANCH   6  22
ATOM     22  C   UNL     1      32.228  -9.026 -22.852  0.00  0.00    +0.003 C 
ATOM     23  C   UNL     1      31.166  -8.621 -23.661  0.00  0.00    +0.000 C 
ATOM     24  C   UNL     1      33.329  -8.187 -22.677  0.00  0.00    +0.000 C 
ATOM     25  C   UNL     1      31.204  -7.379 -24.294  0.00  0.00    +0.000 C 
ATOM     26  C   UNL     1      33.368  -6.945 -23.310  0.00  0.00    +0.000 C 
ATOM     27  C   UNL     1      32.306  -6.541 -24.118  0.00  0.00    +0.000 C 
ENDBRANCH   6  22
TORSDOF 4
ENDMDL
MODEL 5
REMARK VINA RESULT:      -7.2      2.374      5.195
REMARK  Name = 44129608
REMARK  4 active torsions:
REMARK  status: ('A' for Active; 'I' for Inactive)
REMARK    1  A    between atoms: C_4  and  N_12
REMARK    2  A    between atoms: C_6  and  C_22
REMARK    3  A    between atoms: C_14  and  C_17
REMARK    4  A    between atoms: C_17  and  N_18
REMARK                            x       y       z     vdW  Elec       q    Type
REMARK                         _______ _______ _______ _____ _____    ______ ____
ROOT
ATOM      1  N   UNL     1      37.694 -23.164 -13.613  0.00  0.00    -0.228 NA
ATOM      2  N   UNL     1      37.210 -23.827 -11.337  0.00  0.00    -0.220 N 
ATOM      3  N   UNL     1      36.174 -24.217 -10.572  0.00  0.00    -0.178 NA
ATOM      4  C   UNL     1      34.887 -23.615 -13.963  0.00  0.00    +0.054 C 
ATOM      5  C   UNL     1      35.506 -23.807 -12.722  0.00  0.00    +0.067 C 
ATOM      6  C   UNL     1      35.693 -23.194 -15.020  0.00  0.00    +0.033 C 
ATOM      7  C   UNL     1      36.868 -23.569 -12.632  0.00  0.00    +0.150 C 
ATOM      8  C   UNL     1      37.050 -22.992 -14.792  0.00  0.00    +0.102 C 
ATOM      9  C   UNL     1      35.140 -24.203 -11.420  0.00  0.00    +0.122 C 
ATOM     10  H   UNL     1      38.129 -23.737 -10.995  0.00  0.00    +0.176 HD
ENDROOT
BRANCH   4  12
ATOM     11  O   UNL     1      30.743 -24.284 -14.206  0.00  0.00    -0.355 OA
ATOM     12  N   UNL     1      33.515 -23.835 -14.133  0.00  0.00    -0.303 N 
ATOM     13  C   UNL     1      32.584 -22.702 -14.111  0.00  0.00    +0.118 C 
ATOM     14  C   UNL     1      31.275 -23.096 -14.803  0.00  0.00    +0.113 C 
ATOM     15  C   UNL     1      32.958 -25.112 -13.670  0.00  0.00    +0.123 C 
ATOM     16  C   UNL     1      31.636 -25.382 -14.381  0.00  0.00    +0.163 C 
BRANCH  14  17
ATOM     17  C   UNL     1      30.229 -21.998 -14.667  0.00  0.00    -0.054 C 
BRANCH  17  18
ATOM     18  N   UNL     1      28.978 -22.384 -15.303  0.00  0.00    +0.382 N 
ATOM     19  H   UNL     1      29.173 -22.999 -16.092  0.00  0.00    -0.089 HD
ATOM     20  H   UNL     1      28.493 -21.550 -15.633  0.00  0.00    -0.089 HD
ATOM     21  H   UNL     1      28.390 -22.874 -14.628  0.00  0.00    -0.089 HD
ENDBRANCH  17  18
ENDBRANCH  14  17
ENDBRANCH   4  12
BRANCH   6  22
ATOM     22  C   UNL     1      35.155 -22.965 -16.345  0.00  0.00    +0.003 C 
ATOM     23  C   UNL     1      35.844 -22.156 -17.248  0.00  0.00    +0.000 C 
ATOM     24  C   UNL     1      33.947 -23.554 -16.720  0.00  0.00    +0.000 C 
ATOM     25  C   UNL     1      35.326 -21.934 -18.524  0.00  0.00    +0.000 C 
ATOM     26  C   UNL     1      33.429 -23.333 -17.995  0.00  0.00    +0.000 C 
ATOM     27  C   UNL     1      34.118 -22.524 -18.897  0.00  0.00    +0.000 C 
ENDBRANCH   6  22
TORSDOF 4
ENDMDL
MODEL 6
REMARK VINA RESULT:      -7.0     13.872     16.606
REMARK  Name = 44129608
REMARK  4 active torsions:
REMARK  status: ('A' for Active; 'I' for Inactive)
REMARK    1  A    between atoms: C_4  and  N_12
REMARK    2  A    between atoms: C_6  and  C_22
REMARK    3  A    between atoms: C_14  and  C_17
REMARK    4  A    between atoms: C_17  and  N_18
REMARK                            x       y       z     vdW  Elec       q    Type
REMARK                         _______ _______ _______ _____ _____    ______ ____
ROOT
ATOM      1  N   UNL     1      32.586 -13.839 -23.495  0.00  0.00    -0.228 NA
ATOM      2  N   UNL     1      33.434 -13.712 -25.757  0.00  0.00    -0.220 N 
ATOM      3  N   UNL     1      33.869 -12.803 -26.648  0.00  0.00    -0.178 NA
ATOM      4  C   UNL     1      32.952 -10.999 -23.579  0.00  0.00    +0.054 C 
ATOM      5  C   UNL     1      33.262 -11.806 -24.680  0.00  0.00    +0.067 C 
ATOM      6  C   UNL     1      32.457 -11.634 -22.440  0.00  0.00    +0.033 C 
ATOM      7  C   UNL     1      33.058 -13.172 -24.563  0.00  0.00    +0.150 C 
ATOM      8  C   UNL     1      32.300 -13.017 -22.456  0.00  0.00    +0.102 C 
ATOM      9  C   UNL     1      33.762 -11.645 -25.988  0.00  0.00    +0.122 C 
ATOM     10  H   UNL     1      33.390 -14.677 -25.949  0.00  0.00    +0.176 HD
ENDROOT
BRANCH   4  12
ATOM     11  O   UNL     1      33.573  -6.858 -23.960  0.00  0.00    -0.355 OA
ATOM     12  N   UNL     1      33.131  -9.612 -23.621  0.00  0.00    -0.303 N 
ATOM     13  C   UNL     1      32.061  -8.751 -24.138  0.00  0.00    +0.118 C 
ATOM     14  C   UNL     1      32.259  -7.320 -23.627  0.00  0.00    +0.113 C 
ATOM     15  C   UNL     1      34.493  -9.096 -23.806  0.00  0.00    +0.123 C 
ATOM     16  C   UNL     1      34.567  -7.654 -23.316  0.00  0.00    +0.163 C 
BRANCH  14  17
ATOM     17  C   UNL     1      31.257  -6.366 -24.264  0.00  0.00    -0.054 C 
BRANCH  17  18
ATOM     18  N   UNL     1      30.793  -5.375 -23.304  0.00  0.00    +0.382 N 
ATOM     19  H   UNL     1      31.211  -5.562 -22.393  0.00  0.00    -0.089 HD
ATOM     20  H   UNL     1      29.777  -5.424 -23.229  0.00  0.00    -0.089 HD
ATOM     21  H   UNL     1      31.066  -4.444 -23.618  0.00  0.00    -0.089 HD
ENDBRANCH  17  18
ENDBRANCH  14  17
ENDBRANCH   4  12
BRANCH   6  22
ATOM     22  C   UNL     1      32.104 -10.894 -21.247  0.00  0.00    +0.003 C 
ATOM     23  C   UNL     1      32.303  -9.515 -21.197  0.00  0.00    +0.000 C 
ATOM     24  C   UNL     1      31.565 -11.560 -20.146  0.00  0.00    +0.000 C 
ATOM     25  C   UNL     1      31.964  -8.801 -20.047  0.00  0.00    +0.000 C 
ATOM     26  C   UNL     1      31.225 -10.848 -18.997  0.00  0.00    +0.000 C 
ATOM     27  C   UNL     1      31.424  -9.468 -18.947  0.00  0.00    +0.000 C 
ENDBRANCH   6  22
TORSDOF 4
ENDMDL
MODEL 7
REMARK VINA RESULT:      -7.0     10.825     13.665
REMARK  Name = 44129608
REMARK  4 active torsions:
REMARK  status: ('A' for Active; 'I' for Inactive)
REMARK    1  A    between atoms: C_4  and  N_12
REMARK    2  A    between atoms: C_6  and  C_22
REMARK    3  A    between atoms: C_14  and  C_17
REMARK    4  A    between atoms: C_17  and  N_18
REMARK                            x       y       z     vdW  Elec       q    Type
REMARK                         _______ _______ _______ _____ _____    ______ ____
ROOT
ATOM      1  N   UNL     1      33.465 -16.705 -20.995  0.00  0.00    -0.228 NA
ATOM      2  N   UNL     1      34.778 -17.903 -22.635  0.00  0.00    -0.220 N 
ATOM      3  N   UNL     1      35.320 -17.728 -23.854  0.00  0.00    -0.178 NA
ATOM      4  C   UNL     1      33.593 -14.612 -22.947  0.00  0.00    +0.054 C 
ATOM      5  C   UNL     1      34.208 -15.850 -23.166  0.00  0.00    +0.067 C 
ATOM      6  C   UNL     1      32.915 -14.440 -21.740  0.00  0.00    +0.033 C 
ATOM      7  C   UNL     1      34.102 -16.813 -22.174  0.00  0.00    +0.150 C 
ATOM      8  C   UNL     1      32.886 -15.491 -20.829  0.00  0.00    +0.102 C 
ATOM      9  C   UNL     1      34.970 -16.477 -24.172  0.00  0.00    +0.122 C 
ATOM     10  H   UNL     1      34.862 -18.741 -22.124  0.00  0.00    +0.176 HD
ENDROOT
BRANCH   4  12
ATOM     11  O   UNL     1      33.524 -11.487 -25.759  0.00  0.00    -0.355 OA
ATOM     12  N   UNL     1      33.656 -13.590 -23.900  0.00  0.00    -0.303 N 
ATOM     13  C   UNL     1      33.951 -12.215 -23.482  0.00  0.00    +0.118 C 
ATOM     14  C   UNL     1      34.462 -11.408 -24.680  0.00  0.00    +0.113 C 
ATOM     15  C   UNL     1      32.819 -13.712 -25.101  0.00  0.00    +0.123 C 
ATOM     16  C   UNL     1      33.384 -12.833 -26.211  0.00  0.00    +0.163 C 
BRANCH  14  17
ATOM     17  C   UNL     1      34.634  -9.939 -24.320  0.00  0.00    -0.054 C 
BRANCH  17  18
ATOM     18  N   UNL     1      33.509  -9.457 -23.532  0.00  0.00    +0.382 N 
ATOM     19  H   UNL     1      32.796  -9.077 -24.153  0.00  0.00    -0.089 HD
ATOM     20  H   UNL     1      33.828  -8.728 -22.894  0.00  0.00    -0.089 HD
ATOM     21  H   UNL     1      33.114 -10.229 -22.995  0.00  0.00    -0.089 HD
ENDBRANCH  17  18
ENDBRANCH  14  17
ENDBRANCH   4  12
BRANCH   6  22
ATOM     22  C   UNL     1      32.244 -13.199 -21.413  0.00  0.00    +0.003 C 
ATOM     23  C   UNL     1      32.341 -12.672 -20.125  0.00  0.00    +0.000 C 
ATOM     24  C   UNL     1      31.501 -12.530 -22.385  0.00  0.00    +0.000 C 
ATOM     25  C   UNL     1      31.695 -11.477 -19.808  0.00  0.00    +0.000 C 
ATOM     26  C   UNL     1      30.855 -11.335 -22.069  0.00  0.00    +0.000 C 
ATOM     27  C   UNL     1      30.952 -10.809 -20.782  0.00  0.00    +0.000 C 
ENDBRANCH   6  22
TORSDOF 4
ENDMDL
MODEL 8
REMARK VINA RESULT:      -7.0      2.765      4.915
REMARK  Name = 44129608
REMARK  4 active torsions:
REMARK  status: ('A' for Active; 'I' for Inactive)
REMARK    1  A    between atoms: C_4  and  N_12
REMARK    2  A    between atoms: C_6  and  C_22
REMARK    3  A    between atoms: C_14  and  C_17
REMARK    4  A    between atoms: C_17  and  N_18
REMARK                            x       y       z     vdW  Elec       q    Type
REMARK                         _______ _______ _______ _____ _____    ______ ____
ROOT
ATOM      1  N   UNL     1      31.578 -23.915 -13.459  0.00  0.00    -0.228 NA
ATOM      2  N   UNL     1      29.417 -23.655 -14.514  0.00  0.00    -0.220 N 
ATOM      3  N   UNL     1      28.880 -23.372 -15.715  0.00  0.00    -0.178 NA
ATOM      4  C   UNL     1      32.537 -23.312 -16.091  0.00  0.00    +0.054 C 
ATOM      5  C   UNL     1      31.166 -23.367 -15.810  0.00  0.00    +0.067 C 
ATOM      6  C   UNL     1      33.415 -23.562 -15.037  0.00  0.00    +0.033 C 
ATOM      7  C   UNL     1      30.780 -23.665 -14.512  0.00  0.00    +0.150 C 
ATOM      8  C   UNL     1      32.893 -23.850 -13.780  0.00  0.00    +0.102 C 
ATOM      9  C   UNL     1      29.949 -23.198 -16.499  0.00  0.00    +0.122 C 
ATOM     10  H   UNL     1      28.876 -23.837 -13.711  0.00  0.00    +0.176 HD
ENDROOT
BRANCH   4  12
ATOM     11  O   UNL     1      33.738 -22.574 -20.052  0.00  0.00    -0.355 OA
ATOM     12  N   UNL     1      33.004 -23.018 -17.376  0.00  0.00    -0.303 N 
ATOM     13  C   UNL     1      32.447 -21.879 -18.115  0.00  0.00    +0.118 C 
ATOM     14  C   UNL     1      33.421 -21.453 -19.218  0.00  0.00    +0.113 C 
ATOM     15  C   UNL     1      33.484 -24.128 -18.208  0.00  0.00    +0.123 C 
ATOM     16  C   UNL     1      34.400 -23.591 -19.302  0.00  0.00    +0.163 C 
BRANCH  14  17
ATOM     17  C   UNL     1      32.812 -20.374 -20.102  0.00  0.00    -0.054 C 
BRANCH  17  18
ATOM     18  N   UNL     1      33.837 -19.690 -20.877  0.00  0.00    +0.382 N 
ATOM     19  H   UNL     1      33.878 -18.710 -20.598  0.00  0.00    -0.089 HD
ATOM     20  H   UNL     1      33.611 -19.751 -21.870  0.00  0.00    -0.089 HD
ATOM     21  H   UNL     1      34.742 -20.129 -20.707  0.00  0.00    -0.089 HD
ENDBRANCH  17  18
ENDBRANCH  14  17
ENDBRANCH   4  12
BRANCH   6  22
ATOM     22  C   UNL     1      34.851 -23.531 -15.218  0.00  0.00    +0.003 C 
ATOM     23  C   UNL     1      35.617 -24.661 -14.929  0.00  0.00    +0.000 C 
ATOM     24  C   UNL     1      35.472 -22.370 -15.682  0.00  0.00    +0.000 C 
ATOM     25  C   UNL     1      37.000 -24.631 -15.103  0.00  0.00    +0.000 C 
ATOM     26  C   UNL     1      36.855 -22.340 -15.856  0.00  0.00    +0.000 C 
ATOM     27  C   UNL     1      37.619 -23.470 -15.567  0.00  0.00    +0.000 C 
ENDBRANCH   6  22
TORSDOF 4
ENDMDL
MODEL 9
REMARK VINA RESULT:      -7.0     13.515     15.895
REMARK  Name = 44129608
REMARK  4 active torsions:
REMARK  status: ('A' for Active; 'I' for Inactive)
REMARK    1  A    between atoms: C_4  and  N_12
REMARK    2  A    between atoms: C_6  and  C_22
REMARK    3  A    between atoms: C_14  and  C_17
REMARK    4  A    between atoms: C_17  and  N_18
REMARK                            x       y       z     vdW  Elec       q    Type
REMARK                         _______ _______ _______ _____ _____    ______ ____
ROOT
ATOM      1  N   UNL     1      33.557 -12.798 -24.813  0.00  0.00    -0.228 NA
ATOM      2  N   UNL     1      33.009 -14.660 -23.370  0.00  0.00    -0.220 N 
ATOM      3  N   UNL     1      32.525 -14.907 -22.139  0.00  0.00    -0.178 NA
ATOM      4  C   UNL     1      32.650 -11.259 -22.574  0.00  0.00    +0.054 C 
ATOM      5  C   UNL     1      32.655 -12.658 -22.541  0.00  0.00    +0.067 C 
ATOM      6  C   UNL     1      33.104 -10.645 -23.741  0.00  0.00    +0.033 C 
ATOM      7  C   UNL     1      33.108 -13.333 -23.664  0.00  0.00    +0.150 C 
ATOM      8  C   UNL     1      33.533 -11.443 -24.797  0.00  0.00    +0.102 C 
ATOM      9  C   UNL     1      32.312 -13.685 -21.639  0.00  0.00    +0.122 C 
ATOM     10  H   UNL     1      33.268 -15.372 -24.000  0.00  0.00    +0.176 HD
ENDROOT
BRANCH   4  12
ATOM     11  O   UNL     1      31.522  -9.106 -19.143  0.00  0.00    -0.355 OA
ATOM     12  N   UNL     1      32.207 -10.507 -21.480  0.00  0.00    -0.303 N 
ATOM     13  C   UNL     1      32.793  -9.190 -21.211  0.00  0.00    +0.118 C 
ATOM     14  C   UNL     1      31.843  -8.372 -20.330  0.00  0.00    +0.113 C 
ATOM     15  C   UNL     1      31.722 -11.229 -20.296  0.00  0.00    +0.123 C 
ATOM     16  C   UNL     1      30.832 -10.313 -19.465  0.00  0.00    +0.163 C 
BRANCH  14  17
ATOM     17  C   UNL     1      32.483  -7.057 -19.904  0.00  0.00    -0.054 C 
BRANCH  17  18
ATOM     18  N   UNL     1      32.018  -5.955 -20.733  0.00  0.00    +0.382 N 
ATOM     19  H   UNL     1      31.621  -6.323 -21.597  0.00  0.00    -0.089 HD
ATOM     20  H   UNL     1      32.801  -5.340 -20.953  0.00  0.00    -0.089 HD
ATOM     21  H   UNL     1      31.304  -5.428 -20.229  0.00  0.00    -0.089 HD
ENDBRANCH  17  18
ENDBRANCH  14  17
ENDBRANCH   4  12
BRANCH   6  22
ATOM     22  C   UNL     1      33.141  -9.205 -23.881  0.00  0.00    +0.003 C 
ATOM     23  C   UNL     1      34.365  -8.534 -23.879  0.00  0.00    +0.000 C 
ATOM     24  C   UNL     1      31.954  -8.485 -24.018  0.00  0.00    +0.000 C 
ATOM     25  C   UNL     1      34.402  -7.146 -24.013  0.00  0.00    +0.000 C 
ATOM     26  C   UNL     1      31.990  -7.098 -24.153  0.00  0.00    +0.000 C 
ATOM     27  C   UNL     1      33.213  -6.429 -24.150  0.00  0.00    +0.000 C 
ENDBRANCH   6  22
TORSDOF 4
ENDMDL
