MODEL 1
REMARK VINA RESULT:     -10.8      0.000      0.000
REMARK  Name = 510684
REMARK  10 active torsions:
REMARK  status: ('A' for Active; 'I' for Inactive)
REMARK    1  A    between atoms: N_1  and  C_2
REMARK    2  A    between atoms: N_1  and  C_17
REMARK    3  A    between atoms: N_1  and  C_24
REMARK    4  A    between atoms: C_5  and  C_9
REMARK    5  A    between atoms: C_9  and  C_10
REMARK    6  A    between atoms: C_10  and  C_12
REMARK    7  A    between atoms: C_12  and  C_14
REMARK    8  A    between atoms: C_14  and  O_15
REMARK    9  A    between atoms: C_17  and  C_18
REMARK   10  A    between atoms: C_24  and  C_25
REMARK                            x       y       z     vdW  Elec       q    Type
REMARK                         _______ _______ _______ _____ _____    ______ ____
ROOT
ATOM      1  N   UNL     1      33.494 -23.321 -16.418  0.00  0.00    -0.300 N 
ENDROOT
BRANCH   1   2
ATOM      2  C   UNL     1      32.271 -23.698 -15.823  0.00  0.00    +0.048 C 
ATOM      3  C   UNL     1      31.065 -23.357 -16.435  0.00  0.00    +0.017 C 
ATOM      4  C   UNL     1      32.269 -24.411 -14.625  0.00  0.00    +0.015 C 
ATOM      5  C   UNL     1      29.856 -23.731 -15.848  0.00  0.00    +0.036 C 
ATOM      6  C   UNL     1      31.060 -24.785 -14.039  0.00  0.00    +0.001 C 
ATOM      7  C   UNL     1      29.853 -24.445 -14.650  0.00  0.00    +0.003 C 
BRANCH   5   9
ATOM      8  O   UNL     1      28.010 -24.193 -17.224  0.00  0.00    -0.291 OA
ATOM      9  C   UNL     1      28.597 -23.377 -16.486  0.00  0.00    +0.181 C 
BRANCH   9  10
ATOM     10  C   UNL     1      27.974 -21.997 -16.233  0.00  0.00    +0.145 C 
BRANCH  10  12
ATOM     11  O   UNL     1      25.573 -22.116 -15.813  0.00  0.00    -0.284 OA
ATOM     12  C   UNL     1      26.507 -21.843 -16.552  0.00  0.00    +0.255 C 
BRANCH  12  14
ATOM     13  O   UNL     1      26.113 -22.059 -18.890  0.00  0.00    -0.242 OA
ATOM     14  C   UNL     1      26.166 -21.329 -17.922  0.00  0.00    +0.374 C 
BRANCH  14  15
ATOM     15  O   UNL     1      26.005 -20.000 -17.884  0.00  0.00    -0.475 OA
ATOM     16  H   UNL     1      26.625 -19.440 -18.307  0.00  0.00    +0.295 HD
ENDBRANCH  14  15
ENDBRANCH  12  14
ENDBRANCH  10  12
ENDBRANCH   9  10
ENDBRANCH   5   9
ENDBRANCH   1   2
BRANCH   1  17
ATOM     17  C   UNL     1      34.465 -22.545 -15.671  0.00  0.00    +0.118 C 
BRANCH  17  18
ATOM     18  C   UNL     1      35.710 -23.351 -15.431  0.00  0.00    -0.002 C 
ATOM     19  C   UNL     1      36.950 -22.808 -15.745  0.00  0.00    -0.003 C 
ATOM     20  C   UNL     1      35.609 -24.631 -14.900  0.00  0.00    -0.003 C 
ATOM     21  C   UNL     1      38.107 -23.555 -15.523  0.00  0.00    -0.000 C 
ATOM     22  C   UNL     1      36.765 -25.379 -14.678  0.00  0.00    -0.000 C 
ATOM     23  C   UNL     1      38.014 -24.841 -14.990  0.00  0.00    -0.000 C 
ENDBRANCH  17  18
ENDBRANCH   1  17
BRANCH   1  24
ATOM     24  C   UNL     1      33.800 -23.714 -17.778  0.00  0.00    +0.118 C 
BRANCH  24  25
ATOM     25  C   UNL     1      34.012 -22.504 -18.644  0.00  0.00    -0.002 C 
ATOM     26  C   UNL     1      32.912 -21.779 -19.088  0.00  0.00    -0.003 C 
ATOM     27  C   UNL     1      35.302 -22.123 -18.988  0.00  0.00    -0.003 C 
ATOM     28  C   UNL     1      33.109 -20.656 -19.892  0.00  0.00    -0.000 C 
ATOM     29  C   UNL     1      35.497 -21.000 -19.791  0.00  0.00    -0.000 C 
ATOM     30  C   UNL     1      34.401 -20.266 -20.242  0.00  0.00    -0.000 C 
ENDBRANCH  24  25
ENDBRANCH   1  24
TORSDOF 10
ENDMDL
MODEL 2
REMARK VINA RESULT:     -10.7      0.158      4.055
REMARK  Name = 510684
REMARK  10 active torsions:
REMARK  status: ('A' for Active; 'I' for Inactive)
REMARK    1  A    between atoms: N_1  and  C_2
REMARK    2  A    between atoms: N_1  and  C_17
REMARK    3  A    between atoms: N_1  and  C_24
REMARK    4  A    between atoms: C_5  and  C_9
REMARK    5  A    between atoms: C_9  and  C_10
REMARK    6  A    between atoms: C_10  and  C_12
REMARK    7  A    between atoms: C_12  and  C_14
REMARK    8  A    between atoms: C_14  and  O_15
REMARK    9  A    between atoms: C_17  and  C_18
REMARK   10  A    between atoms: C_24  and  C_25
REMARK                            x       y       z     vdW  Elec       q    Type
REMARK                         _______ _______ _______ _____ _____    ______ ____
ROOT
ATOM      1  N   UNL     1      33.544 -23.316 -16.433  0.00  0.00    -0.300 N 
ENDROOT
BRANCH   1   2
ATOM      2  C   UNL     1      32.350 -23.703 -15.788  0.00  0.00    +0.048 C 
ATOM      3  C   UNL     1      31.117 -23.380 -16.353  0.00  0.00    +0.017 C 
ATOM      4  C   UNL     1      32.405 -24.410 -14.588  0.00  0.00    +0.015 C 
ATOM      5  C   UNL     1      29.937 -23.765 -15.716  0.00  0.00    +0.036 C 
ATOM      6  C   UNL     1      31.225 -24.795 -13.951  0.00  0.00    +0.001 C 
ATOM      7  C   UNL     1      29.991 -24.473 -14.515  0.00  0.00    +0.003 C 
BRANCH   5   9
ATOM      8  O   UNL     1      28.062 -24.241 -17.047  0.00  0.00    -0.291 OA
ATOM      9  C   UNL     1      28.649 -23.429 -16.305  0.00  0.00    +0.181 C 
BRANCH   9  10
ATOM     10  C   UNL     1      27.997 -22.074 -15.993  0.00  0.00    +0.145 C 
BRANCH  10  12
ATOM     11  O   UNL     1      25.569 -22.153 -15.759  0.00  0.00    -0.284 OA
ATOM     12  C   UNL     1      26.561 -21.895 -16.423  0.00  0.00    +0.255 C 
BRANCH  12  14
ATOM     13  O   UNL     1      26.090 -20.204 -18.033  0.00  0.00    -0.242 OA
ATOM     14  C   UNL     1      26.336 -21.372 -17.814  0.00  0.00    +0.374 C 
BRANCH  14  15
ATOM     15  O   UNL     1      26.393 -22.379 -18.695  0.00  0.00    -0.475 OA
ATOM     16  H   UNL     1      26.484 -22.197 -19.610  0.00  0.00    +0.295 HD
ENDBRANCH  14  15
ENDBRANCH  12  14
ENDBRANCH  10  12
ENDBRANCH   9  10
ENDBRANCH   5   9
ENDBRANCH   1   2
BRANCH   1  17
ATOM     17  C   UNL     1      33.795 -23.704 -17.808  0.00  0.00    +0.118 C 
BRANCH  17  18
ATOM     18  C   UNL     1      34.000 -22.489 -18.668  0.00  0.00    -0.002 C 
ATOM     19  C   UNL     1      32.900 -21.745 -19.078  0.00  0.00    -0.003 C 
ATOM     20  C   UNL     1      35.286 -22.124 -19.045  0.00  0.00    -0.003 C 
ATOM     21  C   UNL     1      33.090 -20.618 -19.877  0.00  0.00    -0.000 C 
ATOM     22  C   UNL     1      35.476 -20.996 -19.844  0.00  0.00    -0.000 C 
ATOM     23  C   UNL     1      34.378 -20.244 -20.260  0.00  0.00    -0.000 C 
ENDBRANCH  17  18
ENDBRANCH   1  17
BRANCH   1  24
ATOM     24  C   UNL     1      34.529 -22.515 -15.734  0.00  0.00    +0.118 C 
BRANCH  24  25
ATOM     25  C   UNL     1      35.780 -23.311 -15.489  0.00  0.00    -0.002 C 
ATOM     26  C   UNL     1      37.016 -22.755 -15.793  0.00  0.00    -0.003 C 
ATOM     27  C   UNL     1      35.685 -24.592 -14.961  0.00  0.00    -0.003 C 
ATOM     28  C   UNL     1      38.178 -23.494 -15.565  0.00  0.00    -0.000 C 
ATOM     29  C   UNL     1      36.847 -25.330 -14.733  0.00  0.00    -0.000 C 
ATOM     30  C   UNL     1      38.092 -24.782 -15.034  0.00  0.00    -0.000 C 
ENDBRANCH  24  25
ENDBRANCH   1  24
TORSDOF 10
ENDMDL
MODEL 3
REMARK VINA RESULT:     -10.7      4.173      7.899
REMARK  Name = 510684
REMARK  10 active torsions:
REMARK  status: ('A' for Active; 'I' for Inactive)
REMARK    1  A    between atoms: N_1  and  C_2
REMARK    2  A    between atoms: N_1  and  C_17
REMARK    3  A    between atoms: N_1  and  C_24
REMARK    4  A    between atoms: C_5  and  C_9
REMARK    5  A    between atoms: C_9  and  C_10
REMARK    6  A    between atoms: C_10  and  C_12
REMARK    7  A    between atoms: C_12  and  C_14
REMARK    8  A    between atoms: C_14  and  O_15
REMARK    9  A    between atoms: C_17  and  C_18
REMARK   10  A    between atoms: C_24  and  C_25
REMARK                            x       y       z     vdW  Elec       q    Type
REMARK                         _______ _______ _______ _____ _____    ______ ____
ROOT
ATOM      1  N   UNL     1      34.029 -23.216 -16.307  0.00  0.00    -0.300 N 
ENDROOT
BRANCH   1   2
ATOM      2  C   UNL     1      35.367 -23.442 -15.921  0.00  0.00    +0.048 C 
ATOM      3  C   UNL     1      35.711 -24.617 -15.253  0.00  0.00    +0.017 C 
ATOM      4  C   UNL     1      36.346 -22.491 -16.209  0.00  0.00    +0.015 C 
ATOM      5  C   UNL     1      37.034 -24.841 -14.873  0.00  0.00    +0.036 C 
ATOM      6  C   UNL     1      37.669 -22.716 -15.829  0.00  0.00    +0.001 C 
ATOM      7  C   UNL     1      38.013 -23.891 -15.161  0.00  0.00    +0.003 C 
BRANCH   5   9
ATOM      8  O   UNL     1      37.919 -27.015 -14.794  0.00  0.00    -0.291 OA
ATOM      9  C   UNL     1      37.393 -26.068 -14.177  0.00  0.00    +0.181 C 
BRANCH   9  10
ATOM     10  C   UNL     1      37.144 -26.190 -12.667  0.00  0.00    +0.145 C 
BRANCH  10  12
ATOM     11  O   UNL     1      38.088 -24.204 -11.608  0.00  0.00    -0.284 OA
ATOM     12  C   UNL     1      37.124 -24.905 -11.874  0.00  0.00    +0.255 C 
BRANCH  12  14
ATOM     13  O   UNL     1      35.254 -25.022 -10.405  0.00  0.00    -0.242 OA
ATOM     14  C   UNL     1      35.791 -24.464 -11.340  0.00  0.00    +0.374 C 
BRANCH  14  15
ATOM     15  O   UNL     1      35.315 -23.452 -12.077  0.00  0.00    -0.475 OA
ATOM     16  H   UNL     1      35.900 -22.803 -12.415  0.00  0.00    +0.295 HD
ENDBRANCH  14  15
ENDBRANCH  12  14
ENDBRANCH  10  12
ENDBRANCH   9  10
ENDBRANCH   5   9
ENDBRANCH   1   2
BRANCH   1  17
ATOM     17  C   UNL     1      33.578 -23.580 -17.636  0.00  0.00    +0.118 C 
BRANCH  17  18
ATOM     18  C   UNL     1      33.813 -22.451 -18.599  0.00  0.00    -0.002 C 
ATOM     19  C   UNL     1      35.091 -22.230 -19.098  0.00  0.00    -0.003 C 
ATOM     20  C   UNL     1      32.751 -21.640 -18.980  0.00  0.00    -0.003 C 
ATOM     21  C   UNL     1      35.309 -21.182 -19.993  0.00  0.00    -0.000 C 
ATOM     22  C   UNL     1      32.969 -20.592 -19.874  0.00  0.00    -0.000 C 
ATOM     23  C   UNL     1      34.249 -20.364 -20.380  0.00  0.00    -0.000 C 
ENDBRANCH  17  18
ENDBRANCH   1  17
BRANCH   1  24
ATOM     24  C   UNL     1      33.087 -22.628 -15.377  0.00  0.00    +0.118 C 
BRANCH  24  25
ATOM     25  C   UNL     1      31.813 -23.426 -15.340  0.00  0.00    -0.002 C 
ATOM     26  C   UNL     1      31.735 -24.552 -14.530  0.00  0.00    -0.003 C 
ATOM     27  C   UNL     1      30.731 -23.027 -16.113  0.00  0.00    -0.003 C 
ATOM     28  C   UNL     1      30.553 -25.293 -14.496  0.00  0.00    -0.000 C 
ATOM     29  C   UNL     1      29.550 -23.768 -16.078  0.00  0.00    -0.000 C 
ATOM     30  C   UNL     1      29.460 -24.900 -15.269  0.00  0.00    -0.000 C 
ENDBRANCH  24  25
ENDBRANCH   1  24
TORSDOF 10
ENDMDL
MODEL 4
REMARK VINA RESULT:     -10.7      4.227      7.307
REMARK  Name = 510684
REMARK  10 active torsions:
REMARK  status: ('A' for Active; 'I' for Inactive)
REMARK    1  A    between atoms: N_1  and  C_2
REMARK    2  A    between atoms: N_1  and  C_17
REMARK    3  A    between atoms: N_1  and  C_24
REMARK    4  A    between atoms: C_5  and  C_9
REMARK    5  A    between atoms: C_9  and  C_10
REMARK    6  A    between atoms: C_10  and  C_12
REMARK    7  A    between atoms: C_12  and  C_14
REMARK    8  A    between atoms: C_14  and  O_15
REMARK    9  A    between atoms: C_17  and  C_18
REMARK   10  A    between atoms: C_24  and  C_25
REMARK                            x       y       z     vdW  Elec       q    Type
REMARK                         _______ _______ _______ _____ _____    ______ ____
ROOT
ATOM      1  N   UNL     1      34.198 -23.191 -16.434  0.00  0.00    -0.300 N 
ENDROOT
BRANCH   1   2
ATOM      2  C   UNL     1      35.518 -23.440 -16.001  0.00  0.00    +0.048 C 
ATOM      3  C   UNL     1      35.816 -24.618 -15.316  0.00  0.00    +0.017 C 
ATOM      4  C   UNL     1      36.524 -22.510 -16.261  0.00  0.00    +0.015 C 
ATOM      5  C   UNL     1      37.120 -24.865 -14.890  0.00  0.00    +0.036 C 
ATOM      6  C   UNL     1      37.829 -22.758 -15.835  0.00  0.00    +0.001 C 
ATOM      7  C   UNL     1      38.127 -23.936 -15.150  0.00  0.00    +0.003 C 
BRANCH   5   9
ATOM      8  O   UNL     1      37.933 -27.066 -14.776  0.00  0.00    -0.291 OA
ATOM      9  C   UNL     1      37.432 -26.094 -14.176  0.00  0.00    +0.181 C 
BRANCH   9  10
ATOM     10  C   UNL     1      37.163 -26.189 -12.667  0.00  0.00    +0.145 C 
BRANCH  10  12
ATOM     11  O   UNL     1      38.097 -24.184 -11.636  0.00  0.00    -0.284 OA
ATOM     12  C   UNL     1      37.136 -24.891 -11.897  0.00  0.00    +0.255 C 
BRANCH  12  14
ATOM     13  O   UNL     1      35.251 -24.990 -10.444  0.00  0.00    -0.242 OA
ATOM     14  C   UNL     1      35.798 -24.443 -11.380  0.00  0.00    +0.374 C 
BRANCH  14  15
ATOM     15  O   UNL     1      35.331 -23.438 -12.132  0.00  0.00    -0.475 OA
ATOM     16  H   UNL     1      34.731 -22.818 -11.766  0.00  0.00    +0.295 HD
ENDBRANCH  14  15
ENDBRANCH  12  14
ENDBRANCH  10  12
ENDBRANCH   9  10
ENDBRANCH   5   9
ENDBRANCH   1   2
BRANCH   1  17
ATOM     17  C   UNL     1      33.243 -22.557 -15.546  0.00  0.00    +0.118 C 
BRANCH  17  18
ATOM     18  C   UNL     1      32.093 -23.482 -15.264  0.00  0.00    -0.002 C 
ATOM     19  C   UNL     1      30.937 -23.393 -16.030  0.00  0.00    -0.003 C 
ATOM     20  C   UNL     1      32.197 -24.414 -14.239  0.00  0.00    -0.003 C 
ATOM     21  C   UNL     1      29.869 -24.252 -15.769  0.00  0.00    -0.000 C 
ATOM     22  C   UNL     1      31.129 -25.273 -13.978  0.00  0.00    -0.000 C 
ATOM     23  C   UNL     1      29.966 -25.191 -14.743  0.00  0.00    -0.000 C 
ENDBRANCH  17  18
ENDBRANCH   1  17
BRANCH   1  24
ATOM     24  C   UNL     1      33.784 -23.554 -17.774  0.00  0.00    +0.118 C 
BRANCH  24  25
ATOM     25  C   UNL     1      33.963 -22.395 -18.715  0.00  0.00    -0.002 C 
ATOM     26  C   UNL     1      32.860 -21.635 -19.083  0.00  0.00    -0.003 C 
ATOM     27  C   UNL     1      35.228 -22.098 -19.204  0.00  0.00    -0.003 C 
ATOM     28  C   UNL     1      33.026 -20.560 -19.957  0.00  0.00    -0.000 C 
ATOM     29  C   UNL     1      35.394 -21.023 -20.077  0.00  0.00    -0.000 C 
ATOM     30  C   UNL     1      34.293 -20.254 -20.453  0.00  0.00    -0.000 C 
ENDBRANCH  24  25
ENDBRANCH   1  24
TORSDOF 10
ENDMDL
MODEL 5
REMARK VINA RESULT:     -10.4      1.320      4.309
REMARK  Name = 510684
REMARK  10 active torsions:
REMARK  status: ('A' for Active; 'I' for Inactive)
REMARK    1  A    between atoms: N_1  and  C_2
REMARK    2  A    between atoms: N_1  and  C_17
REMARK    3  A    between atoms: N_1  and  C_24
REMARK    4  A    between atoms: C_5  and  C_9
REMARK    5  A    between atoms: C_9  and  C_10
REMARK    6  A    between atoms: C_10  and  C_12
REMARK    7  A    between atoms: C_12  and  C_14
REMARK    8  A    between atoms: C_14  and  O_15
REMARK    9  A    between atoms: C_17  and  C_18
REMARK   10  A    between atoms: C_24  and  C_25
REMARK                            x       y       z     vdW  Elec       q    Type
REMARK                         _______ _______ _______ _____ _____    ______ ____
ROOT
ATOM      1  N   UNL     1      34.545 -23.958 -15.221  0.00  0.00    -0.300 N 
ENDROOT
BRANCH   1   2
ATOM      2  C   UNL     1      33.175 -24.029 -14.892  0.00  0.00    +0.048 C 
ATOM      3  C   UNL     1      32.235 -23.356 -15.673  0.00  0.00    +0.017 C 
ATOM      4  C   UNL     1      32.761 -24.773 -13.788  0.00  0.00    +0.015 C 
ATOM      5  C   UNL     1      30.881 -23.427 -15.349  0.00  0.00    +0.036 C 
ATOM      6  C   UNL     1      31.406 -24.845 -13.465  0.00  0.00    +0.001 C 
ATOM      7  C   UNL     1      30.466 -24.172 -14.245  0.00  0.00    +0.003 C 
BRANCH   5   9
ATOM      8  O   UNL     1      30.255 -22.087 -17.173  0.00  0.00    -0.291 OA
ATOM      9  C   UNL     1      29.900 -22.726 -16.163  0.00  0.00    +0.181 C 
BRANCH   9  10
ATOM     10  C   UNL     1      28.412 -22.790 -15.789  0.00  0.00    +0.145 C 
BRANCH  10  12
ATOM     11  O   UNL     1      27.426 -23.401 -17.937  0.00  0.00    -0.284 OA
ATOM     12  C   UNL     1      27.421 -22.716 -16.926  0.00  0.00    +0.255 C 
BRANCH  12  14
ATOM     13  O   UNL     1      26.263 -20.738 -17.571  0.00  0.00    -0.242 OA
ATOM     14  C   UNL     1      26.339 -21.680 -16.809  0.00  0.00    +0.374 C 
BRANCH  14  15
ATOM     15  O   UNL     1      25.569 -21.940 -15.745  0.00  0.00    -0.475 OA
ATOM     16  H   UNL     1      25.560 -21.350 -15.016  0.00  0.00    +0.295 HD
ENDBRANCH  14  15
ENDBRANCH  12  14
ENDBRANCH  10  12
ENDBRANCH   9  10
ENDBRANCH   5   9
ENDBRANCH   1   2
BRANCH   1  17
ATOM     17  C   UNL     1      35.190 -22.672 -15.405  0.00  0.00    +0.118 C 
BRANCH  17  18
ATOM     18  C   UNL     1      35.376 -22.382 -16.868  0.00  0.00    -0.002 C 
ATOM     19  C   UNL     1      36.593 -21.885 -17.319  0.00  0.00    -0.003 C 
ATOM     20  C   UNL     1      34.329 -22.612 -17.752  0.00  0.00    -0.003 C 
ATOM     21  C   UNL     1      36.766 -21.616 -18.677  0.00  0.00    -0.000 C 
ATOM     22  C   UNL     1      34.503 -22.342 -19.110  0.00  0.00    -0.000 C 
ATOM     23  C   UNL     1      35.721 -21.844 -19.571  0.00  0.00    -0.000 C 
ENDBRANCH  17  18
ENDBRANCH   1  17
BRANCH   1  24
ATOM     24  C   UNL     1      35.328 -25.168 -15.367  0.00  0.00    +0.118 C 
BRANCH  24  25
ATOM     25  C   UNL     1      36.531 -25.132 -14.466  0.00  0.00    -0.002 C 
ATOM     26  C   UNL     1      36.354 -25.079 -13.089  0.00  0.00    -0.003 C 
ATOM     27  C   UNL     1      37.804 -25.152 -15.020  0.00  0.00    -0.003 C 
ATOM     28  C   UNL     1      37.470 -25.045 -12.253  0.00  0.00    -0.000 C 
ATOM     29  C   UNL     1      38.920 -25.118 -14.183  0.00  0.00    -0.000 C 
ATOM     30  C   UNL     1      38.753 -25.064 -12.800  0.00  0.00    -0.000 C 
ENDBRANCH  24  25
ENDBRANCH   1  24
TORSDOF 10
ENDMDL
MODEL 6
REMARK VINA RESULT:     -10.0     11.889     15.945
REMARK  Name = 510684
REMARK  10 active torsions:
REMARK  status: ('A' for Active; 'I' for Inactive)
REMARK    1  A    between atoms: N_1  and  C_2
REMARK    2  A    between atoms: N_1  and  C_17
REMARK    3  A    between atoms: N_1  and  C_24
REMARK    4  A    between atoms: C_5  and  C_9
REMARK    5  A    between atoms: C_9  and  C_10
REMARK    6  A    between atoms: C_10  and  C_12
REMARK    7  A    between atoms: C_12  and  C_14
REMARK    8  A    between atoms: C_14  and  O_15
REMARK    9  A    between atoms: C_17  and  C_18
REMARK   10  A    between atoms: C_24  and  C_25
REMARK                            x       y       z     vdW  Elec       q    Type
REMARK                         _______ _______ _______ _____ _____    ______ ____
ROOT
ATOM      1  N   UNL     1      32.968  -9.051 -23.280  0.00  0.00    -0.300 N 
ENDROOT
BRANCH   1   2
ATOM      2  C   UNL     1      33.710  -9.789 -24.227  0.00  0.00    +0.048 C 
ATOM      3  C   UNL     1      33.212 -10.998 -24.713  0.00  0.00    +0.017 C 
ATOM      4  C   UNL     1      34.939  -9.309 -24.677  0.00  0.00    +0.015 C 
ATOM      5  C   UNL     1      33.944 -11.727 -25.649  0.00  0.00    +0.036 C 
ATOM      6  C   UNL     1      35.671 -10.039 -25.614  0.00  0.00    +0.001 C 
ATOM      7  C   UNL     1      35.173 -11.247 -26.101  0.00  0.00    +0.003 C 
BRANCH   5   9
ATOM      8  O   UNL     1      33.380 -13.205 -27.385  0.00  0.00    -0.291 OA
ATOM      9  C   UNL     1      33.425 -12.988 -26.158  0.00  0.00    +0.181 C 
BRANCH   9  10
ATOM     10  C   UNL     1      32.948 -14.068 -25.176  0.00  0.00    +0.145 C 
BRANCH  10  12
ATOM     11  O   UNL     1      34.102 -16.068 -25.965  0.00  0.00    -0.284 OA
ATOM     12  C   UNL     1      33.803 -15.307 -25.058  0.00  0.00    +0.255 C 
BRANCH  12  14
ATOM     13  O   UNL     1      33.620 -15.525 -22.694  0.00  0.00    -0.242 OA
ATOM     14  C   UNL     1      34.310 -15.646 -23.686  0.00  0.00    +0.374 C 
BRANCH  14  15
ATOM     15  O   UNL     1      35.594 -16.021 -23.752  0.00  0.00    -0.475 OA
ATOM     16  H   UNL     1      36.243 -15.564 -23.253  0.00  0.00    +0.295 HD
ENDBRANCH  14  15
ENDBRANCH  12  14
ENDBRANCH  10  12
ENDBRANCH   9  10
ENDBRANCH   5   9
ENDBRANCH   1   2
BRANCH   1  17
ATOM     17  C   UNL     1      33.527  -7.854 -22.682  0.00  0.00    +0.118 C 
BRANCH  17  18
ATOM     18  C   UNL     1      32.772  -6.637 -23.137  0.00  0.00    -0.002 C 
ATOM     19  C   UNL     1      31.982  -5.942 -22.231  0.00  0.00    -0.003 C 
ATOM     20  C   UNL     1      32.873  -6.222 -24.459  0.00  0.00    -0.003 C 
ATOM     21  C   UNL     1      31.281  -4.811 -22.653  0.00  0.00    -0.000 C 
ATOM     22  C   UNL     1      32.173  -5.092 -24.881  0.00  0.00    -0.000 C 
ATOM     23  C   UNL     1      31.377  -4.387 -23.978  0.00  0.00    -0.000 C 
ENDBRANCH  17  18
ENDBRANCH   1  17
BRANCH   1  24
ATOM     24  C   UNL     1      31.634  -9.473 -22.902  0.00  0.00    +0.118 C 
BRANCH  24  25
ATOM     25  C   UNL     1      31.654 -10.147 -21.559  0.00  0.00    -0.002 C 
ATOM     26  C   UNL     1      31.727  -9.375 -20.406  0.00  0.00    -0.003 C 
ATOM     27  C   UNL     1      31.597 -11.532 -21.485  0.00  0.00    -0.003 C 
ATOM     28  C   UNL     1      31.745 -10.000 -19.159  0.00  0.00    -0.000 C 
ATOM     29  C   UNL     1      31.615 -12.157 -20.238  0.00  0.00    -0.000 C 
ATOM     30  C   UNL     1      31.689 -11.391 -19.075  0.00  0.00    -0.000 C 
ENDBRANCH  24  25
ENDBRANCH   1  24
TORSDOF 10
ENDMDL
MODEL 7
REMARK VINA RESULT:     -10.0     11.888     15.570
REMARK  Name = 510684
REMARK  10 active torsions:
REMARK  status: ('A' for Active; 'I' for Inactive)
REMARK    1  A    between atoms: N_1  and  C_2
REMARK    2  A    between atoms: N_1  and  C_17
REMARK    3  A    between atoms: N_1  and  C_24
REMARK    4  A    between atoms: C_5  and  C_9
REMARK    5  A    between atoms: C_9  and  C_10
REMARK    6  A    between atoms: C_10  and  C_12
REMARK    7  A    between atoms: C_12  and  C_14
REMARK    8  A    between atoms: C_14  and  O_15
REMARK    9  A    between atoms: C_17  and  C_18
REMARK   10  A    between atoms: C_24  and  C_25
REMARK                            x       y       z     vdW  Elec       q    Type
REMARK                         _______ _______ _______ _____ _____    ______ ____
ROOT
ATOM      1  N   UNL     1      32.956  -9.061 -23.305  0.00  0.00    -0.300 N 
ENDROOT
BRANCH   1   2
ATOM      2  C   UNL     1      33.696  -9.806 -24.247  0.00  0.00    +0.048 C 
ATOM      3  C   UNL     1      33.191 -11.012 -24.734  0.00  0.00    +0.017 C 
ATOM      4  C   UNL     1      34.931  -9.336 -24.693  0.00  0.00    +0.015 C 
ATOM      5  C   UNL     1      33.921 -11.747 -25.666  0.00  0.00    +0.036 C 
ATOM      6  C   UNL     1      35.661 -10.072 -25.626  0.00  0.00    +0.001 C 
ATOM      7  C   UNL     1      35.157 -11.277 -26.113  0.00  0.00    +0.003 C 
BRANCH   5   9
ATOM      8  O   UNL     1      33.340 -13.218 -27.403  0.00  0.00    -0.291 OA
ATOM      9  C   UNL     1      33.395 -13.005 -26.175  0.00  0.00    +0.181 C 
BRANCH   9  10
ATOM     10  C   UNL     1      32.924 -14.088 -25.194  0.00  0.00    +0.145 C 
BRANCH  10  12
ATOM     11  O   UNL     1      34.100 -16.081 -25.971  0.00  0.00    -0.284 OA
ATOM     12  C   UNL     1      33.791 -15.317 -25.069  0.00  0.00    +0.255 C 
BRANCH  12  14
ATOM     13  O   UNL     1      33.622 -15.484 -22.699  0.00  0.00    -0.242 OA
ATOM     14  C   UNL     1      34.300 -15.644 -23.693  0.00  0.00    +0.374 C 
BRANCH  14  15
ATOM     15  O   UNL     1      35.572 -16.058 -23.763  0.00  0.00    -0.475 OA
ATOM     16  H   UNL     1      35.774 -16.891 -24.141  0.00  0.00    +0.295 HD
ENDBRANCH  14  15
ENDBRANCH  12  14
ENDBRANCH  10  12
ENDBRANCH   9  10
ENDBRANCH   5   9
ENDBRANCH   1   2
BRANCH   1  17
ATOM     17  C   UNL     1      31.621  -9.480 -22.924  0.00  0.00    +0.118 C 
BRANCH  17  18
ATOM     18  C   UNL     1      31.642 -10.143 -21.576  0.00  0.00    -0.002 C 
ATOM     19  C   UNL     1      31.579 -11.529 -21.493  0.00  0.00    -0.003 C 
ATOM     20  C   UNL     1      31.723  -9.365 -20.428  0.00  0.00    -0.003 C 
ATOM     21  C   UNL     1      31.599 -12.146 -20.242  0.00  0.00    -0.000 C 
ATOM     22  C   UNL     1      31.742  -9.982 -19.177  0.00  0.00    -0.000 C 
ATOM     23  C   UNL     1      31.681 -11.372 -19.084  0.00  0.00    -0.000 C 
ENDBRANCH  17  18
ENDBRANCH   1  17
BRANCH   1  24
ATOM     24  C   UNL     1      33.525  -7.875 -22.697  0.00  0.00    +0.118 C 
BRANCH  24  25
ATOM     25  C   UNL     1      32.793  -6.644 -23.153  0.00  0.00    -0.002 C 
ATOM     26  C   UNL     1      32.916  -6.225 -24.472  0.00  0.00    -0.003 C 
ATOM     27  C   UNL     1      32.004  -5.942 -22.252  0.00  0.00    -0.003 C 
ATOM     28  C   UNL     1      32.237  -5.082 -24.896  0.00  0.00    -0.000 C 
ATOM     29  C   UNL     1      31.326  -4.800 -22.677  0.00  0.00    -0.000 C 
ATOM     30  C   UNL     1      31.441  -4.369 -23.998  0.00  0.00    -0.000 C 
ENDBRANCH  24  25
ENDBRANCH   1  24
TORSDOF 10
ENDMDL
MODEL 8
REMARK VINA RESULT:      -9.9     12.023     16.036
REMARK  Name = 510684
REMARK  10 active torsions:
REMARK  status: ('A' for Active; 'I' for Inactive)
REMARK    1  A    between atoms: N_1  and  C_2
REMARK    2  A    between atoms: N_1  and  C_17
REMARK    3  A    between atoms: N_1  and  C_24
REMARK    4  A    between atoms: C_5  and  C_9
REMARK    5  A    between atoms: C_9  and  C_10
REMARK    6  A    between atoms: C_10  and  C_12
REMARK    7  A    between atoms: C_12  and  C_14
REMARK    8  A    between atoms: C_14  and  O_15
REMARK    9  A    between atoms: C_17  and  C_18
REMARK   10  A    between atoms: C_24  and  C_25
REMARK                            x       y       z     vdW  Elec       q    Type
REMARK                         _______ _______ _______ _____ _____    ______ ____
ROOT
ATOM      1  N   UNL     1      32.890  -8.786 -23.239  0.00  0.00    -0.300 N 
ENDROOT
BRANCH   1   2
ATOM      2  C   UNL     1      33.642  -9.589 -24.122  0.00  0.00    +0.048 C 
ATOM      3  C   UNL     1      33.176 -10.852 -24.484  0.00  0.00    +0.017 C 
ATOM      4  C   UNL     1      34.851  -9.117 -24.634  0.00  0.00    +0.015 C 
ATOM      5  C   UNL     1      33.919 -11.645 -25.359  0.00  0.00    +0.036 C 
ATOM      6  C   UNL     1      35.593  -9.911 -25.509  0.00  0.00    +0.001 C 
ATOM      7  C   UNL     1      35.128 -11.174 -25.872  0.00  0.00    +0.003 C 
BRANCH   5   9
ATOM      8  O   UNL     1      33.394 -13.302 -26.937  0.00  0.00    -0.291 OA
ATOM      9  C   UNL     1      33.432 -12.963 -25.738  0.00  0.00    +0.181 C 
BRANCH   9  10
ATOM     10  C   UNL     1      32.983 -13.952 -24.653  0.00  0.00    +0.145 C 
BRANCH  10  12
ATOM     11  O   UNL     1      34.803 -14.690 -23.204  0.00  0.00    -0.284 OA
ATOM     12  C   UNL     1      34.029 -14.904 -24.124  0.00  0.00    +0.255 C 
BRANCH  12  14
ATOM     13  O   UNL     1      34.486 -17.239 -24.233  0.00  0.00    -0.242 OA
ATOM     14  C   UNL     1      34.143 -16.231 -24.818  0.00  0.00    +0.374 C 
BRANCH  14  15
ATOM     15  O   UNL     1      33.874 -16.090 -26.123  0.00  0.00    -0.475 OA
ATOM     16  H   UNL     1      33.220 -15.481 -26.403  0.00  0.00    +0.295 HD
ENDBRANCH  14  15
ENDBRANCH  12  14
ENDBRANCH  10  12
ENDBRANCH   9  10
ENDBRANCH   5   9
ENDBRANCH   1   2
BRANCH   1  17
ATOM     17  C   UNL     1      33.440  -7.547 -22.723  0.00  0.00    +0.118 C 
BRANCH  17  18
ATOM     18  C   UNL     1      32.664  -6.370 -23.242  0.00  0.00    -0.002 C 
ATOM     19  C   UNL     1      32.756  -6.026 -24.585  0.00  0.00    -0.003 C 
ATOM     20  C   UNL     1      31.864  -5.639 -22.373  0.00  0.00    -0.003 C 
ATOM     21  C   UNL     1      32.035  -4.934 -25.068  0.00  0.00    -0.000 C 
ATOM     22  C   UNL     1      31.143  -4.546 -22.856  0.00  0.00    -0.000 C 
ATOM     23  C   UNL     1      31.229  -4.194 -24.202  0.00  0.00    -0.000 C 
ENDBRANCH  17  18
ENDBRANCH   1  17
BRANCH   1  24
ATOM     24  C   UNL     1      31.553  -9.183 -22.845  0.00  0.00    +0.118 C 
BRANCH  24  25
ATOM     25  C   UNL     1      31.585  -9.916 -21.532  0.00  0.00    -0.002 C 
ATOM     26  C   UNL     1      31.347 -11.285 -21.507  0.00  0.00    -0.003 C 
ATOM     27  C   UNL     1      31.852  -9.217 -20.363  0.00  0.00    -0.003 C 
ATOM     28  C   UNL     1      31.375 -11.965 -20.289  0.00  0.00    -0.000 C 
ATOM     29  C   UNL     1      31.881  -9.898 -19.146  0.00  0.00    -0.000 C 
ATOM     30  C   UNL     1      31.643 -11.271 -19.108  0.00  0.00    -0.000 C 
ENDBRANCH  24  25
ENDBRANCH   1  24
TORSDOF 10
ENDMDL
MODEL 9
REMARK VINA RESULT:      -9.8      4.663      8.676
REMARK  Name = 510684
REMARK  10 active torsions:
REMARK  status: ('A' for Active; 'I' for Inactive)
REMARK    1  A    between atoms: N_1  and  C_2
REMARK    2  A    between atoms: N_1  and  C_17
REMARK    3  A    between atoms: N_1  and  C_24
REMARK    4  A    between atoms: C_5  and  C_9
REMARK    5  A    between atoms: C_9  and  C_10
REMARK    6  A    between atoms: C_10  and  C_12
REMARK    7  A    between atoms: C_12  and  C_14
REMARK    8  A    between atoms: C_14  and  O_15
REMARK    9  A    between atoms: C_17  and  C_18
REMARK   10  A    between atoms: C_24  and  C_25
REMARK                            x       y       z     vdW  Elec       q    Type
REMARK                         _______ _______ _______ _____ _____    ______ ____
ROOT
ATOM      1  N   UNL     1      33.675 -22.960 -16.517  0.00  0.00    -0.300 N 
ENDROOT
BRANCH   1   2
ATOM      2  C   UNL     1      35.012 -23.166 -16.116  0.00  0.00    +0.048 C 
ATOM      3  C   UNL     1      35.439 -24.440 -15.741  0.00  0.00    +0.017 C 
ATOM      4  C   UNL     1      35.906 -22.097 -16.097  0.00  0.00    +0.015 C 
ATOM      5  C   UNL     1      36.760 -24.644 -15.346  0.00  0.00    +0.036 C 
ATOM      6  C   UNL     1      37.229 -22.301 -15.702  0.00  0.00    +0.001 C 
ATOM      7  C   UNL     1      37.656 -23.575 -15.327  0.00  0.00    +0.003 C 
BRANCH   5   9
ATOM      8  O   UNL     1      37.038 -26.946 -15.716  0.00  0.00    -0.291 OA
ATOM      9  C   UNL     1      37.207 -25.973 -14.956  0.00  0.00    +0.181 C 
BRANCH   9  10
ATOM     10  C   UNL     1      37.911 -26.175 -13.606  0.00  0.00    +0.145 C 
BRANCH  10  12
ATOM     11  O   UNL     1      39.240 -24.443 -12.516  0.00  0.00    -0.284 OA
ATOM     12  C   UNL     1      39.137 -25.334 -13.345  0.00  0.00    +0.255 C 
BRANCH  12  14
ATOM     13  O   UNL     1      41.070 -24.717 -14.591  0.00  0.00    -0.242 OA
ATOM     14  C   UNL     1      40.336 -25.605 -14.209  0.00  0.00    +0.374 C 
BRANCH  14  15
ATOM     15  O   UNL     1      40.401 -26.910 -14.505  0.00  0.00    -0.475 OA
ATOM     16  H   UNL     1      40.379 -27.548 -13.819  0.00  0.00    +0.295 HD
ENDBRANCH  14  15
ENDBRANCH  12  14
ENDBRANCH  10  12
ENDBRANCH   9  10
ENDBRANCH   5   9
ENDBRANCH   1   2
BRANCH   1  17
ATOM     17  C   UNL     1      33.252 -23.297 -17.862  0.00  0.00    +0.118 C 
BRANCH  17  18
ATOM     18  C   UNL     1      33.651 -22.215 -18.825  0.00  0.00    -0.002 C 
ATOM     19  C   UNL     1      32.698 -21.304 -19.266  0.00  0.00    -0.003 C 
ATOM     20  C   UNL     1      34.966 -22.138 -19.265  0.00  0.00    -0.003 C 
ATOM     21  C   UNL     1      33.068 -20.299 -20.160  0.00  0.00    -0.000 C 
ATOM     22  C   UNL     1      35.336 -21.133 -20.159  0.00  0.00    -0.000 C 
ATOM     23  C   UNL     1      34.387 -20.214 -20.606  0.00  0.00    -0.000 C 
ENDBRANCH  17  18
ENDBRANCH   1  17
BRANCH   1  24
ATOM     24  C   UNL     1      32.705 -22.421 -15.585  0.00  0.00    +0.118 C 
BRANCH  24  25
ATOM     25  C   UNL     1      31.590 -23.403 -15.356  0.00  0.00    -0.002 C 
ATOM     26  C   UNL     1      31.757 -24.424 -14.428  0.00  0.00    -0.003 C 
ATOM     27  C   UNL     1      30.407 -23.278 -16.071  0.00  0.00    -0.003 C 
ATOM     28  C   UNL     1      30.723 -25.335 -14.215  0.00  0.00    -0.000 C 
ATOM     29  C   UNL     1      29.373 -24.189 -15.857  0.00  0.00    -0.000 C 
ATOM     30  C   UNL     1      29.530 -25.217 -14.929  0.00  0.00    -0.000 C 
ENDBRANCH  24  25
ENDBRANCH   1  24
TORSDOF 10
ENDMDL
