MODEL 1
REMARK VINA RESULT:      -8.6      0.000      0.000
REMARK  Name = 9547959
REMARK  7 active torsions:
REMARK  status: ('A' for Active; 'I' for Inactive)
REMARK    1  A    between atoms: C_3  and  C_7
REMARK    2  A    between atoms: C_4  and  O_17
REMARK    3  A    between atoms: C_6  and  C_14
REMARK    4  A    between atoms: C_14  and  O_15
REMARK    5  A    between atoms: O_17  and  C_18
REMARK    6  A    between atoms: C_18  and  C_20
REMARK    7  A    between atoms: C_20  and  O_21
REMARK                            x       y       z     vdW  Elec       q    Type
REMARK                         _______ _______ _______ _____ _____    ______ ____
ROOT
ATOM      1 BR   UNL     1      35.060 -19.302 -24.353  0.00  0.00    -0.045 Br
ATOM      2  S   UNL     1      34.059 -16.693 -20.934  0.00  0.00    -0.077 S 
ATOM      3  C   UNL     1      34.424 -18.157 -21.747  0.00  0.00    +0.039 A 
ATOM      4  C   UNL     1      34.492 -16.589 -23.465  0.00  0.00    +0.158 A 
ATOM      5  C   UNL     1      34.633 -17.957 -23.095  0.00  0.00    +0.075 A 
ATOM      6  C   UNL     1      34.179 -15.792 -22.385  0.00  0.00    +0.139 A 
ENDROOT
BRANCH   3   7
ATOM      7  C   UNL     1      34.470 -19.373 -20.971  0.00  0.00    +0.007 C 
ATOM      8  C   UNL     1      35.699 -19.949 -20.650  0.00  0.00    +0.001 C 
ATOM      9  C   UNL     1      33.286 -19.972 -20.541  0.00  0.00    +0.001 C 
ATOM     10  C   UNL     1      35.743 -21.123 -19.899  0.00  0.00    +0.000 C 
ATOM     11  C   UNL     1      33.330 -21.146 -19.791  0.00  0.00    +0.000 C 
ATOM     12  C   UNL     1      34.559 -21.722 -19.470  0.00  0.00    +0.000 C 
ENDBRANCH   3   7
BRANCH   6  14
ATOM     13  O   UNL     1      33.212 -13.760 -21.560  0.00  0.00    -0.244 OA
ATOM     14  C   UNL     1      33.959 -14.381 -22.338  0.00  0.00    +0.347 C 
BRANCH  14  15
ATOM     15  O   UNL     1      34.679 -13.694 -23.282  0.00  0.00    -0.477 OA
ATOM     16  H   UNL     1      35.354 -14.129 -23.765  0.00  0.00    +0.295 HD
ENDBRANCH  14  15
ENDBRANCH   6  14
BRANCH   4  17
ATOM     17  O   UNL     1      34.638 -16.089 -24.706  0.00  0.00    -0.463 OA
BRANCH  17  18
ATOM     18  C   UNL     1      33.536 -16.229 -25.613  0.00  0.00    +0.314 C 
BRANCH  18  20
ATOM     19  O   UNL     1      33.654 -14.523 -27.340  0.00  0.00    -0.246 OA
ATOM     20  C   UNL     1      33.235 -14.904 -26.257  0.00  0.00    +0.359 C 
BRANCH  20  21
ATOM     21  O   UNL     1      32.416 -14.173 -25.461  0.00  0.00    -0.478 OA
ATOM     22  H   UNL     1      31.882 -13.497 -25.832  0.00  0.00    +0.295 HD
ENDBRANCH  20  21
ENDBRANCH  18  20
ENDBRANCH  17  18
ENDBRANCH   4  17
TORSDOF 7
ENDMDL
MODEL 2
REMARK VINA RESULT:      -8.2     10.134     12.242
REMARK  Name = 9547959
REMARK  7 active torsions:
REMARK  status: ('A' for Active; 'I' for Inactive)
REMARK    1  A    between atoms: C_3  and  C_7
REMARK    2  A    between atoms: C_4  and  O_17
REMARK    3  A    between atoms: C_6  and  C_14
REMARK    4  A    between atoms: C_14  and  O_15
REMARK    5  A    between atoms: O_17  and  C_18
REMARK    6  A    between atoms: C_18  and  C_20
REMARK    7  A    between atoms: C_20  and  O_21
REMARK                            x       y       z     vdW  Elec       q    Type
REMARK                         _______ _______ _______ _____ _____    ______ ____
ROOT
ATOM      1 BR   UNL     1      36.453 -22.313 -16.631  0.00  0.00    -0.045 Br
ATOM      2  S   UNL     1      34.806 -24.619 -13.245  0.00  0.00    -0.077 S 
ATOM      3  C   UNL     1      34.772 -23.681 -14.679  0.00  0.00    +0.039 A 
ATOM      4  C   UNL     1      37.050 -23.853 -14.234  0.00  0.00    +0.158 A 
ATOM      5  C   UNL     1      36.041 -23.339 -15.098  0.00  0.00    +0.075 A 
ATOM      6  C   UNL     1      36.517 -24.568 -13.184  0.00  0.00    +0.139 A 
ENDROOT
BRANCH   3   7
ATOM      7  C   UNL     1      33.488 -23.369 -15.258  0.00  0.00    +0.007 C 
ATOM      8  C   UNL     1      33.343 -23.313 -16.644  0.00  0.00    +0.001 C 
ATOM      9  C   UNL     1      32.391 -23.124 -14.431  0.00  0.00    +0.001 C 
ATOM     10  C   UNL     1      32.102 -23.012 -17.203  0.00  0.00    +0.000 C 
ATOM     11  C   UNL     1      31.150 -22.824 -14.991  0.00  0.00    +0.000 C 
ATOM     12  C   UNL     1      31.005 -22.768 -16.377  0.00  0.00    +0.000 C 
ENDBRANCH   3   7
BRANCH   6  14
ATOM     13  O   UNL     1      37.188 -26.456 -11.870  0.00  0.00    -0.244 OA
ATOM     14  C   UNL     1      37.186 -25.236 -12.113  0.00  0.00    +0.347 C 
BRANCH  14  15
ATOM     15  O   UNL     1      37.886 -24.379 -11.301  0.00  0.00    -0.477 OA
ATOM     16  H   UNL     1      38.722 -24.054 -11.572  0.00  0.00    +0.295 HD
ENDBRANCH  14  15
ENDBRANCH   6  14
BRANCH   4  17
ATOM     17  O   UNL     1      38.377 -23.685 -14.385  0.00  0.00    -0.463 OA
BRANCH  17  18
ATOM     18  C   UNL     1      39.042 -24.492 -15.366  0.00  0.00    +0.314 C 
BRANCH  18  20
ATOM     19  O   UNL     1      41.051 -25.408 -14.352  0.00  0.00    -0.246 OA
ATOM     20  C   UNL     1      39.881 -25.536 -14.684  0.00  0.00    +0.359 C 
BRANCH  20  21
ATOM     21  O   UNL     1      39.153 -26.661 -14.479  0.00  0.00    -0.478 OA
ATOM     22  H   UNL     1      39.498 -27.353 -13.948  0.00  0.00    +0.295 HD
ENDBRANCH  20  21
ENDBRANCH  18  20
ENDBRANCH  17  18
ENDBRANCH   4  17
TORSDOF 7
ENDMDL
MODEL 3
REMARK VINA RESULT:      -7.9      2.174      3.381
REMARK  Name = 9547959
REMARK  7 active torsions:
REMARK  status: ('A' for Active; 'I' for Inactive)
REMARK    1  A    between atoms: C_3  and  C_7
REMARK    2  A    between atoms: C_4  and  O_17
REMARK    3  A    between atoms: C_6  and  C_14
REMARK    4  A    between atoms: C_14  and  O_15
REMARK    5  A    between atoms: O_17  and  C_18
REMARK    6  A    between atoms: C_18  and  C_20
REMARK    7  A    between atoms: C_20  and  O_21
REMARK                            x       y       z     vdW  Elec       q    Type
REMARK                         _______ _______ _______ _____ _____    ______ ____
ROOT
ATOM      1 BR   UNL     1      34.498 -15.242 -20.275  0.00  0.00    -0.045 Br
ATOM      2  S   UNL     1      34.342 -17.334 -24.160  0.00  0.00    -0.077 S 
ATOM      3  C   UNL     1      34.602 -17.153 -22.476  0.00  0.00    +0.039 A 
ATOM      4  C   UNL     1      33.920 -15.023 -23.120  0.00  0.00    +0.158 A 
ATOM      5  C   UNL     1      34.339 -15.867 -22.052  0.00  0.00    +0.075 A 
ATOM      6  C   UNL     1      33.878 -15.694 -24.323  0.00  0.00    +0.139 A 
ENDROOT
BRANCH   3   7
ATOM      7  C   UNL     1      35.044 -18.305 -21.727  0.00  0.00    +0.007 C 
ATOM      8  C   UNL     1      36.404 -18.505 -21.494  0.00  0.00    +0.001 C 
ATOM      9  C   UNL     1      34.110 -19.217 -21.236  0.00  0.00    +0.001 C 
ATOM     10  C   UNL     1      36.830 -19.618 -20.769  0.00  0.00    +0.000 C 
ATOM     11  C   UNL     1      34.536 -20.330 -20.512  0.00  0.00    +0.000 C 
ATOM     12  C   UNL     1      35.897 -20.530 -20.278  0.00  0.00    +0.000 C 
ENDBRANCH   3   7
BRANCH   6  14
ATOM     13  O   UNL     1      33.216 -15.883 -26.618  0.00  0.00    -0.244 OA
ATOM     14  C   UNL     1      33.513 -15.209 -25.616  0.00  0.00    +0.347 C 
BRANCH  14  15
ATOM     15  O   UNL     1      33.508 -13.838 -25.692  0.00  0.00    -0.477 OA
ATOM     16  H   UNL     1      32.716 -13.363 -25.537  0.00  0.00    +0.295 HD
ENDBRANCH  14  15
ENDBRANCH   6  14
BRANCH   4  17
ATOM     17  O   UNL     1      33.594 -13.722 -23.014  0.00  0.00    -0.463 OA
BRANCH  17  18
ATOM     18  C   UNL     1      32.319 -13.400 -22.443  0.00  0.00    +0.314 C 
BRANCH  18  20
ATOM     19  O   UNL     1      32.793 -11.116 -23.122  0.00  0.00    -0.246 OA
ATOM     20  C   UNL     1      32.054 -11.927 -22.584  0.00  0.00    +0.359 C 
BRANCH  20  21
ATOM     21  O   UNL     1      30.860 -11.610 -22.024  0.00  0.00    -0.478 OA
ATOM     22  H   UNL     1      30.362 -12.267 -21.578  0.00  0.00    +0.295 HD
ENDBRANCH  20  21
ENDBRANCH  18  20
ENDBRANCH  17  18
ENDBRANCH   4  17
TORSDOF 7
ENDMDL
MODEL 4
REMARK VINA RESULT:      -7.8      2.184      3.301
REMARK  Name = 9547959
REMARK  7 active torsions:
REMARK  status: ('A' for Active; 'I' for Inactive)
REMARK    1  A    between atoms: C_3  and  C_7
REMARK    2  A    between atoms: C_4  and  O_17
REMARK    3  A    between atoms: C_6  and  C_14
REMARK    4  A    between atoms: C_14  and  O_15
REMARK    5  A    between atoms: O_17  and  C_18
REMARK    6  A    between atoms: C_18  and  C_20
REMARK    7  A    between atoms: C_20  and  O_21
REMARK                            x       y       z     vdW  Elec       q    Type
REMARK                         _______ _______ _______ _____ _____    ______ ____
ROOT
ATOM      1 BR   UNL     1      34.229 -16.155 -24.615  0.00  0.00    -0.045 Br
ATOM      2  S   UNL     1      32.979 -15.198 -20.489  0.00  0.00    -0.077 S 
ATOM      3  C   UNL     1      33.669 -16.129 -21.753  0.00  0.00    +0.039 A 
ATOM      4  C   UNL     1      32.955 -14.211 -22.861  0.00  0.00    +0.158 A 
ATOM      5  C   UNL     1      33.589 -15.482 -22.968  0.00  0.00    +0.075 A 
ATOM      6  C   UNL     1      32.573 -13.932 -21.568  0.00  0.00    +0.139 A 
ENDROOT
BRANCH   3   7
ATOM      7  C   UNL     1      34.228 -17.417 -21.422  0.00  0.00    +0.007 C 
ATOM      8  C   UNL     1      33.386 -18.478 -21.086  0.00  0.00    +0.001 C 
ATOM      9  C   UNL     1      35.610 -17.603 -21.439  0.00  0.00    +0.001 C 
ATOM     10  C   UNL     1      33.927 -19.723 -20.768  0.00  0.00    +0.000 C 
ATOM     11  C   UNL     1      36.151 -18.848 -21.121  0.00  0.00    +0.000 C 
ATOM     12  C   UNL     1      35.309 -19.908 -20.785  0.00  0.00    +0.000 C 
ENDBRANCH   3   7
BRANCH   6  14
ATOM     13  O   UNL     1      32.001 -12.310 -19.899  0.00  0.00    -0.244 OA
ATOM     14  C   UNL     1      31.916 -12.773 -21.050  0.00  0.00    +0.347 C 
BRANCH  14  15
ATOM     15  O   UNL     1      31.118 -12.151 -21.977  0.00  0.00    -0.477 OA
ATOM     16  H   UNL     1      30.244 -12.455 -22.123  0.00  0.00    +0.295 HD
ENDBRANCH  14  15
ENDBRANCH   6  14
BRANCH   4  17
ATOM     17  O   UNL     1      32.736 -13.353 -23.874  0.00  0.00    -0.463 OA
BRANCH  17  18
ATOM     18  C   UNL     1      33.871 -12.679 -24.433  0.00  0.00    +0.314 C 
BRANCH  18  20
ATOM     19  O   UNL     1      32.883 -10.643 -23.547  0.00  0.00    -0.246 OA
ATOM     20  C   UNL     1      33.819 -11.217 -24.083  0.00  0.00    +0.359 C 
BRANCH  20  21
ATOM     21  O   UNL     1      34.974 -10.607 -24.447  0.00  0.00    -0.478 OA
ATOM     22  H   UNL     1      35.285 -10.679 -25.329  0.00  0.00    +0.295 HD
ENDBRANCH  20  21
ENDBRANCH  18  20
ENDBRANCH  17  18
ENDBRANCH   4  17
TORSDOF 7
ENDMDL
MODEL 5
REMARK VINA RESULT:      -7.8      8.741     11.549
REMARK  Name = 9547959
REMARK  7 active torsions:
REMARK  status: ('A' for Active; 'I' for Inactive)
REMARK    1  A    between atoms: C_3  and  C_7
REMARK    2  A    between atoms: C_4  and  O_17
REMARK    3  A    between atoms: C_6  and  C_14
REMARK    4  A    between atoms: C_14  and  O_15
REMARK    5  A    between atoms: O_17  and  C_18
REMARK    6  A    between atoms: C_18  and  C_20
REMARK    7  A    between atoms: C_20  and  O_21
REMARK                            x       y       z     vdW  Elec       q    Type
REMARK                         _______ _______ _______ _____ _____    ______ ____
ROOT
ATOM      1 BR   UNL     1      37.448 -22.933 -15.801  0.00  0.00    -0.045 Br
ATOM      2  S   UNL     1      33.096 -23.366 -16.407  0.00  0.00    -0.077 S 
ATOM      3  C   UNL     1      34.699 -22.882 -16.774  0.00  0.00    +0.039 A 
ATOM      4  C   UNL     1      34.946 -23.964 -14.728  0.00  0.00    +0.158 A 
ATOM      5  C   UNL     1      35.588 -23.266 -15.791  0.00  0.00    +0.075 A 
ATOM      6  C   UNL     1      33.590 -24.089 -14.936  0.00  0.00    +0.139 A 
ENDROOT
BRANCH   3   7
ATOM      7  C   UNL     1      34.929 -22.165 -18.004  0.00  0.00    +0.007 C 
ATOM      8  C   UNL     1      33.861 -21.871 -18.851  0.00  0.00    +0.001 C 
ATOM      9  C   UNL     1      36.221 -21.763 -18.346  0.00  0.00    +0.001 C 
ATOM     10  C   UNL     1      34.084 -21.177 -20.039  0.00  0.00    +0.000 C 
ATOM     11  C   UNL     1      36.444 -21.069 -19.534  0.00  0.00    +0.000 C 
ATOM     12  C   UNL     1      35.374 -20.776 -20.382  0.00  0.00    +0.000 C 
ENDBRANCH   3   7
BRANCH   6  14
ATOM     13  O   UNL     1      31.445 -25.032 -14.435  0.00  0.00    -0.244 OA
ATOM     14  C   UNL     1      32.604 -24.716 -14.113  0.00  0.00    +0.347 C 
BRANCH  14  15
ATOM     15  O   UNL     1      33.050 -24.969 -12.841  0.00  0.00    -0.477 OA
ATOM     16  H   UNL     1      33.238 -25.848 -12.576  0.00  0.00    +0.295 HD
ENDBRANCH  14  15
ENDBRANCH   6  14
BRANCH   4  17
ATOM     17  O   UNL     1      35.552 -24.461 -13.634  0.00  0.00    -0.463 OA
BRANCH  17  18
ATOM     18  C   UNL     1      35.830 -23.555 -12.558  0.00  0.00    +0.314 C 
BRANCH  18  20
ATOM     19  O   UNL     1      35.273 -24.974 -10.666  0.00  0.00    -0.246 OA
ATOM     20  C   UNL     1      36.097 -24.328 -11.297  0.00  0.00    +0.359 C 
BRANCH  20  21
ATOM     21  O   UNL     1      37.401 -24.212 -10.944  0.00  0.00    -0.478 OA
ATOM     22  H   UNL     1      38.005 -23.779 -11.515  0.00  0.00    +0.295 HD
ENDBRANCH  20  21
ENDBRANCH  18  20
ENDBRANCH  17  18
ENDBRANCH   4  17
TORSDOF 7
ENDMDL
MODEL 6
REMARK VINA RESULT:      -7.8      1.465      1.950
REMARK  Name = 9547959
REMARK  7 active torsions:
REMARK  status: ('A' for Active; 'I' for Inactive)
REMARK    1  A    between atoms: C_3  and  C_7
REMARK    2  A    between atoms: C_4  and  O_17
REMARK    3  A    between atoms: C_6  and  C_14
REMARK    4  A    between atoms: C_14  and  O_15
REMARK    5  A    between atoms: O_17  and  C_18
REMARK    6  A    between atoms: C_18  and  C_20
REMARK    7  A    between atoms: C_20  and  O_21
REMARK                            x       y       z     vdW  Elec       q    Type
REMARK                         _______ _______ _______ _____ _____    ______ ____
ROOT
ATOM      1 BR   UNL     1      34.983 -16.791 -24.505  0.00  0.00    -0.045 Br
ATOM      2  S   UNL     1      33.091 -15.654 -20.681  0.00  0.00    -0.077 S 
ATOM      3  C   UNL     1      33.947 -16.650 -21.782  0.00  0.00    +0.039 A 
ATOM      4  C   UNL     1      33.509 -14.747 -23.048  0.00  0.00    +0.158 A 
ATOM      5  C   UNL     1      34.101 -16.042 -23.011  0.00  0.00    +0.075 A 
ATOM      6  C   UNL     1      32.924 -14.411 -21.847  0.00  0.00    +0.139 A 
ENDROOT
BRANCH   3   7
ATOM      7  C   UNL     1      34.390 -17.945 -21.327  0.00  0.00    +0.007 C 
ATOM      8  C   UNL     1      35.753 -18.212 -21.199  0.00  0.00    +0.001 C 
ATOM      9  C   UNL     1      33.454 -18.931 -21.012  0.00  0.00    +0.001 C 
ATOM     10  C   UNL     1      36.180 -19.463 -20.758  0.00  0.00    +0.000 C 
ATOM     11  C   UNL     1      33.882 -20.183 -20.570  0.00  0.00    +0.000 C 
ATOM     12  C   UNL     1      35.246 -20.449 -20.443  0.00  0.00    +0.000 C 
ENDBRANCH   3   7
BRANCH   6  14
ATOM     13  O   UNL     1      32.180 -12.691 -20.353  0.00  0.00    -0.244 OA
ATOM     14  C   UNL     1      32.236 -13.214 -21.481  0.00  0.00    +0.347 C 
BRANCH  14  15
ATOM     15  O   UNL     1      31.585 -12.626 -22.536  0.00  0.00    -0.477 OA
ATOM     16  H   UNL     1      32.003 -12.571 -23.373  0.00  0.00    +0.295 HD
ENDBRANCH  14  15
ENDBRANCH   6  14
BRANCH   4  17
ATOM     17  O   UNL     1      33.499 -13.915 -24.107  0.00  0.00    -0.463 OA
BRANCH  17  18
ATOM     18  C   UNL     1      32.654 -14.257 -25.213  0.00  0.00    +0.314 C 
BRANCH  18  20
ATOM     19  O   UNL     1      33.663 -14.618 -27.394  0.00  0.00    -0.246 OA
ATOM     20  C   UNL     1      33.315 -13.858 -26.503  0.00  0.00    +0.359 C 
BRANCH  20  21
ATOM     21  O   UNL     1      33.477 -12.512 -26.548  0.00  0.00    -0.478 OA
ATOM     22  H   UNL     1      32.728 -11.949 -26.540  0.00  0.00    +0.295 HD
ENDBRANCH  20  21
ENDBRANCH  18  20
ENDBRANCH  17  18
ENDBRANCH   4  17
TORSDOF 7
ENDMDL
MODEL 7
REMARK VINA RESULT:      -7.7      1.836      2.815
REMARK  Name = 9547959
REMARK  7 active torsions:
REMARK  status: ('A' for Active; 'I' for Inactive)
REMARK    1  A    between atoms: C_3  and  C_7
REMARK    2  A    between atoms: C_4  and  O_17
REMARK    3  A    between atoms: C_6  and  C_14
REMARK    4  A    between atoms: C_14  and  O_15
REMARK    5  A    between atoms: O_17  and  C_18
REMARK    6  A    between atoms: C_18  and  C_20
REMARK    7  A    between atoms: C_20  and  O_21
REMARK                            x       y       z     vdW  Elec       q    Type
REMARK                         _______ _______ _______ _____ _____    ______ ____
ROOT
ATOM      1 BR   UNL     1      34.561 -16.011 -20.167  0.00  0.00    -0.045 Br
ATOM      2  S   UNL     1      34.453 -18.519 -23.799  0.00  0.00    -0.077 S 
ATOM      3  C   UNL     1      34.489 -18.175 -22.121  0.00  0.00    +0.039 A 
ATOM      4  C   UNL     1      34.510 -16.054 -23.077  0.00  0.00    +0.158 A 
ATOM      5  C   UNL     1      34.517 -16.818 -21.875  0.00  0.00    +0.075 A 
ATOM      6  C   UNL     1      34.477 -16.854 -24.198  0.00  0.00    +0.139 A 
ENDROOT
BRANCH   3   7
ATOM      7  C   UNL     1      34.485 -19.285 -21.198  0.00  0.00    +0.007 C 
ATOM      8  C   UNL     1      35.689 -19.854 -20.786  0.00  0.00    +0.001 C 
ATOM      9  C   UNL     1      33.275 -19.787 -20.718  0.00  0.00    +0.001 C 
ATOM     10  C   UNL     1      35.685 -20.926 -19.894  0.00  0.00    +0.000 C 
ATOM     11  C   UNL     1      33.271 -20.859 -19.826  0.00  0.00    +0.000 C 
ATOM     12  C   UNL     1      34.476 -21.428 -19.414  0.00  0.00    +0.000 C 
ENDBRANCH   3   7
BRANCH   6  14
ATOM     13  O   UNL     1      33.555 -15.874 -26.181  0.00  0.00    -0.244 OA
ATOM     14  C   UNL     1      34.459 -16.477 -25.577  0.00  0.00    +0.347 C 
BRANCH  14  15
ATOM     15  O   UNL     1      35.594 -16.854 -26.250  0.00  0.00    -0.477 OA
ATOM     16  H   UNL     1      35.571 -17.584 -26.836  0.00  0.00    +0.295 HD
ENDBRANCH  14  15
ENDBRANCH   6  14
BRANCH   4  17
ATOM     17  O   UNL     1      34.532 -14.710 -23.156  0.00  0.00    -0.463 OA
BRANCH  17  18
ATOM     18  C   UNL     1      33.273 -14.025 -23.180  0.00  0.00    +0.314 C 
BRANCH  18  20
ATOM     19  O   UNL     1      33.430 -11.636 -23.599  0.00  0.00    -0.246 OA
ATOM     20  C   UNL     1      33.384 -12.783 -24.020  0.00  0.00    +0.359 C 
BRANCH  20  21
ATOM     21  O   UNL     1      33.430 -13.110 -25.335  0.00  0.00    -0.478 OA
ATOM     22  H   UNL     1      33.945 -13.839 -25.620  0.00  0.00    +0.295 HD
ENDBRANCH  20  21
ENDBRANCH  18  20
ENDBRANCH  17  18
ENDBRANCH   4  17
TORSDOF 7
ENDMDL
MODEL 8
REMARK VINA RESULT:      -7.7     10.719     12.116
REMARK  Name = 9547959
REMARK  7 active torsions:
REMARK  status: ('A' for Active; 'I' for Inactive)
REMARK    1  A    between atoms: C_3  and  C_7
REMARK    2  A    between atoms: C_4  and  O_17
REMARK    3  A    between atoms: C_6  and  C_14
REMARK    4  A    between atoms: C_14  and  O_15
REMARK    5  A    between atoms: O_17  and  C_18
REMARK    6  A    between atoms: C_18  and  C_20
REMARK    7  A    between atoms: C_20  and  O_21
REMARK                            x       y       z     vdW  Elec       q    Type
REMARK                         _______ _______ _______ _____ _____    ______ ____
ROOT
ATOM      1 BR   UNL     1      34.963 -23.087 -16.592  0.00  0.00    -0.045 Br
ATOM      2  S   UNL     1      34.487 -23.874 -12.273  0.00  0.00    -0.077 S 
ATOM      3  C   UNL     1      33.997 -23.679 -13.904  0.00  0.00    +0.039 A 
ATOM      4  C   UNL     1      36.293 -23.310 -14.012  0.00  0.00    +0.158 A 
ATOM      5  C   UNL     1      35.063 -23.380 -14.727  0.00  0.00    +0.075 A 
ATOM      6  C   UNL     1      36.123 -23.558 -12.667  0.00  0.00    +0.139 A 
ENDROOT
BRANCH   3   7
ATOM      7  C   UNL     1      32.599 -23.841 -14.219  0.00  0.00    +0.007 C 
ATOM      8  C   UNL     1      31.972 -25.068 -14.002  0.00  0.00    +0.001 C 
ATOM      9  C   UNL     1      31.873 -22.770 -14.740  0.00  0.00    +0.001 C 
ATOM     10  C   UNL     1      30.621 -25.224 -14.306  0.00  0.00    +0.000 C 
ATOM     11  C   UNL     1      30.521 -22.926 -15.044  0.00  0.00    +0.000 C 
ATOM     12  C   UNL     1      29.894 -24.154 -14.826  0.00  0.00    +0.000 C 
ENDBRANCH   3   7
BRANCH   6  14
ATOM     13  O   UNL     1      37.091 -24.293 -10.602  0.00  0.00    -0.244 OA
ATOM     14  C   UNL     1      37.098 -23.583 -11.623  0.00  0.00    +0.347 C 
BRANCH  14  15
ATOM     15  O   UNL     1      38.129 -22.701 -11.832  0.00  0.00    -0.477 OA
ATOM     16  H   UNL     1      38.384 -22.109 -11.152  0.00  0.00    +0.295 HD
ENDBRANCH  14  15
ENDBRANCH   6  14
BRANCH   4  17
ATOM     17  O   UNL     1      37.499 -23.039 -14.543  0.00  0.00    -0.463 OA
BRANCH  17  18
ATOM     18  C   UNL     1      38.049 -23.989 -15.465  0.00  0.00    +0.314 C 
BRANCH  18  20
ATOM     19  O   UNL     1      39.480 -24.675 -13.625  0.00  0.00    -0.246 OA
ATOM     20  C   UNL     1      39.129 -24.788 -14.790  0.00  0.00    +0.359 C 
BRANCH  20  21
ATOM     21  O   UNL     1      39.674 -25.670 -15.664  0.00  0.00    -0.478 OA
ATOM     22  H   UNL     1      40.353 -26.251 -15.381  0.00  0.00    +0.295 HD
ENDBRANCH  20  21
ENDBRANCH  18  20
ENDBRANCH  17  18
ENDBRANCH   4  17
TORSDOF 7
ENDMDL
MODEL 9
REMARK VINA RESULT:      -7.7      9.359     12.169
REMARK  Name = 9547959
REMARK  7 active torsions:
REMARK  status: ('A' for Active; 'I' for Inactive)
REMARK    1  A    between atoms: C_3  and  C_7
REMARK    2  A    between atoms: C_4  and  O_17
REMARK    3  A    between atoms: C_6  and  C_14
REMARK    4  A    between atoms: C_14  and  O_15
REMARK    5  A    between atoms: O_17  and  C_18
REMARK    6  A    between atoms: C_18  and  C_20
REMARK    7  A    between atoms: C_20  and  O_21
REMARK                            x       y       z     vdW  Elec       q    Type
REMARK                         _______ _______ _______ _____ _____    ______ ____
ROOT
ATOM      1 BR   UNL     1      33.309 -23.471 -15.126  0.00  0.00    -0.045 Br
ATOM      2  S   UNL     1      37.685 -23.419 -15.714  0.00  0.00    -0.077 S 
ATOM      3  C   UNL     1      36.039 -23.127 -16.093  0.00  0.00    +0.039 A 
ATOM      4  C   UNL     1      35.907 -24.193 -14.028  0.00  0.00    +0.158 A 
ATOM      5  C   UNL     1      35.195 -23.591 -15.106  0.00  0.00    +0.075 A 
ATOM      6  C   UNL     1      37.269 -24.167 -14.230  0.00  0.00    +0.139 A 
ENDROOT
BRANCH   3   7
ATOM      7  C   UNL     1      35.735 -22.463 -17.337  0.00  0.00    +0.007 C 
ATOM      8  C   UNL     1      34.475 -22.610 -17.917  0.00  0.00    +0.001 C 
ATOM      9  C   UNL     1      36.700 -21.671 -17.960  0.00  0.00    +0.001 C 
ATOM     10  C   UNL     1      34.181 -21.967 -19.118  0.00  0.00    +0.000 C 
ATOM     11  C   UNL     1      36.406 -21.028 -19.161  0.00  0.00    +0.000 C 
ATOM     12  C   UNL     1      35.145 -21.176 -19.741  0.00  0.00    +0.000 C 
ENDBRANCH   3   7
BRANCH   6  14
ATOM     13  O   UNL     1      38.977 -24.022 -12.555  0.00  0.00    -0.244 OA
ATOM     14  C   UNL     1      38.316 -24.661 -13.393  0.00  0.00    +0.347 C 
BRANCH  14  15
ATOM     15  O   UNL     1      38.572 -25.996 -13.587  0.00  0.00    -0.477 OA
ATOM     16  H   UNL     1      37.971 -26.522 -14.077  0.00  0.00    +0.295 HD
ENDBRANCH  14  15
ENDBRANCH   6  14
BRANCH   4  17
ATOM     17  O   UNL     1      35.356 -24.733 -12.925  0.00  0.00    -0.463 OA
BRANCH  17  18
ATOM     18  C   UNL     1      35.005 -23.846 -11.855  0.00  0.00    +0.314 C 
BRANCH  18  20
ATOM     19  O   UNL     1      35.247 -25.038  -9.751  0.00  0.00    -0.246 OA
ATOM     20  C   UNL     1      35.698 -24.273 -10.591  0.00  0.00    +0.359 C 
BRANCH  20  21
ATOM     21  O   UNL     1      36.917 -23.685 -10.504  0.00  0.00    -0.478 OA
ATOM     22  H   UNL     1      36.995 -22.814 -10.168  0.00  0.00    +0.295 HD
ENDBRANCH  20  21
ENDBRANCH  18  20
ENDBRANCH  17  18
ENDBRANCH   4  17
TORSDOF 7
ENDMDL
