MODEL 1
REMARK VINA RESULT:      -9.7      0.000      0.000
REMARK  Name = 448564
REMARK  4 active torsions:
REMARK  status: ('A' for Active; 'I' for Inactive)
REMARK    1  A    between atoms: C_3  and  C_12
REMARK    2  A    between atoms: C_6  and  C_21
REMARK    3  A    between atoms: C_13  and  C_19
REMARK    4  A    between atoms: C_21  and  O_22
REMARK                            x       y       z     vdW  Elec       q    Type
REMARK                         _______ _______ _______ _____ _____    ______ ____
ROOT
ATOM      1 CL   UNL     1      36.329 -22.067 -18.556  0.00  0.00    -0.082 Cl
ATOM      2  F   UNL     1      37.387 -18.247 -21.679  0.00  0.00    -0.204 F 
ATOM      3  C   UNL     1      35.104 -18.897 -21.530  0.00  0.00    +0.048 C 
ATOM      4  C   UNL     1      34.133 -19.734 -20.980  0.00  0.00    +0.011 C 
ATOM      5  C   UNL     1      36.440 -19.044 -21.161  0.00  0.00    +0.142 C 
ATOM      6  C   UNL     1      34.497 -20.717 -20.060  0.00  0.00    +0.086 C 
ATOM      7  C   UNL     1      36.806 -20.027 -20.240  0.00  0.00    +0.041 C 
ATOM      8  C   UNL     1      35.835 -20.863 -19.690  0.00  0.00    +0.066 C 
ENDROOT
BRANCH   3  12
ATOM      9 BR   UNL     1      34.477 -15.663 -20.566  0.00  0.00    -0.046 Br
ATOM     10  N   UNL     1      34.243 -17.032 -24.338  0.00  0.00    -0.244 N 
ATOM     11  N   UNL     1      34.604 -18.196 -23.772  0.00  0.00    -0.169 NA
ATOM     12  C   UNL     1      34.723 -17.886 -22.476  0.00  0.00    +0.111 A 
ATOM     13  C   UNL     1      34.130 -16.000 -23.451  0.00  0.00    +0.157 A 
ATOM     14  C   UNL     1      34.438 -16.527 -22.221  0.00  0.00    +0.075 A 
ATOM     15  C   UNL     1      34.020 -16.980 -25.764  0.00  0.00    +0.154 C 
BRANCH  13  19
ATOM     16  F   UNL     1      34.576 -13.671 -23.374  0.00  0.00    -0.164 F 
ATOM     17  F   UNL     1      33.740 -14.464 -25.218  0.00  0.00    -0.164 F 
ATOM     18  F   UNL     1      32.491 -14.306 -23.438  0.00  0.00    -0.164 F 
ATOM     19  C   UNL     1      33.744 -14.637 -23.864  0.00  0.00    +0.435 C 
ENDBRANCH  13  19
ENDBRANCH   3  12
BRANCH   6  21
ATOM     20  O   UNL     1      33.515 -22.795 -19.400  0.00  0.00    -0.245 OA
ATOM     21  C   UNL     1      33.449 -21.569 -19.513  0.00  0.00    +0.339 C 
BRANCH  21  22
ATOM     22  O   UNL     1      32.355 -20.859 -19.126  0.00  0.00    -0.477 OA
ATOM     23  H   UNL     1      31.500 -21.139 -19.387  0.00  0.00    +0.295 HD
ENDBRANCH  21  22
ENDBRANCH   6  21
TORSDOF 4
ENDMDL
MODEL 2
REMARK VINA RESULT:      -9.5      5.217      7.396
REMARK  Name = 448564
REMARK  4 active torsions:
REMARK  status: ('A' for Active; 'I' for Inactive)
REMARK    1  A    between atoms: C_3  and  C_12
REMARK    2  A    between atoms: C_6  and  C_21
REMARK    3  A    between atoms: C_13  and  C_19
REMARK    4  A    between atoms: C_21  and  O_22
REMARK                            x       y       z     vdW  Elec       q    Type
REMARK                         _______ _______ _______ _____ _____    ______ ____
ROOT
ATOM      1 CL   UNL     1      33.919 -17.176 -25.516  0.00  0.00    -0.082 Cl
ATOM      2  F   UNL     1      32.843 -12.342 -26.488  0.00  0.00    -0.204 F 
ATOM      3  C   UNL     1      33.618 -12.838 -24.294  0.00  0.00    +0.048 C 
ATOM      4  C   UNL     1      34.062 -13.782 -23.368  0.00  0.00    +0.011 C 
ATOM      5  C   UNL     1      33.271 -13.237 -25.584  0.00  0.00    +0.142 C 
ATOM      6  C   UNL     1      34.160 -15.125 -23.733  0.00  0.00    +0.086 C 
ATOM      7  C   UNL     1      33.369 -14.580 -25.950  0.00  0.00    +0.041 C 
ATOM      8  C   UNL     1      33.813 -15.524 -25.024  0.00  0.00    +0.066 C 
ENDROOT
BRANCH   3  12
ATOM      9 BR   UNL     1      35.540 -10.413 -25.780  0.00  0.00    -0.046 Br
ATOM     10  N   UNL     1      32.841  -9.759 -22.873  0.00  0.00    -0.244 N 
ATOM     11  N   UNL     1      32.661 -11.088 -22.956  0.00  0.00    -0.169 NA
ATOM     12  C   UNL     1      33.520 -11.457 -23.914  0.00  0.00    +0.111 A 
ATOM     13  C   UNL     1      33.778  -9.275 -23.740  0.00  0.00    +0.157 A 
ATOM     14  C   UNL     1      34.243 -10.363 -24.437  0.00  0.00    +0.075 A 
ATOM     15  C   UNL     1      32.064  -9.000 -21.922  0.00  0.00    +0.154 C 
BRANCH  13  19
ATOM     16  F   UNL     1      34.789  -7.508 -24.959  0.00  0.00    -0.164 F 
ATOM     17  F   UNL     1      33.043  -7.017 -23.760  0.00  0.00    -0.164 F 
ATOM     18  F   UNL     1      34.942  -7.460 -22.785  0.00  0.00    -0.164 F 
ATOM     19  C   UNL     1      34.130  -7.843 -23.812  0.00  0.00    +0.435 C 
ENDBRANCH  13  19
ENDBRANCH   3  12
BRANCH   6  21
ATOM     20  O   UNL     1      33.995 -16.426 -21.732  0.00  0.00    -0.245 OA
ATOM     21  C   UNL     1      34.627 -16.076 -22.732  0.00  0.00    +0.339 C 
BRANCH  21  22
ATOM     22  O   UNL     1      35.867 -16.558 -23.016  0.00  0.00    -0.477 OA
ATOM     23  H   UNL     1      36.616 -16.002 -22.931  0.00  0.00    +0.295 HD
ENDBRANCH  21  22
ENDBRANCH   6  21
TORSDOF 4
ENDMDL
MODEL 3
REMARK VINA RESULT:      -9.2      9.421     10.454
REMARK  Name = 448564
REMARK  4 active torsions:
REMARK  status: ('A' for Active; 'I' for Inactive)
REMARK    1  A    between atoms: C_3  and  C_12
REMARK    2  A    between atoms: C_6  and  C_21
REMARK    3  A    between atoms: C_13  and  C_19
REMARK    4  A    between atoms: C_21  and  O_22
REMARK                            x       y       z     vdW  Elec       q    Type
REMARK                         _______ _______ _______ _____ _____    ______ ____
ROOT
ATOM      1 CL   UNL     1      39.690 -25.222 -13.420  0.00  0.00    -0.082 Cl
ATOM      2  F   UNL     1      35.308 -26.100 -15.763  0.00  0.00    -0.204 F 
ATOM      3  C   UNL     1      35.290 -24.435 -14.064  0.00  0.00    +0.048 C 
ATOM      4  C   UNL     1      35.981 -23.710 -13.094  0.00  0.00    +0.011 C 
ATOM      5  C   UNL     1      35.957 -25.394 -14.825  0.00  0.00    +0.142 C 
ATOM      6  C   UNL     1      37.340 -23.942 -12.885  0.00  0.00    +0.086 C 
ATOM      7  C   UNL     1      37.317 -25.628 -14.616  0.00  0.00    +0.041 C 
ATOM      8  C   UNL     1      38.009 -24.902 -13.647  0.00  0.00    +0.066 C 
ENDROOT
BRANCH   3  12
ATOM      9 BR   UNL     1      34.117 -23.048 -16.977  0.00  0.00    -0.046 Br
ATOM     10  N   UNL     1      31.829 -24.146 -13.860  0.00  0.00    -0.244 N 
ATOM     11  N   UNL     1      33.006 -24.506 -13.323  0.00  0.00    -0.169 NA
ATOM     12  C   UNL     1      33.890 -24.191 -14.277  0.00  0.00    +0.111 A 
ATOM     13  C   UNL     1      31.934 -23.616 -15.113  0.00  0.00    +0.157 A 
ATOM     14  C   UNL     1      33.274 -23.631 -15.416  0.00  0.00    +0.075 A 
ATOM     15  C   UNL     1      30.616 -24.344 -13.100  0.00  0.00    +0.154 C 
BRANCH  13  19
ATOM     16  F   UNL     1      29.934 -22.340 -15.167  0.00  0.00    -0.164 F 
ATOM     17  F   UNL     1      31.095 -22.448 -17.002  0.00  0.00    -0.164 F 
ATOM     18  F   UNL     1      29.988 -24.195 -16.311  0.00  0.00    -0.164 F 
ATOM     19  C   UNL     1      30.761 -23.156 -15.883  0.00  0.00    +0.435 C 
ENDBRANCH  13  19
ENDBRANCH   3  12
BRANCH   6  21
ATOM     20  O   UNL     1      39.237 -23.165 -11.651  0.00  0.00    -0.245 OA
ATOM     21  C   UNL     1      38.021 -23.162 -11.860  0.00  0.00    +0.339 C 
BRANCH  21  22
ATOM     22  O   UNL     1      37.160 -22.402 -11.131  0.00  0.00    -0.477 OA
ATOM     23  H   UNL     1      37.281 -21.474 -11.083  0.00  0.00    +0.295 HD
ENDBRANCH  21  22
ENDBRANCH   6  21
TORSDOF 4
ENDMDL
MODEL 4
REMARK VINA RESULT:      -9.1      5.445      7.890
REMARK  Name = 448564
REMARK  4 active torsions:
REMARK  status: ('A' for Active; 'I' for Inactive)
REMARK    1  A    between atoms: C_3  and  C_12
REMARK    2  A    between atoms: C_6  and  C_21
REMARK    3  A    between atoms: C_13  and  C_19
REMARK    4  A    between atoms: C_21  and  O_22
REMARK                            x       y       z     vdW  Elec       q    Type
REMARK                         _______ _______ _______ _____ _____    ______ ____
ROOT
ATOM      1 CL   UNL     1      32.176  -9.277 -23.107  0.00  0.00    -0.082 Cl
ATOM      2  F   UNL     1      31.716 -14.143 -21.855  0.00  0.00    -0.204 F 
ATOM      3  C   UNL     1      33.525 -13.583 -23.295  0.00  0.00    +0.048 C 
ATOM      4  C   UNL     1      34.234 -12.611 -24.000  0.00  0.00    +0.011 C 
ATOM      5  C   UNL     1      32.409 -13.222 -22.540  0.00  0.00    +0.142 C 
ATOM      6  C   UNL     1      33.829 -11.277 -23.950  0.00  0.00    +0.086 C 
ATOM      7  C   UNL     1      32.002 -11.888 -22.490  0.00  0.00    +0.041 C 
ATOM      8  C   UNL     1      32.712 -10.915 -23.195  0.00  0.00    +0.066 C 
ENDROOT
BRANCH   3  12
ATOM      9 BR   UNL     1      34.574 -15.262 -20.491  0.00  0.00    -0.046 Br
ATOM     10  N   UNL     1      34.384 -16.834 -24.186  0.00  0.00    -0.244 N 
ATOM     11  N   UNL     1      33.937 -15.610 -24.515  0.00  0.00    -0.169 NA
ATOM     12  C   UNL     1      33.947 -14.954 -23.348  0.00  0.00    +0.111 A 
ATOM     13  C   UNL     1      34.674 -16.977 -22.860  0.00  0.00    +0.157 A 
ATOM     14  C   UNL     1      34.399 -15.762 -22.282  0.00  0.00    +0.075 A 
ATOM     15  C   UNL     1      34.508 -17.840 -25.215  0.00  0.00    +0.154 C 
BRANCH  13  19
ATOM     16  F   UNL     1      35.335 -18.194 -20.933  0.00  0.00    -0.164 F 
ATOM     17  F   UNL     1      34.358 -19.306 -22.526  0.00  0.00    -0.164 F 
ATOM     18  F   UNL     1      36.397 -18.585 -22.796  0.00  0.00    -0.164 F 
ATOM     19  C   UNL     1      35.179 -18.241 -22.288  0.00  0.00    +0.435 C 
ENDBRANCH  13  19
ENDBRANCH   3  12
BRANCH   6  21
ATOM     20  O   UNL     1      34.944  -9.188 -24.287  0.00  0.00    -0.245 OA
ATOM     21  C   UNL     1      34.599 -10.297 -24.704  0.00  0.00    +0.339 C 
BRANCH  21  22
ATOM     22  O   UNL     1      34.913 -10.735 -25.953  0.00  0.00    -0.477 OA
ATOM     23  H   UNL     1      35.112 -10.117 -26.629  0.00  0.00    +0.295 HD
ENDBRANCH  21  22
ENDBRANCH   6  21
TORSDOF 4
ENDMDL
MODEL 5
REMARK VINA RESULT:      -9.1      4.474      6.403
REMARK  Name = 448564
REMARK  4 active torsions:
REMARK  status: ('A' for Active; 'I' for Inactive)
REMARK    1  A    between atoms: C_3  and  C_12
REMARK    2  A    between atoms: C_6  and  C_21
REMARK    3  A    between atoms: C_13  and  C_19
REMARK    4  A    between atoms: C_21  and  O_22
REMARK                            x       y       z     vdW  Elec       q    Type
REMARK                         _______ _______ _______ _____ _____    ______ ____
ROOT
ATOM      1 CL   UNL     1      34.709 -18.121 -25.140  0.00  0.00    -0.082 Cl
ATOM      2  F   UNL     1      32.467 -13.671 -25.939  0.00  0.00    -0.204 F 
ATOM      3  C   UNL     1      33.418 -14.011 -23.785  0.00  0.00    +0.048 C 
ATOM      4  C   UNL     1      34.109 -14.839 -22.900  0.00  0.00    +0.011 C 
ATOM      5  C   UNL     1      33.130 -14.455 -25.075  0.00  0.00    +0.142 C 
ATOM      6  C   UNL     1      34.514 -16.110 -23.306  0.00  0.00    +0.086 C 
ATOM      7  C   UNL     1      33.535 -15.727 -25.482  0.00  0.00    +0.041 C 
ATOM      8  C   UNL     1      34.227 -16.555 -24.598  0.00  0.00    +0.066 C 
ENDROOT
BRANCH   3  12
ATOM      9 BR   UNL     1      34.620 -11.164 -25.279  0.00  0.00    -0.046 Br
ATOM     10  N   UNL     1      31.982 -11.241 -22.247  0.00  0.00    -0.244 N 
ATOM     11  N   UNL     1      32.127 -12.572 -22.360  0.00  0.00    -0.169 NA
ATOM     12  C   UNL     1      33.004 -12.702 -23.363  0.00  0.00    +0.111 A 
ATOM     13  C   UNL     1      32.731 -10.527 -23.137  0.00  0.00    +0.157 A 
ATOM     14  C   UNL     1      33.414 -11.456 -23.883  0.00  0.00    +0.075 A 
ATOM     15  C   UNL     1      31.088 -10.711 -21.244  0.00  0.00    +0.154 C 
BRANCH  13  19
ATOM     16  F   UNL     1      33.595  -8.535 -24.093  0.00  0.00    -0.164 F 
ATOM     17  F   UNL     1      31.500  -8.532 -23.511  0.00  0.00    -0.164 F 
ATOM     18  F   UNL     1      33.054  -8.497 -21.983  0.00  0.00    -0.164 F 
ATOM     19  C   UNL     1      32.720  -9.052 -23.183  0.00  0.00    +0.435 C 
ENDBRANCH  13  19
ENDBRANCH   3  12
BRANCH   6  21
ATOM     20  O   UNL     1      34.887 -17.145 -21.182  0.00  0.00    -0.245 OA
ATOM     21  C   UNL     1      35.232 -16.941 -22.348  0.00  0.00    +0.339 C 
BRANCH  21  22
ATOM     22  O   UNL     1      36.356 -17.491 -22.881  0.00  0.00    -0.477 OA
ATOM     23  H   UNL     1      36.311 -17.951 -23.696  0.00  0.00    +0.295 HD
ENDBRANCH  21  22
ENDBRANCH   6  21
TORSDOF 4
ENDMDL
MODEL 6
REMARK VINA RESULT:      -9.1      1.713      2.019
REMARK  Name = 448564
REMARK  4 active torsions:
REMARK  status: ('A' for Active; 'I' for Inactive)
REMARK    1  A    between atoms: C_3  and  C_12
REMARK    2  A    between atoms: C_6  and  C_21
REMARK    3  A    between atoms: C_13  and  C_19
REMARK    4  A    between atoms: C_21  and  O_22
REMARK                            x       y       z     vdW  Elec       q    Type
REMARK                         _______ _______ _______ _____ _____    ______ ____
ROOT
ATOM      1 CL   UNL     1      36.074 -21.896 -19.608  0.00  0.00    -0.082 Cl
ATOM      2  F   UNL     1      36.921 -17.611 -22.134  0.00  0.00    -0.204 F 
ATOM      3  C   UNL     1      34.649 -18.134 -21.661  0.00  0.00    +0.048 C 
ATOM      4  C   UNL     1      33.716 -19.001 -21.092  0.00  0.00    +0.011 C 
ATOM      5  C   UNL     1      36.009 -18.433 -21.593  0.00  0.00    +0.142 C 
ATOM      6  C   UNL     1      34.142 -20.165 -20.455  0.00  0.00    +0.086 C 
ATOM      7  C   UNL     1      36.437 -19.599 -20.956  0.00  0.00    +0.041 C 
ATOM      8  C   UNL     1      35.503 -20.465 -20.386  0.00  0.00    +0.066 C 
ENDROOT
BRANCH   3  12
ATOM      9 BR   UNL     1      34.759 -17.789 -25.075  0.00  0.00    -0.046 Br
ATOM     10  N   UNL     1      33.423 -14.993 -22.514  0.00  0.00    -0.244 N 
ATOM     11  N   UNL     1      33.734 -15.915 -21.588  0.00  0.00    -0.169 NA
ATOM     12  C   UNL     1      34.205 -16.935 -22.315  0.00  0.00    +0.111 A 
ATOM     13  C   UNL     1      33.679 -15.389 -23.795  0.00  0.00    +0.157 A 
ATOM     14  C   UNL     1      34.194 -16.659 -23.699  0.00  0.00    +0.075 A 
ATOM     15  C   UNL     1      32.871 -13.726 -22.091  0.00  0.00    +0.154 C 
BRANCH  13  19
ATOM     16  F   UNL     1      33.976 -13.289 -24.858  0.00  0.00    -0.164 F 
ATOM     17  F   UNL     1      33.880 -15.046 -26.135  0.00  0.00    -0.164 F 
ATOM     18  F   UNL     1      32.077 -14.317 -25.151  0.00  0.00    -0.164 F 
ATOM     19  C   UNL     1      33.411 -14.527 -24.963  0.00  0.00    +0.435 C 
ENDBRANCH  13  19
ENDBRANCH   3  12
BRANCH   6  21
ATOM     20  O   UNL     1      33.197 -22.272 -19.830  0.00  0.00    -0.245 OA
ATOM     21  C   UNL     1      33.131 -21.041 -19.876  0.00  0.00    +0.339 C 
BRANCH  21  22
ATOM     22  O   UNL     1      32.074 -20.349 -19.372  0.00  0.00    -0.477 OA
ATOM     23  H   UNL     1      32.176 -19.843 -18.590  0.00  0.00    +0.295 HD
ENDBRANCH  21  22
ENDBRANCH   6  21
TORSDOF 4
ENDMDL
MODEL 7
REMARK VINA RESULT:      -9.1      4.831      6.919
REMARK  Name = 448564
REMARK  4 active torsions:
REMARK  status: ('A' for Active; 'I' for Inactive)
REMARK    1  A    between atoms: C_3  and  C_12
REMARK    2  A    between atoms: C_6  and  C_21
REMARK    3  A    between atoms: C_13  and  C_19
REMARK    4  A    between atoms: C_21  and  O_22
REMARK                            x       y       z     vdW  Elec       q    Type
REMARK                         _______ _______ _______ _____ _____    ______ ____
ROOT
ATOM      1 CL   UNL     1      34.030 -17.585 -25.325  0.00  0.00    -0.082 Cl
ATOM      2  F   UNL     1      32.826 -12.807 -26.412  0.00  0.00    -0.204 F 
ATOM      3  C   UNL     1      33.710 -13.212 -24.242  0.00  0.00    +0.048 C 
ATOM      4  C   UNL     1      34.214 -14.116 -23.306  0.00  0.00    +0.011 C 
ATOM      5  C   UNL     1      33.311 -13.662 -25.499  0.00  0.00    +0.142 C 
ATOM      6  C   UNL     1      34.318 -15.469 -23.628  0.00  0.00    +0.086 C 
ATOM      7  C   UNL     1      33.414 -15.016 -25.822  0.00  0.00    +0.041 C 
ATOM      8  C   UNL     1      33.919 -15.919 -24.886  0.00  0.00    +0.066 C 
ENDROOT
BRANCH   3  12
ATOM      9 BR   UNL     1      31.457 -12.076 -21.915  0.00  0.00    -0.046 Br
ATOM     10  N   UNL     1      34.030  -9.760 -23.958  0.00  0.00    -0.244 N 
ATOM     11  N   UNL     1      34.402 -10.928 -24.508  0.00  0.00    -0.169 NA
ATOM     12  C   UNL     1      33.606 -11.820 -23.906  0.00  0.00    +0.111 A 
ATOM     13  C   UNL     1      33.033  -9.879 -23.033  0.00  0.00    +0.157 A 
ATOM     14  C   UNL     1      32.732 -11.218 -22.976  0.00  0.00    +0.075 A 
ATOM     15  C   UNL     1      34.689  -8.543 -24.373  0.00  0.00    +0.154 C 
BRANCH  13  19
ATOM     16  F   UNL     1      31.619  -9.070 -21.308  0.00  0.00    -0.164 F 
ATOM     17  F   UNL     1      33.434  -7.944 -21.717  0.00  0.00    -0.164 F 
ATOM     18  F   UNL     1      31.776  -7.887 -23.132  0.00  0.00    -0.164 F 
ATOM     19  C   UNL     1      32.478  -8.719 -22.309  0.00  0.00    +0.435 C 
ENDBRANCH  13  19
ENDBRANCH   3  12
BRANCH   6  21
ATOM     20  O   UNL     1      34.271 -16.699 -21.577  0.00  0.00    -0.245 OA
ATOM     21  C   UNL     1      34.848 -16.376 -22.618  0.00  0.00    +0.339 C 
BRANCH  21  22
ATOM     22  O   UNL     1      36.080 -16.851 -22.944  0.00  0.00    -0.477 OA
ATOM     23  H   UNL     1      36.166 -17.697 -23.339  0.00  0.00    +0.295 HD
ENDBRANCH  21  22
ENDBRANCH   6  21
TORSDOF 4
ENDMDL
MODEL 8
REMARK VINA RESULT:      -9.1      8.982      9.836
REMARK  Name = 448564
REMARK  4 active torsions:
REMARK  status: ('A' for Active; 'I' for Inactive)
REMARK    1  A    between atoms: C_3  and  C_12
REMARK    2  A    between atoms: C_6  and  C_21
REMARK    3  A    between atoms: C_13  and  C_19
REMARK    4  A    between atoms: C_21  and  O_22
REMARK                            x       y       z     vdW  Elec       q    Type
REMARK                         _______ _______ _______ _____ _____    ______ ____
ROOT
ATOM      1 CL   UNL     1      39.410 -24.621 -15.107  0.00  0.00    -0.082 Cl
ATOM      2  F   UNL     1      35.271 -21.753 -14.778  0.00  0.00    -0.204 F 
ATOM      3  C   UNL     1      34.926 -24.098 -14.983  0.00  0.00    +0.048 C 
ATOM      4  C   UNL     1      35.464 -25.379 -15.107  0.00  0.00    +0.011 C 
ATOM      5  C   UNL     1      35.771 -22.992 -14.898  0.00  0.00    +0.142 C 
ATOM      6  C   UNL     1      36.847 -25.554 -15.146  0.00  0.00    +0.086 C 
ATOM      7  C   UNL     1      37.155 -23.167 -14.938  0.00  0.00    +0.041 C 
ATOM      8  C   UNL     1      37.693 -24.448 -15.062  0.00  0.00    +0.066 C 
ENDROOT
BRANCH   3  12
ATOM      9 BR   UNL     1      33.170 -22.910 -17.682  0.00  0.00    -0.046 Br
ATOM     10  N   UNL     1      31.552 -23.940 -14.150  0.00  0.00    -0.244 N 
ATOM     11  N   UNL     1      32.825 -24.224 -13.827  0.00  0.00    -0.169 NA
ATOM     12  C   UNL     1      33.501 -23.922 -14.941  0.00  0.00    +0.111 A 
ATOM     13  C   UNL     1      31.398 -23.471 -15.422  0.00  0.00    +0.157 A 
ATOM     14  C   UNL     1      32.658 -23.447 -15.968  0.00  0.00    +0.075 A 
ATOM     15  C   UNL     1      30.512 -24.148 -13.170  0.00  0.00    +0.154 C 
BRANCH  13  19
ATOM     16  F   UNL     1      29.329 -22.350 -15.123  0.00  0.00    -0.164 F 
ATOM     17  F   UNL     1      30.171 -22.367 -17.128  0.00  0.00    -0.164 F 
ATOM     18  F   UNL     1      29.327 -24.193 -16.287  0.00  0.00    -0.164 F 
ATOM     19  C   UNL     1      30.083 -23.099 -15.979  0.00  0.00    +0.435 C 
ENDBRANCH  13  19
ENDBRANCH   3  12
BRANCH   6  21
ATOM     20  O   UNL     1      38.114 -27.469 -14.474  0.00  0.00    -0.245 OA
ATOM     21  C   UNL     1      37.363 -26.911 -15.278  0.00  0.00    +0.339 C 
BRANCH  21  22
ATOM     22  O   UNL     1      36.924 -27.524 -16.410  0.00  0.00    -0.477 OA
ATOM     23  H   UNL     1      36.258 -27.121 -16.932  0.00  0.00    +0.295 HD
ENDBRANCH  21  22
ENDBRANCH   6  21
TORSDOF 4
ENDMDL
MODEL 9
REMARK VINA RESULT:      -9.1      5.402      7.138
REMARK  Name = 448564
REMARK  4 active torsions:
REMARK  status: ('A' for Active; 'I' for Inactive)
REMARK    1  A    between atoms: C_3  and  C_12
REMARK    2  A    between atoms: C_6  and  C_21
REMARK    3  A    between atoms: C_13  and  C_19
REMARK    4  A    between atoms: C_21  and  O_22
REMARK                            x       y       z     vdW  Elec       q    Type
REMARK                         _______ _______ _______ _____ _____    ______ ____
ROOT
ATOM      1 CL   UNL     1      34.864 -17.418 -25.039  0.00  0.00    -0.082 Cl
ATOM      2  F   UNL     1      34.344 -14.176 -21.207  0.00  0.00    -0.204 F 
ATOM      3  C   UNL     1      33.207 -13.629 -23.223  0.00  0.00    +0.048 C 
ATOM      4  C   UNL     1      32.891 -13.953 -24.543  0.00  0.00    +0.011 C 
ATOM      5  C   UNL     1      34.030 -14.472 -22.477  0.00  0.00    +0.142 C 
ATOM      6  C   UNL     1      33.395 -15.120 -25.115  0.00  0.00    +0.086 C 
ATOM      7  C   UNL     1      34.535 -15.640 -23.049  0.00  0.00    +0.041 C 
ATOM      8  C   UNL     1      34.218 -15.964 -24.368  0.00  0.00    +0.066 C 
ENDROOT
BRANCH   3  12
ATOM      9 BR   UNL     1      34.134 -10.519 -24.343  0.00  0.00    -0.046 Br
ATOM     10  N   UNL     1      31.549 -11.216 -21.345  0.00  0.00    -0.244 N 
ATOM     11  N   UNL     1      31.811 -12.504 -21.627  0.00  0.00    -0.169 NA
ATOM     12  C   UNL     1      32.684 -12.427 -22.638  0.00  0.00    +0.111 A 
ATOM     13  C   UNL     1      32.222 -10.331 -22.136  0.00  0.00    +0.157 A 
ATOM     14  C   UNL     1      32.975 -11.093 -22.995  0.00  0.00    +0.075 A 
ATOM     15  C   UNL     1      30.623 -10.901 -20.282  0.00  0.00    +0.154 C 
BRANCH  13  19
ATOM     16  F   UNL     1      31.801  -8.477 -20.716  0.00  0.00    -0.164 F 
ATOM     17  F   UNL     1      33.201  -8.179 -22.353  0.00  0.00    -0.164 F 
ATOM     18  F   UNL     1      31.069  -8.374 -22.767  0.00  0.00    -0.164 F 
ATOM     19  C   UNL     1      32.078  -8.869 -21.994  0.00  0.00    +0.435 C 
ENDBRANCH  13  19
ENDBRANCH   3  12
BRANCH   6  21
ATOM     20  O   UNL     1      32.291 -16.328 -26.860  0.00  0.00    -0.245 OA
ATOM     21  C   UNL     1      33.039 -15.417 -26.497  0.00  0.00    +0.339 C 
BRANCH  21  22
ATOM     22  O   UNL     1      33.628 -14.565 -27.378  0.00  0.00    -0.477 OA
ATOM     23  H   UNL     1      34.023 -14.899 -28.160  0.00  0.00    +0.295 HD
ENDBRANCH  21  22
ENDBRANCH   6  21
TORSDOF 4
ENDMDL
