MODEL 1
REMARK VINA RESULT:      -8.0      0.000      0.000
REMARK  Name = 2569
REMARK  7 active torsions:
REMARK  status: ('A' for Active; 'I' for Inactive)
REMARK    1  A    between atoms: C_3  and  N_10
REMARK    2  A    between atoms: C_4  and  N_13
REMARK    3  A    between atoms: C_5  and  C_16
REMARK    4  A    between atoms: C_16  and  O_17
REMARK    5  A    between atoms: C_16  and  C_19
REMARK    6  A    between atoms: C_19  and  O_20
REMARK    7  A    between atoms: O_20  and  C_23
REMARK                            x       y       z     vdW  Elec       q    Type
REMARK                         _______ _______ _______ _____ _____    ______ ____
ROOT
ATOM      1  O   UNL     1      33.816 -24.174 -12.608  0.00  0.00    -0.285 OA
ATOM      2  O   UNL     1      34.324 -22.830 -17.723  0.00  0.00    -0.286 OA
ATOM      3  C   UNL     1      35.420 -23.358 -15.696  0.00  0.00    +0.089 C 
ATOM      4  C   UNL     1      32.719 -23.645 -14.636  0.00  0.00    +0.086 C 
ATOM      5  C   UNL     1      35.279 -23.698 -14.404  0.00  0.00    +0.065 C 
ATOM      6  C   UNL     1      32.859 -23.306 -15.929  0.00  0.00    +0.035 C 
ATOM      7  C   UNL     1      33.930 -23.863 -13.794  0.00  0.00    +0.208 C 
ATOM      8  C   UNL     1      34.210 -23.142 -16.538  0.00  0.00    +0.206 C 
ATOM      9  C   UNL     1      31.713 -23.060 -16.874  0.00  0.00    +0.036 C 
ENDROOT
BRANCH   3  10
ATOM     10  N   UNL     1      36.604 -23.179 -16.358  0.00  0.00    -0.302 N 
ATOM     11  C   UNL     1      37.581 -22.278 -15.755  0.00  0.00    +0.112 C 
ATOM     12  C   UNL     1      36.833 -21.880 -16.983  0.00  0.00    +0.112 C 
ENDBRANCH   3  10
BRANCH   4  13
ATOM     13  N   UNL     1      31.536 -23.824 -13.974  0.00  0.00    -0.302 N 
ATOM     14  C   UNL     1      31.199 -25.182 -13.556  0.00  0.00    +0.112 C 
ATOM     15  C   UNL     1      30.469 -24.526 -14.680  0.00  0.00    +0.112 C 
ENDBRANCH   4  13
BRANCH   5  16
ATOM     16  C   UNL     1      36.426 -23.943 -13.458  0.00  0.00    +0.186 C 
BRANCH  16  17
ATOM     17  O   UNL     1      36.188 -23.179 -12.284  0.00  0.00    -0.345 OA
ATOM     18  C   UNL     1      37.402 -22.816 -11.642  0.00  0.00    +0.175 C 
ENDBRANCH  16  17
BRANCH  16  19
ATOM     19  C   UNL     1      36.530 -25.415 -13.105  0.00  0.00    +0.244 C 
BRANCH  19  20
ATOM     20  O   UNL     1      37.843 -25.859 -13.433  0.00  0.00    -0.432 OA
BRANCH  20  23
ATOM     21  O   UNL     1      37.368 -26.866 -15.448  0.00  0.00    -0.227 OA
ATOM     22  N   UNL     1      39.194 -25.492 -15.199  0.00  0.00    -0.295 N 
ATOM     23  C   UNL     1      38.069 -26.139 -14.753  0.00  0.00    +0.399 C 
ATOM     24  H   UNL     1      39.711 -24.923 -14.585  0.00  0.00    +0.148 HD
ATOM     25  H   UNL     1      39.484 -25.598 -16.135  0.00  0.00    +0.148 HD
ENDBRANCH  20  23
ENDBRANCH  19  20
ENDBRANCH  16  19
ENDBRANCH   5  16
TORSDOF 7
ENDMDL
MODEL 2
REMARK VINA RESULT:      -7.6     11.077     13.948
REMARK  Name = 2569
REMARK  7 active torsions:
REMARK  status: ('A' for Active; 'I' for Inactive)
REMARK    1  A    between atoms: C_3  and  N_10
REMARK    2  A    between atoms: C_4  and  N_13
REMARK    3  A    between atoms: C_5  and  C_16
REMARK    4  A    between atoms: C_16  and  O_17
REMARK    5  A    between atoms: C_16  and  C_19
REMARK    6  A    between atoms: C_19  and  O_20
REMARK    7  A    between atoms: O_20  and  C_23
REMARK                            x       y       z     vdW  Elec       q    Type
REMARK                         _______ _______ _______ _____ _____    ______ ____
ROOT
ATOM      1  O   UNL     1      34.877 -14.775 -21.590  0.00  0.00    -0.285 OA
ATOM      2  O   UNL     1      33.335 -16.165 -26.481  0.00  0.00    -0.286 OA
ATOM      3  C   UNL     1      33.411 -14.469 -24.836  0.00  0.00    +0.089 C 
ATOM      4  C   UNL     1      34.800 -16.473 -23.236  0.00  0.00    +0.086 C 
ATOM      5  C   UNL     1      33.806 -14.129 -23.598  0.00  0.00    +0.065 C 
ATOM      6  C   UNL     1      34.406 -16.813 -24.474  0.00  0.00    +0.035 C 
ATOM      7  C   UNL     1      34.522 -15.100 -22.723  0.00  0.00    +0.208 C 
ATOM      8  C   UNL     1      33.691 -15.840 -25.348  0.00  0.00    +0.206 C 
ATOM      9  C   UNL     1      34.630 -18.165 -25.098  0.00  0.00    +0.036 C 
ENDROOT
BRANCH   3  10
ATOM     10  N   UNL     1      32.750 -13.663 -25.721  0.00  0.00    -0.302 N 
ATOM     11  C   UNL     1      32.876 -13.979 -27.141  0.00  0.00    +0.112 C 
ATOM     12  C   UNL     1      33.558 -12.785 -26.562  0.00  0.00    +0.112 C 
ENDBRANCH   3  10
BRANCH   4  13
ATOM     13  N   UNL     1      35.461 -17.278 -22.350  0.00  0.00    -0.302 N 
ATOM     14  C   UNL     1      35.179 -18.710 -22.405  0.00  0.00    +0.112 C 
ATOM     15  C   UNL     1      34.679 -17.877 -21.273  0.00  0.00    +0.112 C 
ENDBRANCH   4  13
BRANCH   5  16
ATOM     16  C   UNL     1      33.581 -12.776 -22.973  0.00  0.00    +0.186 C 
BRANCH  16  17
ATOM     17  O   UNL     1      33.924 -11.793 -23.938  0.00  0.00    -0.345 OA
ATOM     18  C   UNL     1      33.314 -10.542 -23.649  0.00  0.00    +0.175 C 
ENDBRANCH  16  17
BRANCH  16  19
ATOM     19  C   UNL     1      32.132 -12.608 -22.556  0.00  0.00    +0.244 C 
BRANCH  19  20
ATOM     20  O   UNL     1      32.059 -12.739 -21.139  0.00  0.00    -0.432 OA
BRANCH  20  23
ATOM     21  O   UNL     1      31.624 -11.356 -19.350  0.00  0.00    -0.227 OA
ATOM     22  N   UNL     1      30.345 -11.281 -21.259  0.00  0.00    -0.295 N 
ATOM     23  C   UNL     1      31.369 -11.759 -20.481  0.00  0.00    +0.399 C 
ATOM     24  H   UNL     1      30.197 -11.651 -22.159  0.00  0.00    +0.148 HD
ATOM     25  H   UNL     1      29.757 -10.568 -20.917  0.00  0.00    +0.148 HD
ENDBRANCH  20  23
ENDBRANCH  19  20
ENDBRANCH  16  19
ENDBRANCH   5  16
TORSDOF 7
ENDMDL
MODEL 3
REMARK VINA RESULT:      -7.4      1.544      2.535
REMARK  Name = 2569
REMARK  7 active torsions:
REMARK  status: ('A' for Active; 'I' for Inactive)
REMARK    1  A    between atoms: C_3  and  N_10
REMARK    2  A    between atoms: C_4  and  N_13
REMARK    3  A    between atoms: C_5  and  C_16
REMARK    4  A    between atoms: C_16  and  O_17
REMARK    5  A    between atoms: C_16  and  C_19
REMARK    6  A    between atoms: C_19  and  O_20
REMARK    7  A    between atoms: O_20  and  C_23
REMARK                            x       y       z     vdW  Elec       q    Type
REMARK                         _______ _______ _______ _____ _____    ______ ____
ROOT
ATOM      1  O   UNL     1      33.417 -24.250 -13.131  0.00  0.00    -0.285 OA
ATOM      2  O   UNL     1      32.721 -22.628 -18.142  0.00  0.00    -0.286 OA
ATOM      3  C   UNL     1      34.252 -23.327 -16.481  0.00  0.00    +0.089 C 
ATOM      4  C   UNL     1      31.885 -23.550 -14.792  0.00  0.00    +0.086 C 
ATOM      5  C   UNL     1      34.415 -23.737 -15.213  0.00  0.00    +0.065 C 
ATOM      6  C   UNL     1      31.721 -23.141 -16.061  0.00  0.00    +0.035 C 
ATOM      7  C   UNL     1      33.252 -23.875 -14.292  0.00  0.00    +0.208 C 
ATOM      8  C   UNL     1      32.886 -23.004 -16.982  0.00  0.00    +0.206 C 
ATOM      9  C   UNL     1      30.394 -22.786 -16.678  0.00  0.00    +0.036 C 
ENDROOT
BRANCH   3  10
ATOM     10  N   UNL     1      35.243 -23.164 -17.410  0.00  0.00    -0.302 N 
ATOM     11  C   UNL     1      36.041 -21.944 -17.333  0.00  0.00    +0.112 C 
ATOM     12  C   UNL     1      35.046 -22.136 -18.428  0.00  0.00    +0.112 C 
ENDBRANCH   3  10
BRANCH   4  13
ATOM     13  N   UNL     1      30.895 -23.713 -13.864  0.00  0.00    -0.302 N 
ATOM     14  C   UNL     1      30.710 -25.050 -13.306  0.00  0.00    +0.112 C 
ATOM     15  C   UNL     1      29.718 -24.479 -14.263  0.00  0.00    +0.112 C 
ENDBRANCH   4  13
BRANCH   5  16
ATOM     16  C   UNL     1      35.744 -24.091 -14.596  0.00  0.00    +0.186 C 
BRANCH  16  17
ATOM     17  O   UNL     1      36.465 -24.866 -15.542  0.00  0.00    -0.345 OA
ATOM     18  C   UNL     1      36.594 -26.217 -15.121  0.00  0.00    +0.175 C 
ENDBRANCH  16  17
BRANCH  16  19
ATOM     19  C   UNL     1      36.528 -22.840 -14.246  0.00  0.00    +0.244 C 
BRANCH  19  20
ATOM     20  O   UNL     1      37.711 -23.235 -13.558  0.00  0.00    -0.432 OA
BRANCH  20  23
ATOM     21  O   UNL     1      37.253 -22.364 -11.477  0.00  0.00    -0.227 OA
ATOM     22  N   UNL     1      38.003 -24.522 -11.731  0.00  0.00    -0.295 N 
ATOM     23  C   UNL     1      37.622 -23.288 -12.194  0.00  0.00    +0.399 C 
ATOM     24  H   UNL     1      38.289 -25.219 -12.364  0.00  0.00    +0.148 HD
ATOM     25  H   UNL     1      37.991 -24.711 -10.764  0.00  0.00    +0.148 HD
ENDBRANCH  20  23
ENDBRANCH  19  20
ENDBRANCH  16  19
ENDBRANCH   5  16
TORSDOF 7
ENDMDL
MODEL 4
REMARK VINA RESULT:      -7.4      1.497      1.779
REMARK  Name = 2569
REMARK  7 active torsions:
REMARK  status: ('A' for Active; 'I' for Inactive)
REMARK    1  A    between atoms: C_3  and  N_10
REMARK    2  A    between atoms: C_4  and  N_13
REMARK    3  A    between atoms: C_5  and  C_16
REMARK    4  A    between atoms: C_16  and  O_17
REMARK    5  A    between atoms: C_16  and  C_19
REMARK    6  A    between atoms: C_19  and  O_20
REMARK    7  A    between atoms: O_20  and  C_23
REMARK                            x       y       z     vdW  Elec       q    Type
REMARK                         _______ _______ _______ _____ _____    ______ ____
ROOT
ATOM      1  O   UNL     1      33.370 -24.145 -13.453  0.00  0.00    -0.285 OA
ATOM      2  O   UNL     1      32.324 -22.494 -18.393  0.00  0.00    -0.286 OA
ATOM      3  C   UNL     1      33.969 -23.198 -16.848  0.00  0.00    +0.089 C 
ATOM      4  C   UNL     1      31.726 -23.440 -15.000  0.00  0.00    +0.086 C 
ATOM      5  C   UNL     1      34.220 -23.615 -15.596  0.00  0.00    +0.065 C 
ATOM      6  C   UNL     1      31.472 -23.023 -16.252  0.00  0.00    +0.035 C 
ATOM      7  C   UNL     1      33.124 -23.763 -14.597  0.00  0.00    +0.208 C 
ATOM      8  C   UNL     1      32.570 -22.877 -17.250  0.00  0.00    +0.206 C 
ATOM      9  C   UNL     1      30.104 -22.668 -16.772  0.00  0.00    +0.036 C 
ENDROOT
BRANCH   3  10
ATOM     10  N   UNL     1      34.892 -23.027 -17.842  0.00  0.00    -0.302 N 
ATOM     11  C   UNL     1      35.948 -22.044 -17.616  0.00  0.00    +0.112 C 
ATOM     12  C   UNL     1      34.849 -21.772 -18.587  0.00  0.00    +0.112 C 
ENDBRANCH   3  10
BRANCH   4  13
ATOM     13  N   UNL     1      30.802 -23.611 -14.005  0.00  0.00    -0.302 N 
ATOM     14  C   UNL     1      30.735 -24.925 -13.371  0.00  0.00    +0.112 C 
ATOM     15  C   UNL     1      29.655 -24.466 -14.293  0.00  0.00    +0.112 C 
ENDBRANCH   4  13
BRANCH   5  16
ATOM     16  C   UNL     1      35.590 -23.969 -15.075  0.00  0.00    +0.186 C 
BRANCH  16  17
ATOM     17  O   UNL     1      35.765 -23.302 -13.834  0.00  0.00    -0.345 OA
ATOM     18  C   UNL     1      37.139 -23.199 -13.486  0.00  0.00    +0.175 C 
ENDBRANCH  16  17
BRANCH  16  19
ATOM     19  C   UNL     1      35.723 -25.469 -14.881  0.00  0.00    +0.244 C 
BRANCH  19  20
ATOM     20  O   UNL     1      36.973 -25.878 -15.428  0.00  0.00    -0.432 OA
BRANCH  20  23
ATOM     21  O   UNL     1      38.974 -26.825 -14.794  0.00  0.00    -0.227 OA
ATOM     22  N   UNL     1      37.088 -27.035 -13.497  0.00  0.00    -0.295 N 
ATOM     23  C   UNL     1      37.785 -26.597 -14.595  0.00  0.00    +0.399 C 
ATOM     24  H   UNL     1      36.133 -26.816 -13.401  0.00  0.00    +0.148 HD
ATOM     25  H   UNL     1      37.543 -27.569 -12.805  0.00  0.00    +0.148 HD
ENDBRANCH  20  23
ENDBRANCH  19  20
ENDBRANCH  16  19
ENDBRANCH   5  16
TORSDOF 7
ENDMDL
MODEL 5
REMARK VINA RESULT:      -7.3      2.166      4.427
REMARK  Name = 2569
REMARK  7 active torsions:
REMARK  status: ('A' for Active; 'I' for Inactive)
REMARK    1  A    between atoms: C_3  and  N_10
REMARK    2  A    between atoms: C_4  and  N_13
REMARK    3  A    between atoms: C_5  and  C_16
REMARK    4  A    between atoms: C_16  and  O_17
REMARK    5  A    between atoms: C_16  and  C_19
REMARK    6  A    between atoms: C_19  and  O_20
REMARK    7  A    between atoms: O_20  and  C_23
REMARK                            x       y       z     vdW  Elec       q    Type
REMARK                         _______ _______ _______ _____ _____    ______ ____
ROOT
ATOM      1  O   UNL     1      37.332 -22.249 -16.912  0.00  0.00    -0.285 OA
ATOM      2  O   UNL     1      32.140 -22.871 -17.851  0.00  0.00    -0.286 OA
ATOM      3  C   UNL     1      33.965 -23.347 -16.426  0.00  0.00    +0.089 C 
ATOM      4  C   UNL     1      35.506 -21.773 -18.338  0.00  0.00    +0.086 C 
ATOM      5  C   UNL     1      35.279 -23.182 -16.199  0.00  0.00    +0.065 C 
ATOM      6  C   UNL     1      34.192 -21.937 -18.566  0.00  0.00    +0.035 C 
ATOM      7  C   UNL     1      36.129 -22.391 -17.132  0.00  0.00    +0.208 C 
ATOM      8  C   UNL     1      33.342 -22.729 -17.631  0.00  0.00    +0.206 C 
ATOM      9  C   UNL     1      33.453 -21.363 -19.746  0.00  0.00    +0.036 C 
ENDROOT
BRANCH   3  10
ATOM     10  N   UNL     1      33.093 -24.051 -15.642  0.00  0.00    -0.302 N 
ATOM     11  C   UNL     1      31.692 -23.640 -15.660  0.00  0.00    +0.112 C 
ATOM     12  C   UNL     1      32.549 -23.373 -14.469  0.00  0.00    +0.112 C 
ENDBRANCH   3  10
BRANCH   4  13
ATOM     13  N   UNL     1      36.378 -21.070 -19.122  0.00  0.00    -0.302 N 
ATOM     14  C   UNL     1      35.861 -20.515 -20.370  0.00  0.00    +0.112 C 
ATOM     15  C   UNL     1      36.793 -21.681 -20.381  0.00  0.00    +0.112 C 
ENDBRANCH   4  13
BRANCH   5  16
ATOM     16  C   UNL     1      36.018 -23.758 -15.018  0.00  0.00    +0.186 C 
BRANCH  16  17
ATOM     17  O   UNL     1      35.577 -23.070 -13.857  0.00  0.00    -0.345 OA
ATOM     18  C   UNL     1      36.350 -23.420 -12.717  0.00  0.00    +0.175 C 
ENDBRANCH  16  17
BRANCH  16  19
ATOM     19  C   UNL     1      35.739 -25.243 -14.878  0.00  0.00    +0.244 C 
BRANCH  19  20
ATOM     20  O   UNL     1      36.820 -25.956 -15.471  0.00  0.00    -0.432 OA
BRANCH  20  23
ATOM     21  O   UNL     1      38.858 -26.796 -14.806  0.00  0.00    -0.227 OA
ATOM     22  N   UNL     1      36.996 -26.978 -13.470  0.00  0.00    -0.295 N 
ATOM     23  C   UNL     1      37.665 -26.593 -14.604  0.00  0.00    +0.399 C 
ATOM     24  H   UNL     1      36.036 -26.783 -13.374  0.00  0.00    +0.148 HD
ATOM     25  H   UNL     1      37.476 -27.451 -12.751  0.00  0.00    +0.148 HD
ENDBRANCH  20  23
ENDBRANCH  19  20
ENDBRANCH  16  19
ENDBRANCH   5  16
TORSDOF 7
ENDMDL
MODEL 6
REMARK VINA RESULT:      -7.2      2.250      4.792
REMARK  Name = 2569
REMARK  7 active torsions:
REMARK  status: ('A' for Active; 'I' for Inactive)
REMARK    1  A    between atoms: C_3  and  N_10
REMARK    2  A    between atoms: C_4  and  N_13
REMARK    3  A    between atoms: C_5  and  C_16
REMARK    4  A    between atoms: C_16  and  O_17
REMARK    5  A    between atoms: C_16  and  C_19
REMARK    6  A    between atoms: C_19  and  O_20
REMARK    7  A    between atoms: O_20  and  C_23
REMARK                            x       y       z     vdW  Elec       q    Type
REMARK                         _______ _______ _______ _____ _____    ______ ____
ROOT
ATOM      1  O   UNL     1      37.311 -22.290 -16.852  0.00  0.00    -0.285 OA
ATOM      2  O   UNL     1      32.117 -22.902 -17.785  0.00  0.00    -0.286 OA
ATOM      3  C   UNL     1      33.939 -23.363 -16.351  0.00  0.00    +0.089 C 
ATOM      4  C   UNL     1      35.489 -21.830 -18.287  0.00  0.00    +0.086 C 
ATOM      5  C   UNL     1      35.253 -23.201 -16.125  0.00  0.00    +0.065 C 
ATOM      6  C   UNL     1      34.174 -21.990 -18.513  0.00  0.00    +0.035 C 
ATOM      7  C   UNL     1      36.108 -22.430 -17.071  0.00  0.00    +0.208 C 
ATOM      8  C   UNL     1      33.320 -22.762 -17.566  0.00  0.00    +0.206 C 
ATOM      9  C   UNL     1      33.439 -21.433 -19.704  0.00  0.00    +0.036 C 
ENDROOT
BRANCH   3  10
ATOM     10  N   UNL     1      33.063 -24.049 -15.556  0.00  0.00    -0.302 N 
ATOM     11  C   UNL     1      32.097 -23.267 -14.790  0.00  0.00    +0.112 C 
ATOM     12  C   UNL     1      33.242 -23.940 -14.111  0.00  0.00    +0.112 C 
ENDBRANCH   3  10
BRANCH   4  13
ATOM     13  N   UNL     1      36.365 -21.144 -19.083  0.00  0.00    -0.302 N 
ATOM     14  C   UNL     1      35.839 -20.561 -20.314  0.00  0.00    +0.112 C 
ATOM     15  C   UNL     1      36.735 -21.753 -20.356  0.00  0.00    +0.112 C 
ENDBRANCH   4  13
BRANCH   5  16
ATOM     16  C   UNL     1      35.989 -23.760 -14.934  0.00  0.00    +0.186 C 
BRANCH  16  17
ATOM     17  O   UNL     1      36.866 -24.773 -15.405  0.00  0.00    -0.345 OA
ATOM     18  C   UNL     1      36.376 -26.071 -15.099  0.00  0.00    +0.175 C 
ENDBRANCH  16  17
BRANCH  16  19
ATOM     19  C   UNL     1      36.781 -22.674 -14.231  0.00  0.00    +0.244 C 
BRANCH  19  20
ATOM     20  O   UNL     1      37.821 -23.298 -13.482  0.00  0.00    -0.432 OA
BRANCH  20  23
ATOM     21  O   UNL     1      37.298 -22.381 -11.436  0.00  0.00    -0.227 OA
ATOM     22  N   UNL     1      37.906 -24.589 -11.636  0.00  0.00    -0.295 N 
ATOM     23  C   UNL     1      37.644 -23.334 -12.126  0.00  0.00    +0.399 C 
ATOM     24  H   UNL     1      38.181 -25.309 -12.249  0.00  0.00    +0.148 HD
ATOM     25  H   UNL     1      37.821 -24.769 -10.672  0.00  0.00    +0.148 HD
ENDBRANCH  20  23
ENDBRANCH  19  20
ENDBRANCH  16  19
ENDBRANCH   5  16
TORSDOF 7
ENDMDL
MODEL 7
REMARK VINA RESULT:      -7.1     11.518     14.346
REMARK  Name = 2569
REMARK  7 active torsions:
REMARK  status: ('A' for Active; 'I' for Inactive)
REMARK    1  A    between atoms: C_3  and  N_10
REMARK    2  A    between atoms: C_4  and  N_13
REMARK    3  A    between atoms: C_5  and  C_16
REMARK    4  A    between atoms: C_16  and  O_17
REMARK    5  A    between atoms: C_16  and  C_19
REMARK    6  A    between atoms: C_19  and  O_20
REMARK    7  A    between atoms: O_20  and  C_23
REMARK                            x       y       z     vdW  Elec       q    Type
REMARK                         _______ _______ _______ _____ _____    ______ ____
ROOT
ATOM      1  O   UNL     1      33.917 -14.197 -21.391  0.00  0.00    -0.285 OA
ATOM      2  O   UNL     1      33.793 -16.314 -26.262  0.00  0.00    -0.286 OA
ATOM      3  C   UNL     1      33.211 -14.484 -24.883  0.00  0.00    +0.089 C 
ATOM      4  C   UNL     1      34.499 -16.028 -22.771  0.00  0.00    +0.086 C 
ATOM      5  C   UNL     1      33.249 -13.959 -23.648  0.00  0.00    +0.065 C 
ATOM      6  C   UNL     1      34.462 -16.554 -24.007  0.00  0.00    +0.035 C 
ATOM      7  C   UNL     1      33.891 -14.690 -22.519  0.00  0.00    +0.208 C 
ATOM      8  C   UNL     1      33.820 -15.821 -25.135  0.00  0.00    +0.206 C 
ATOM      9  C   UNL     1      35.040 -17.893 -24.381  0.00  0.00    +0.036 C 
ENDROOT
BRANCH   3  10
ATOM     10  N   UNL     1      32.650 -13.905 -25.989  0.00  0.00    -0.302 N 
ATOM     11  C   UNL     1      33.368 -14.037 -27.253  0.00  0.00    +0.112 C 
ATOM     12  C   UNL     1      33.315 -12.728 -26.540  0.00  0.00    +0.112 C 
ENDBRANCH   3  10
BRANCH   4  13
ATOM     13  N   UNL     1      35.059 -16.606 -21.666  0.00  0.00    -0.302 N 
ATOM     14  C   UNL     1      35.561 -17.971 -21.803  0.00  0.00    +0.112 C 
ATOM     15  C   UNL     1      34.319 -17.690 -21.026  0.00  0.00    +0.112 C 
ENDBRANCH   4  13
BRANCH   5  16
ATOM     16  C   UNL     1      32.669 -12.619 -23.273  0.00  0.00    +0.186 C 
BRANCH  16  17
ATOM     17  O   UNL     1      31.918 -12.792 -22.081  0.00  0.00    -0.345 OA
ATOM     18  C   UNL     1      31.291 -11.582 -21.679  0.00  0.00    +0.175 C 
ENDBRANCH  16  17
BRANCH  16  19
ATOM     19  C   UNL     1      33.770 -11.598 -23.048  0.00  0.00    +0.244 C 
BRANCH  19  20
ATOM     20  O   UNL     1      33.600 -10.546 -23.995  0.00  0.00    -0.432 OA
BRANCH  20  23
ATOM     21  O   UNL     1      34.902  -8.673 -23.684  0.00  0.00    -0.227 OA
ATOM     22  N   UNL     1      35.540 -10.347 -25.124  0.00  0.00    -0.295 N 
ATOM     23  C   UNL     1      34.696  -9.758 -24.217  0.00  0.00    +0.399 C 
ATOM     24  H   UNL     1      35.312 -11.221 -25.515  0.00  0.00    +0.148 HD
ATOM     25  H   UNL     1      36.376  -9.895 -25.386  0.00  0.00    +0.148 HD
ENDBRANCH  20  23
ENDBRANCH  19  20
ENDBRANCH  16  19
ENDBRANCH   5  16
TORSDOF 7
ENDMDL
MODEL 8
REMARK VINA RESULT:      -7.0      2.646      5.994
REMARK  Name = 2569
REMARK  7 active torsions:
REMARK  status: ('A' for Active; 'I' for Inactive)
REMARK    1  A    between atoms: C_3  and  N_10
REMARK    2  A    between atoms: C_4  and  N_13
REMARK    3  A    between atoms: C_5  and  C_16
REMARK    4  A    between atoms: C_16  and  O_17
REMARK    5  A    between atoms: C_16  and  C_19
REMARK    6  A    between atoms: C_19  and  O_20
REMARK    7  A    between atoms: O_20  and  C_23
REMARK                            x       y       z     vdW  Elec       q    Type
REMARK                         _______ _______ _______ _____ _____    ______ ____
ROOT
ATOM      1  O   UNL     1      32.552 -24.077 -13.264  0.00  0.00    -0.285 OA
ATOM      2  O   UNL     1      35.885 -22.804 -17.201  0.00  0.00    -0.286 OA
ATOM      3  C   UNL     1      33.682 -23.404 -16.588  0.00  0.00    +0.089 C 
ATOM      4  C   UNL     1      34.757 -23.477 -13.878  0.00  0.00    +0.086 C 
ATOM      5  C   UNL     1      32.849 -23.723 -15.584  0.00  0.00    +0.065 C 
ATOM      6  C   UNL     1      35.591 -23.156 -14.881  0.00  0.00    +0.035 C 
ATOM      7  C   UNL     1      33.327 -23.781 -14.174  0.00  0.00    +0.208 C 
ATOM      8  C   UNL     1      35.111 -23.099 -16.291  0.00  0.00    +0.206 C 
ATOM      9  C   UNL     1      37.051 -22.832 -14.705  0.00  0.00    +0.036 C 
ENDROOT
BRANCH   3  10
ATOM     10  N   UNL     1      33.354 -23.322 -17.913  0.00  0.00    -0.302 N 
ATOM     11  C   UNL     1      34.175 -22.458 -18.756  0.00  0.00    +0.112 C 
ATOM     12  C   UNL     1      32.785 -22.064 -18.387  0.00  0.00    +0.112 C 
ENDBRANCH   3  10
BRANCH   4  13
ATOM     13  N   UNL     1      35.085 -23.559 -12.553  0.00  0.00    -0.302 N 
ATOM     14  C   UNL     1      36.504 -23.543 -12.209  0.00  0.00    +0.112 C 
ATOM     15  C   UNL     1      35.704 -24.796 -12.088  0.00  0.00    +0.112 C 
ENDBRANCH   4  13
BRANCH   5  16
ATOM     16  C   UNL     1      31.388 -24.049 -15.761  0.00  0.00    +0.186 C 
BRANCH  16  17
ATOM     17  O   UNL     1      31.044 -25.027 -14.790  0.00  0.00    -0.345 OA
ATOM     18  C   UNL     1      29.713 -25.493 -14.967  0.00  0.00    +0.175 C 
ENDBRANCH  16  17
BRANCH  16  19
ATOM     19  C   UNL     1      30.532 -22.810 -15.573  0.00  0.00    +0.244 C 
BRANCH  19  20
ATOM     20  O   UNL     1      29.865 -22.541 -16.803  0.00  0.00    -0.432 OA
BRANCH  20  23
ATOM     21  O   UNL     1      27.946 -23.401 -17.741  0.00  0.00    -0.227 OA
ATOM     22  N   UNL     1      27.910 -22.347 -15.698  0.00  0.00    -0.295 N 
ATOM     23  C   UNL     1      28.525 -22.816 -16.831  0.00  0.00    +0.399 C 
ATOM     24  H   UNL     1      28.437 -21.885 -15.008  0.00  0.00    +0.148 HD
ATOM     25  H   UNL     1      26.941 -22.472 -15.577  0.00  0.00    +0.148 HD
ENDBRANCH  20  23
ENDBRANCH  19  20
ENDBRANCH  16  19
ENDBRANCH   5  16
TORSDOF 7
ENDMDL
MODEL 9
REMARK VINA RESULT:      -7.0      2.674      5.830
REMARK  Name = 2569
REMARK  7 active torsions:
REMARK  status: ('A' for Active; 'I' for Inactive)
REMARK    1  A    between atoms: C_3  and  N_10
REMARK    2  A    between atoms: C_4  and  N_13
REMARK    3  A    between atoms: C_5  and  C_16
REMARK    4  A    between atoms: C_16  and  O_17
REMARK    5  A    between atoms: C_16  and  C_19
REMARK    6  A    between atoms: C_19  and  O_20
REMARK    7  A    between atoms: O_20  and  C_23
REMARK                            x       y       z     vdW  Elec       q    Type
REMARK                         _______ _______ _______ _____ _____    ______ ____
ROOT
ATOM      1  O   UNL     1      32.155 -23.071 -18.017  0.00  0.00    -0.285 OA
ATOM      2  O   UNL     1      36.873 -22.410 -15.666  0.00  0.00    -0.286 OA
ATOM      3  C   UNL     1      34.631 -23.127 -15.441  0.00  0.00    +0.089 C 
ATOM      4  C   UNL     1      34.397 -22.354 -18.243  0.00  0.00    +0.086 C 
ATOM      5  C   UNL     1      33.444 -23.290 -16.046  0.00  0.00    +0.065 C 
ATOM      6  C   UNL     1      35.586 -22.191 -17.638  0.00  0.00    +0.035 C 
ATOM      7  C   UNL     1      33.250 -22.918 -17.476  0.00  0.00    +0.208 C 
ATOM      8  C   UNL     1      35.779 -22.565 -16.208  0.00  0.00    +0.206 C 
ATOM      9  C   UNL     1      36.814 -21.633 -18.308  0.00  0.00    +0.036 C 
ENDROOT
BRANCH   3  10
ATOM     10  N   UNL     1      34.922 -23.432 -14.140  0.00  0.00    -0.302 N 
ATOM     11  C   UNL     1      36.329 -23.437 -13.749  0.00  0.00    +0.112 C 
ATOM     12  C   UNL     1      35.570 -24.714 -13.880  0.00  0.00    +0.112 C 
ENDBRANCH   3  10
BRANCH   4  13
ATOM     13  N   UNL     1      34.107 -22.049 -19.544  0.00  0.00    -0.302 N 
ATOM     14  C   UNL     1      34.673 -20.817 -20.088  0.00  0.00    +0.112 C 
ATOM     15  C   UNL     1      33.215 -20.919 -19.787  0.00  0.00    +0.112 C 
ENDBRANCH   4  13
BRANCH   5  16
ATOM     16  C   UNL     1      32.215 -23.848 -15.375  0.00  0.00    +0.186 C 
BRANCH  16  17
ATOM     17  O   UNL     1      32.617 -24.972 -14.605  0.00  0.00    -0.345 OA
ATOM     18  C   UNL     1      31.762 -25.171 -13.487  0.00  0.00    +0.175 C 
ENDBRANCH  16  17
BRANCH  16  19
ATOM     19  C   UNL     1      31.571 -22.808 -14.477  0.00  0.00    +0.244 C 
BRANCH  19  20
ATOM     20  O   UNL     1      30.511 -22.191 -15.201  0.00  0.00    -0.432 OA
BRANCH  20  23
ATOM     21  O   UNL     1      28.985 -23.906 -15.037  0.00  0.00    -0.227 OA
ATOM     22  N   UNL     1      29.291 -22.763 -17.008  0.00  0.00    -0.295 N 
ATOM     23  C   UNL     1      29.547 -23.031 -15.687  0.00  0.00    +0.399 C 
ATOM     24  H   UNL     1      29.781 -22.044 -17.468  0.00  0.00    +0.148 HD
ATOM     25  H   UNL     1      28.616 -23.290 -17.496  0.00  0.00    +0.148 HD
ENDBRANCH  20  23
ENDBRANCH  19  20
ENDBRANCH  16  19
ENDBRANCH   5  16
TORSDOF 7
ENDMDL
