MODEL 1
REMARK VINA RESULT:      -9.4      0.000      0.000
REMARK  Name = 261000
REMARK  1 active torsions:
REMARK  status: ('A' for Active; 'I' for Inactive)
REMARK    1  A    between atoms: C_4  and  O_21
REMARK                            x       y       z     vdW  Elec       q    Type
REMARK                         _______ _______ _______ _____ _____    ______ ____
ROOT
ATOM      1  O   UNL     1      33.954 -16.555 -21.082  0.00  0.00    -0.291 OA
ATOM      2  C   UNL     1      32.589  -8.615 -23.479  0.00  0.00    +0.041 C 
ATOM      3  C   UNL     1      32.653  -9.204 -22.048  0.00  0.00    +0.010 C 
ATOM      4  C   UNL     1      33.325  -7.262 -23.246  0.00  0.00    +0.092 C 
ATOM      5  C   UNL     1      31.959 -10.566 -21.964  0.00  0.00    +0.023 C 
ATOM      6  C   UNL     1      32.194  -8.049 -21.170  0.00  0.00    +0.003 C 
ATOM      7  C   UNL     1      32.788  -6.804 -21.859  0.00  0.00    +0.027 C 
ATOM      8  C   UNL     1      32.684 -11.546 -22.911  0.00  0.00    -0.027 C 
ATOM      9  C   UNL     1      33.190  -9.627 -24.421  0.00  0.00    -0.025 C 
ATOM     10  C   UNL     1      31.885 -11.082 -20.523  0.00  0.00    +0.009 C 
ATOM     11  C   UNL     1      31.146  -8.358 -23.998  0.00  0.00    +0.007 C 
ATOM     12  C   UNL     1      34.857  -7.353 -23.245  0.00  0.00    +0.030 C 
ATOM     13  C   UNL     1      33.205 -10.945 -24.149  0.00  0.00    -0.009 C 
ATOM     14  C   UNL     1      32.840 -12.856 -22.587  0.00  0.00    -0.030 C 
ATOM     15  C   UNL     1      31.382 -12.520 -20.526  0.00  0.00    +0.026 C 
ATOM     16  C   UNL     1      32.324 -13.394 -21.316  0.00  0.00    -0.024 C 
ATOM     17  C   UNL     1      33.511 -13.897 -23.465  0.00  0.00    +0.034 C 
ATOM     18  C   UNL     1      32.675 -14.596 -20.829  0.00  0.00    +0.033 C 
ATOM     19  C   UNL     1      34.424 -14.827 -22.677  0.00  0.00    +0.074 C 
ATOM     20  C   UNL     1      33.688 -15.435 -21.512  0.00  0.00    +0.173 C 
ENDROOT
BRANCH   4  21
ATOM     21  O   UNL     1      32.966  -6.302 -24.238  0.00  0.00    -0.386 OA
ATOM     22  H   UNL     1      32.098  -5.925 -24.025  0.00  0.00    +0.210 HD
ENDBRANCH   4  21
TORSDOF 1
ENDMDL
MODEL 2
REMARK VINA RESULT:      -9.1      7.031     10.450
REMARK  Name = 261000
REMARK  1 active torsions:
REMARK  status: ('A' for Active; 'I' for Inactive)
REMARK    1  A    between atoms: C_4  and  O_21
REMARK                            x       y       z     vdW  Elec       q    Type
REMARK                         _______ _______ _______ _____ _____    ______ ____
ROOT
ATOM      1  O   UNL     1      35.919 -23.728 -14.744  0.00  0.00    -0.291 OA
ATOM      2  C   UNL     1      35.135 -18.890 -21.572  0.00  0.00    +0.041 C 
ATOM      3  C   UNL     1      34.044 -19.354 -20.576  0.00  0.00    +0.010 C 
ATOM      4  C   UNL     1      34.662 -17.428 -21.826  0.00  0.00    +0.092 C 
ATOM      5  C   UNL     1      34.241 -20.813 -20.159  0.00  0.00    +0.023 C 
ATOM      6  C   UNL     1      32.748 -18.910 -21.238  0.00  0.00    +0.003 C 
ATOM      7  C   UNL     1      33.114 -17.566 -21.899  0.00  0.00    +0.027 C 
ATOM      8  C   UNL     1      35.609 -20.942 -19.454  0.00  0.00    -0.027 C 
ATOM      9  C   UNL     1      36.477 -19.128 -20.929  0.00  0.00    -0.025 C 
ATOM     10  C   UNL     1      33.083 -21.324 -19.295  0.00  0.00    +0.009 C 
ATOM     11  C   UNL     1      35.158 -19.685 -22.908  0.00  0.00    +0.007 C 
ATOM     12  C   UNL     1      35.078 -16.419 -20.747  0.00  0.00    +0.030 C 
ATOM     13  C   UNL     1      36.669 -20.072 -19.988  0.00  0.00    -0.009 C 
ATOM     14  C   UNL     1      35.786 -21.784 -18.404  0.00  0.00    -0.030 C 
ATOM     15  C   UNL     1      33.433 -22.697 -18.738  0.00  0.00    +0.026 C 
ATOM     16  C   UNL     1      34.677 -22.609 -17.892  0.00  0.00    -0.024 C 
ATOM     17  C   UNL     1      37.098 -21.999 -17.669  0.00  0.00    +0.034 C 
ATOM     18  C   UNL     1      34.719 -23.249 -16.710  0.00  0.00    +0.033 C 
ATOM     19  C   UNL     1      36.919 -22.070 -16.159  0.00  0.00    +0.074 C 
ATOM     20  C   UNL     1      35.873 -23.092 -15.794  0.00  0.00    +0.173 C 
ENDROOT
BRANCH   4  21
ATOM     21  O   UNL     1      35.157 -16.934 -23.069  0.00  0.00    -0.386 OA
ATOM     22  H   UNL     1      35.406 -17.679 -23.637  0.00  0.00    +0.210 HD
ENDBRANCH   4  21
TORSDOF 1
ENDMDL
MODEL 3
REMARK VINA RESULT:      -9.1      5.539      8.636
REMARK  Name = 261000
REMARK  1 active torsions:
REMARK  status: ('A' for Active; 'I' for Inactive)
REMARK    1  A    between atoms: C_4  and  O_21
REMARK                            x       y       z     vdW  Elec       q    Type
REMARK                         _______ _______ _______ _____ _____    ______ ____
ROOT
ATOM      1  O   UNL     1      35.371 -23.519 -16.865  0.00  0.00    -0.291 OA
ATOM      2  C   UNL     1      34.692 -17.008 -22.137  0.00  0.00    +0.041 C 
ATOM      3  C   UNL     1      33.644 -17.574 -21.146  0.00  0.00    +0.010 C 
ATOM      4  C   UNL     1      34.431 -15.483 -21.960  0.00  0.00    +0.092 C 
ATOM      5  C   UNL     1      33.650 -19.104 -21.128  0.00  0.00    +0.023 C 
ATOM      6  C   UNL     1      32.375 -16.812 -21.500  0.00  0.00    +0.003 C 
ATOM      7  C   UNL     1      32.881 -15.400 -21.856  0.00  0.00    +0.027 C 
ATOM      8  C   UNL     1      35.042 -19.585 -20.668  0.00  0.00    -0.027 C 
ATOM      9  C   UNL     1      36.036 -17.574 -21.758  0.00  0.00    -0.025 C 
ATOM     10  C   UNL     1      32.515 -19.671 -20.267  0.00  0.00    +0.009 C 
ATOM     11  C   UNL     1      34.458 -17.423 -23.617  0.00  0.00    +0.007 C 
ATOM     12  C   UNL     1      35.105 -14.852 -20.734  0.00  0.00    +0.030 C 
ATOM     13  C   UNL     1      36.169 -18.747 -21.111  0.00  0.00    -0.009 C 
ATOM     14  C   UNL     1      35.187 -20.688 -19.888  0.00  0.00    -0.030 C 
ATOM     15  C   UNL     1      32.698 -21.176 -20.115  0.00  0.00    +0.026 C 
ATOM     16  C   UNL     1      34.018 -21.470 -19.448  0.00  0.00    -0.024 C 
ATOM     17  C   UNL     1      36.514 -21.251 -19.412  0.00  0.00    +0.034 C 
ATOM     18  C   UNL     1      34.075 -22.395 -18.475  0.00  0.00    +0.033 C 
ATOM     19  C   UNL     1      36.475 -21.691 -17.954  0.00  0.00    +0.074 C 
ATOM     20  C   UNL     1      35.323 -22.631 -17.712  0.00  0.00    +0.173 C 
ENDROOT
BRANCH   4  21
ATOM     21  O   UNL     1      34.873 -14.749 -23.100  0.00  0.00    -0.386 OA
ATOM     22  H   UNL     1      34.213 -14.076 -23.329  0.00  0.00    +0.210 HD
ENDBRANCH   4  21
TORSDOF 1
ENDMDL
MODEL 4
REMARK VINA RESULT:      -9.0      9.469     14.001
REMARK  Name = 261000
REMARK  1 active torsions:
REMARK  status: ('A' for Active; 'I' for Inactive)
REMARK    1  A    between atoms: C_4  and  O_21
REMARK                            x       y       z     vdW  Elec       q    Type
REMARK                         _______ _______ _______ _____ _____    ______ ____
ROOT
ATOM      1  O   UNL     1      34.502 -18.763 -21.898  0.00  0.00    -0.291 OA
ATOM      2  C   UNL     1      34.076 -23.999 -15.336  0.00  0.00    +0.041 C 
ATOM      3  C   UNL     1      35.042 -22.811 -15.575  0.00  0.00    +0.010 C 
ATOM      4  C   UNL     1      33.803 -23.821 -13.813  0.00  0.00    +0.092 C 
ATOM      5  C   UNL     1      35.516 -22.750 -17.029  0.00  0.00    +0.023 C 
ATOM      6  C   UNL     1      36.047 -22.940 -14.440  0.00  0.00    +0.003 C 
ATOM      7  C   UNL     1      35.198 -23.426 -13.249  0.00  0.00    +0.027 C 
ATOM      8  C   UNL     1      34.286 -22.548 -17.939  0.00  0.00    -0.027 C 
ATOM      9  C   UNL     1      32.933 -23.867 -16.310  0.00  0.00    -0.025 C 
ATOM     10  C   UNL     1      36.586 -21.672 -17.236  0.00  0.00    +0.009 C 
ATOM     11  C   UNL     1      34.705 -25.395 -15.608  0.00  0.00    +0.007 C 
ATOM     12  C   UNL     1      32.745 -22.764 -13.468  0.00  0.00    +0.030 C 
ATOM     13  C   UNL     1      33.058 -23.222 -17.485  0.00  0.00    -0.009 C 
ATOM     14  C   UNL     1      34.351 -21.778 -19.056  0.00  0.00    -0.030 C 
ATOM     15  C   UNL     1      36.862 -21.514 -18.726  0.00  0.00    +0.026 C 
ATOM     16  C   UNL     1      35.602 -21.101 -19.443  0.00  0.00    -0.024 C 
ATOM     17  C   UNL     1      33.206 -21.546 -20.024  0.00  0.00    +0.034 C 
ATOM     18  C   UNL     1      35.657 -20.130 -20.370  0.00  0.00    +0.033 C 
ATOM     19  C   UNL     1      33.104 -20.096 -20.476  0.00  0.00    +0.074 C 
ATOM     20  C   UNL     1      34.427 -19.611 -21.012  0.00  0.00    +0.173 C 
ENDROOT
BRANCH   4  21
ATOM     21  O   UNL     1      33.376 -25.046 -13.220  0.00  0.00    -0.386 OA
ATOM     22  H   UNL     1      32.723 -24.860 -12.527  0.00  0.00    +0.210 HD
ENDBRANCH   4  21
TORSDOF 1
ENDMDL
MODEL 5
REMARK VINA RESULT:      -8.9     13.751     15.943
REMARK  Name = 261000
REMARK  1 active torsions:
REMARK  status: ('A' for Active; 'I' for Inactive)
REMARK    1  A    between atoms: C_4  and  O_21
REMARK                            x       y       z     vdW  Elec       q    Type
REMARK                         _______ _______ _______ _____ _____    ______ ____
ROOT
ATOM      1  O   UNL     1      39.662 -26.208 -14.293  0.00  0.00    -0.291 OA
ATOM      2  C   UNL     1      31.700 -23.536 -14.638  0.00  0.00    +0.041 C 
ATOM      3  C   UNL     1      32.768 -23.565 -15.759  0.00  0.00    +0.010 C 
ATOM      4  C   UNL     1      30.442 -23.955 -15.454  0.00  0.00    +0.092 C 
ATOM      5  C   UNL     1      34.148 -23.154 -15.239  0.00  0.00    +0.023 C 
ATOM      6  C   UNL     1      32.111 -22.793 -16.894  0.00  0.00    +0.003 C 
ATOM      7  C   UNL     1      30.625 -23.194 -16.798  0.00  0.00    +0.027 C 
ATOM      8  C   UNL     1      34.581 -24.157 -14.149  0.00  0.00    -0.027 C 
ATOM      9  C   UNL     1      32.182 -24.424 -13.519  0.00  0.00    -0.025 C 
ATOM     10  C   UNL     1      35.174 -23.033 -16.371  0.00  0.00    +0.009 C 
ATOM     11  C   UNL     1      31.483 -22.133 -14.001  0.00  0.00    +0.007 C 
ATOM     12  C   UNL     1      30.299 -25.465 -15.687  0.00  0.00    +0.030 C 
ATOM     13  C   UNL     1      33.488 -24.675 -13.309  0.00  0.00    -0.009 C 
ATOM     14  C   UNL     1      35.878 -24.538 -14.014  0.00  0.00    -0.030 C 
ATOM     15  C   UNL     1      36.562 -22.833 -15.777  0.00  0.00    +0.026 C 
ATOM     16  C   UNL     1      36.925 -24.009 -14.906  0.00  0.00    -0.024 C 
ATOM     17  C   UNL     1      36.401 -25.494 -12.956  0.00  0.00    +0.034 C 
ATOM     18  C   UNL     1      38.156 -24.541 -14.993  0.00  0.00    +0.033 C 
ATOM     19  C   UNL     1      37.412 -26.487 -13.512  0.00  0.00    +0.074 C 
ATOM     20  C   UNL     1      38.516 -25.769 -14.245  0.00  0.00    +0.173 C 
ENDROOT
BRANCH   4  21
ATOM     21  O   UNL     1      29.244 -23.517 -14.816  0.00  0.00    -0.386 OA
ATOM     22  H   UNL     1      28.923 -22.710 -15.248  0.00  0.00    +0.210 HD
ENDBRANCH   4  21
TORSDOF 1
ENDMDL
MODEL 6
REMARK VINA RESULT:      -8.6     13.554     16.028
REMARK  Name = 261000
REMARK  1 active torsions:
REMARK  status: ('A' for Active; 'I' for Inactive)
REMARK    1  A    between atoms: C_4  and  O_21
REMARK                            x       y       z     vdW  Elec       q    Type
REMARK                         _______ _______ _______ _____ _____    ______ ____
ROOT
ATOM      1  O   UNL     1      28.857 -21.987 -16.504  0.00  0.00    -0.291 OA
ATOM      2  C   UNL     1      36.198 -24.619 -13.368  0.00  0.00    +0.041 C 
ATOM      3  C   UNL     1      35.931 -23.562 -14.470  0.00  0.00    +0.010 C 
ATOM      4  C   UNL     1      37.373 -23.929 -12.614  0.00  0.00    +0.092 C 
ATOM      5  C   UNL     1      34.806 -23.998 -15.411  0.00  0.00    +0.023 C 
ATOM      6  C   UNL     1      37.319 -23.260 -15.014  0.00  0.00    +0.003 C 
ATOM      7  C   UNL     1      38.225 -23.324 -13.767  0.00  0.00    +0.027 C 
ATOM      8  C   UNL     1      33.510 -24.160 -14.588  0.00  0.00    -0.027 C 
ATOM      9  C   UNL     1      34.901 -24.865 -12.642  0.00  0.00    -0.025 C 
ATOM     10  C   UNL     1      34.640 -23.032 -16.590  0.00  0.00    +0.009 C 
ATOM     11  C   UNL     1      36.649 -26.004 -13.911  0.00  0.00    +0.007 C 
ATOM     12  C   UNL     1      36.949 -22.847 -11.612  0.00  0.00    +0.030 C 
ATOM     13  C   UNL     1      33.701 -24.667 -13.220  0.00  0.00    -0.009 C 
ATOM     14  C   UNL     1      32.299 -23.826 -15.104  0.00  0.00    -0.030 C 
ATOM     15  C   UNL     1      33.382 -23.395 -17.368  0.00  0.00    +0.026 C 
ATOM     16  C   UNL     1      32.173 -23.292 -16.472  0.00  0.00    -0.024 C 
ATOM     17  C   UNL     1      30.972 -23.978 -14.383  0.00  0.00    +0.034 C 
ATOM     18  C   UNL     1      31.057 -22.704 -16.934  0.00  0.00    +0.033 C 
ATOM     19  C   UNL     1      30.055 -22.779 -14.584  0.00  0.00    +0.074 C 
ATOM     20  C   UNL     1      29.889 -22.476 -16.050  0.00  0.00    +0.173 C 
ENDROOT
BRANCH   4  21
ATOM     21  O   UNL     1      38.153 -24.881 -11.894  0.00  0.00    -0.386 OA
ATOM     22  H   UNL     1      39.061 -24.554 -11.803  0.00  0.00    +0.210 HD
ENDBRANCH   4  21
TORSDOF 1
ENDMDL
MODEL 7
REMARK VINA RESULT:      -8.5     10.101     14.620
REMARK  Name = 261000
REMARK  1 active torsions:
REMARK  status: ('A' for Active; 'I' for Inactive)
REMARK    1  A    between atoms: C_4  and  O_21
REMARK                            x       y       z     vdW  Elec       q    Type
REMARK                         _______ _______ _______ _____ _____    ______ ____
ROOT
ATOM      1  O   UNL     1      33.525 -19.466 -21.232  0.00  0.00    -0.291 OA
ATOM      2  C   UNL     1      35.470 -24.312 -14.645  0.00  0.00    +0.041 C 
ATOM      3  C   UNL     1      36.109 -22.974 -15.094  0.00  0.00    +0.010 C 
ATOM      4  C   UNL     1      35.472 -24.107 -13.102  0.00  0.00    +0.092 C 
ATOM      5  C   UNL     1      36.264 -22.902 -16.615  0.00  0.00    +0.023 C 
ATOM      6  C   UNL     1      37.324 -22.841 -14.187  0.00  0.00    +0.003 C 
ATOM      7  C   UNL     1      36.842 -23.417 -12.840  0.00  0.00    +0.027 C 
ATOM      8  C   UNL     1      34.864 -22.995 -17.257  0.00  0.00    -0.027 C 
ATOM      9  C   UNL     1      34.155 -24.459 -15.366  0.00  0.00    -0.025 C 
ATOM     10  C   UNL     1      37.033 -21.650 -17.053  0.00  0.00    +0.009 C 
ATOM     11  C   UNL     1      36.302 -25.572 -15.020  0.00  0.00    +0.007 C 
ATOM     12  C   UNL     1      34.312 -23.258 -12.563  0.00  0.00    +0.030 C 
ATOM     13  C   UNL     1      33.912 -23.869 -16.552  0.00  0.00    -0.009 C 
ATOM     14  C   UNL     1      34.551 -22.290 -18.375  0.00  0.00    -0.030 C 
ATOM     15  C   UNL     1      36.972 -21.524 -18.569  0.00  0.00    +0.026 C 
ATOM     16  C   UNL     1      35.538 -21.405 -19.020  0.00  0.00    -0.024 C 
ATOM     17  C   UNL     1      33.214 -22.340 -19.092  0.00  0.00    +0.034 C 
ATOM     18  C   UNL     1      35.211 -20.495 -19.953  0.00  0.00    +0.033 C 
ATOM     19  C   UNL     1      32.735 -20.964 -19.535  0.00  0.00    +0.074 C 
ATOM     20  C   UNL     1      33.799 -20.263 -20.337  0.00  0.00    +0.173 C 
ENDROOT
BRANCH   4  21
ATOM     21  O   UNL     1      35.428 -25.356 -12.415  0.00  0.00    -0.386 OA
ATOM     22  H   UNL     1      35.127 -25.215 -11.504  0.00  0.00    +0.210 HD
ENDBRANCH   4  21
TORSDOF 1
ENDMDL
MODEL 8
REMARK VINA RESULT:      -7.8     12.075     15.684
REMARK  Name = 261000
REMARK  1 active torsions:
REMARK  status: ('A' for Active; 'I' for Inactive)
REMARK    1  A    between atoms: C_4  and  O_21
REMARK                            x       y       z     vdW  Elec       q    Type
REMARK                         _______ _______ _______ _____ _____    ______ ____
ROOT
ATOM      1  O   UNL     1      32.711 -21.985 -20.392  0.00  0.00    -0.291 OA
ATOM      2  C   UNL     1      37.840 -24.084 -14.072  0.00  0.00    +0.041 C 
ATOM      3  C   UNL     1      36.494 -24.727 -14.490  0.00  0.00    +0.010 C 
ATOM      4  C   UNL     1      38.644 -25.364 -13.698  0.00  0.00    +0.092 C 
ATOM      5  C   UNL     1      35.463 -23.670 -14.895  0.00  0.00    +0.023 C 
ATOM      6  C   UNL     1      36.199 -25.697 -13.357  0.00  0.00    +0.003 C 
ATOM      7  C   UNL     1      37.588 -26.242 -12.967  0.00  0.00    +0.027 C 
ATOM      8  C   UNL     1      36.010 -22.890 -16.109  0.00  0.00    -0.027 C 
ATOM      9  C   UNL     1      38.315 -23.224 -15.216  0.00  0.00    -0.025 C 
ATOM     10  C   UNL     1      34.086 -24.288 -15.163  0.00  0.00    +0.009 C 
ATOM     11  C   UNL     1      37.738 -23.136 -12.843  0.00  0.00    +0.007 C 
ATOM     12  C   UNL     1      39.258 -26.111 -14.890  0.00  0.00    +0.030 C 
ATOM     13  C   UNL     1      37.468 -22.683 -16.111  0.00  0.00    -0.009 C 
ATOM     14  C   UNL     1      35.189 -22.460 -17.102  0.00  0.00    -0.030 C 
ATOM     15  C   UNL     1      33.166 -23.233 -15.762  0.00  0.00    +0.026 C 
ATOM     16  C   UNL     1      33.739 -22.725 -17.061  0.00  0.00    -0.024 C 
ATOM     17  C   UNL     1      35.630 -21.663 -18.316  0.00  0.00    +0.034 C 
ATOM     18  C   UNL     1      32.931 -22.564 -18.122  0.00  0.00    +0.033 C 
ATOM     19  C   UNL     1      34.970 -22.139 -19.603  0.00  0.00    +0.074 C 
ATOM     20  C   UNL     1      33.472 -22.183 -19.448  0.00  0.00    +0.173 C 
ENDROOT
BRANCH   4  21
ATOM     21  O   UNL     1      39.712 -25.058 -12.804  0.00  0.00    -0.386 OA
ATOM     22  H   UNL     1      40.560 -25.190 -13.255  0.00  0.00    +0.210 HD
ENDBRANCH   4  21
TORSDOF 1
ENDMDL
MODEL 9
REMARK VINA RESULT:      -7.7      4.528      7.267
REMARK  Name = 261000
REMARK  1 active torsions:
REMARK  status: ('A' for Active; 'I' for Inactive)
REMARK    1  A    between atoms: C_4  and  O_21
REMARK                            x       y       z     vdW  Elec       q    Type
REMARK                         _______ _______ _______ _____ _____    ______ ____
ROOT
ATOM      1  O   UNL     1      31.631  -9.782 -22.201  0.00  0.00    -0.291 OA
ATOM      2  C   UNL     1      33.046  -3.349 -27.423  0.00  0.00    +0.041 C 
ATOM      3  C   UNL     1      33.763  -4.720 -27.349  0.00  0.00    +0.010 C 
ATOM      4  C   UNL     1      32.983  -3.162 -28.968  0.00  0.00    +0.092 C 
ATOM      5  C   UNL     1      33.994  -5.161 -25.902  0.00  0.00    +0.023 C 
ATOM      6  C   UNL     1      34.937  -4.558 -28.303  0.00  0.00    +0.003 C 
ATOM      7  C   UNL     1      34.367  -3.690 -29.444  0.00  0.00    +0.027 C 
ATOM      8  C   UNL     1      32.624  -5.306 -25.207  0.00  0.00    -0.027 C 
ATOM      9  C   UNL     1      31.762  -3.457 -26.641  0.00  0.00    -0.025 C 
ATOM     10  C   UNL     1      34.836  -6.440 -25.821  0.00  0.00    +0.009 C 
ATOM     11  C   UNL     1      33.840  -2.180 -26.774  0.00  0.00    +0.007 C 
ATOM     12  C   UNL     1      31.836  -3.910 -29.661  0.00  0.00    +0.030 C 
ATOM     13  C   UNL     1      31.603  -4.336 -25.635  0.00  0.00    -0.009 C 
ATOM     14  C   UNL     1      32.396  -6.284 -24.291  0.00  0.00    -0.030 C 
ATOM     15  C   UNL     1      34.854  -6.943 -24.383  0.00  0.00    +0.026 C 
ATOM     16  C   UNL     1      33.450  -7.247 -23.926  0.00  0.00    -0.024 C 
ATOM     17  C   UNL     1      31.094  -6.486 -23.537  0.00  0.00    +0.034 C 
ATOM     18  C   UNL     1      33.208  -8.378 -23.240  0.00  0.00    +0.033 C 
ATOM     19  C   UNL     1      30.696  -7.952 -23.437  0.00  0.00    +0.074 C 
ATOM     20  C   UNL     1      31.827  -8.774 -22.876  0.00  0.00    +0.173 C 
ENDROOT
BRANCH   4  21
ATOM     21  O   UNL     1      32.852  -1.786 -29.316  0.00  0.00    -0.386 OA
ATOM     22  H   UNL     1      31.926  -1.592 -29.529  0.00  0.00    +0.210 HD
ENDBRANCH   4  21
TORSDOF 1
ENDMDL
