MODEL 1
REMARK VINA RESULT:      -7.5      0.000      0.000
REMARK  Name = 1021
REMARK  9 active torsions:
REMARK  status: ('A' for Active; 'I' for Inactive)
REMARK    1  A    between atoms: C_2  and  C_13
REMARK    2  A    between atoms: C_3  and  C_7
REMARK    3  A    between atoms: C_4  and  C_18
REMARK    4  A    between atoms: C_7  and  C_8
REMARK    5  A    between atoms: C_8  and  C_10
REMARK    6  A    between atoms: C_10  and  O_11
REMARK    7  A    between atoms: C_13  and  C_15
REMARK    8  A    between atoms: C_15  and  O_16
REMARK    9  A    between atoms: C_18  and  N_19
REMARK                            x       y       z     vdW  Elec       q    Type
REMARK                         _______ _______ _______ _____ _____    ______ ____
ROOT
ATOM      1  N   UNL     1      35.620 -26.019 -15.184  0.00  0.00    -0.317 N 
ATOM      2  C   UNL     1      36.240 -24.716 -13.495  0.00  0.00    -0.007 C 
ATOM      3  C   UNL     1      37.267 -25.624 -13.786  0.00  0.00    -0.010 C 
ATOM      4  C   UNL     1      35.220 -24.982 -14.382  0.00  0.00    -0.001 C 
ATOM      5  C   UNL     1      36.880 -26.419 -14.822  0.00  0.00    +0.057 C 
ATOM      6  H   UNL     1      35.084 -26.415 -15.909  0.00  0.00    +0.152 HD
ENDROOT
BRANCH   3   7
ATOM      7  C   UNL     1      38.588 -25.716 -13.076  0.00  0.00    +0.039 C 
BRANCH   7   8
ATOM      8  C   UNL     1      39.748 -25.079 -13.847  0.00  0.00    +0.114 C 
BRANCH   8  10
ATOM      9  O   UNL     1      41.342 -26.901 -14.130  0.00  0.00    -0.250 OA
ATOM     10  C   UNL     1      40.583 -26.078 -14.620  0.00  0.00    +0.314 C 
BRANCH  10  11
ATOM     11  O   UNL     1      40.413 -25.935 -15.960  0.00  0.00    -0.480 OA
ATOM     12  H   UNL     1      41.014 -25.413 -16.456  0.00  0.00    +0.295 HD
ENDBRANCH  10  11
ENDBRANCH   8  10
ENDBRANCH   7   8
ENDBRANCH   3   7
BRANCH   2  13
ATOM     13  C   UNL     1      36.236 -23.675 -12.446  0.00  0.00    +0.136 C 
BRANCH  13  15
ATOM     14  O   UNL     1      36.404 -23.940 -10.046  0.00  0.00    -0.250 OA
ATOM     15  C   UNL     1      35.854 -24.245 -11.097  0.00  0.00    +0.318 C 
BRANCH  15  16
ATOM     16  O   UNL     1      34.863 -25.166 -11.177  0.00  0.00    -0.480 OA
ATOM     17  H   UNL     1      34.595 -25.634 -10.411  0.00  0.00    +0.295 HD
ENDBRANCH  15  16
ENDBRANCH  13  15
ENDBRANCH   2  13
BRANCH   4  18
ATOM     18  C   UNL     1      33.896 -24.354 -14.552  0.00  0.00    -0.044 C 
BRANCH  18  19
ATOM     19  N   UNL     1      32.891 -24.927 -13.643  0.00  0.00    +0.384 N 
ATOM     20  H   UNL     1      33.287 -25.736 -13.165  0.00  0.00    -0.089 HD
ATOM     21  H   UNL     1      32.073 -25.216 -14.180  0.00  0.00    -0.089 HD
ATOM     22  H   UNL     1      32.616 -24.226 -12.955  0.00  0.00    -0.089 HD
ENDBRANCH  18  19
ENDBRANCH   4  18
TORSDOF 9
ENDMDL
MODEL 2
REMARK VINA RESULT:      -7.0      8.134      9.429
REMARK  Name = 1021
REMARK  9 active torsions:
REMARK  status: ('A' for Active; 'I' for Inactive)
REMARK    1  A    between atoms: C_2  and  C_13
REMARK    2  A    between atoms: C_3  and  C_7
REMARK    3  A    between atoms: C_4  and  C_18
REMARK    4  A    between atoms: C_7  and  C_8
REMARK    5  A    between atoms: C_8  and  C_10
REMARK    6  A    between atoms: C_10  and  O_11
REMARK    7  A    between atoms: C_13  and  C_15
REMARK    8  A    between atoms: C_15  and  O_16
REMARK    9  A    between atoms: C_18  and  N_19
REMARK                            x       y       z     vdW  Elec       q    Type
REMARK                         _______ _______ _______ _____ _____    ______ ____
ROOT
ATOM      1  N   UNL     1      32.903 -20.795 -20.031  0.00  0.00    -0.317 N 
ATOM      2  C   UNL     1      35.099 -21.082 -19.862  0.00  0.00    -0.007 C 
ATOM      3  C   UNL     1      34.835 -19.928 -20.611  0.00  0.00    -0.010 C 
ATOM      4  C   UNL     1      33.875 -21.608 -19.509  0.00  0.00    -0.001 C 
ATOM      5  C   UNL     1      33.487 -19.758 -20.711  0.00  0.00    +0.057 C 
ATOM      6  H   UNL     1      31.934 -20.934 -19.931  0.00  0.00    +0.152 HD
ENDROOT
BRANCH   3   7
ATOM      7  C   UNL     1      35.865 -19.015 -21.215  0.00  0.00    +0.039 C 
BRANCH   7   8
ATOM      8  C   UNL     1      35.416 -18.363 -22.526  0.00  0.00    +0.114 C 
BRANCH   8  10
ATOM      9  O   UNL     1      34.858 -16.228 -21.490  0.00  0.00    -0.250 OA
ATOM     10  C   UNL     1      35.297 -16.856 -22.443  0.00  0.00    +0.314 C 
BRANCH  10  11
ATOM     11  O   UNL     1      35.717 -16.260 -23.589  0.00  0.00    -0.480 OA
ATOM     12  H   UNL     1      35.446 -15.385 -23.789  0.00  0.00    +0.295 HD
ENDBRANCH  10  11
ENDBRANCH   8  10
ENDBRANCH   7   8
ENDBRANCH   3   7
BRANCH   2  13
ATOM     13  C   UNL     1      36.422 -21.639 -19.512  0.00  0.00    +0.136 C 
BRANCH  13  15
ATOM     14  O   UNL     1      36.418 -22.451 -17.232  0.00  0.00    -0.250 OA
ATOM     15  C   UNL     1      36.686 -21.556 -18.025  0.00  0.00    +0.318 C 
BRANCH  15  16
ATOM     16  O   UNL     1      37.212 -20.364 -17.650  0.00  0.00    -0.480 OA
ATOM     17  H   UNL     1      36.913 -19.572 -18.051  0.00  0.00    +0.295 HD
ENDBRANCH  15  16
ENDBRANCH  13  15
ENDBRANCH   2  13
BRANCH   4  18
ATOM     18  C   UNL     1      33.526 -22.808 -18.725  0.00  0.00    -0.044 C 
BRANCH  18  19
ATOM     19  N   UNL     1      32.315 -22.605 -17.914  0.00  0.00    +0.384 N 
ATOM     20  H   UNL     1      32.525 -21.970 -17.144  0.00  0.00    -0.089 HD
ATOM     21  H   UNL     1      32.003 -23.501 -17.540  0.00  0.00    -0.089 HD
ATOM     22  H   UNL     1      31.579 -22.205 -18.496  0.00  0.00    -0.089 HD
ENDBRANCH  18  19
ENDBRANCH   4  18
TORSDOF 9
ENDMDL
MODEL 3
REMARK VINA RESULT:      -6.5     11.860     13.407
REMARK  Name = 1021
REMARK  9 active torsions:
REMARK  status: ('A' for Active; 'I' for Inactive)
REMARK    1  A    between atoms: C_2  and  C_13
REMARK    2  A    between atoms: C_3  and  C_7
REMARK    3  A    between atoms: C_4  and  C_18
REMARK    4  A    between atoms: C_7  and  C_8
REMARK    5  A    between atoms: C_8  and  C_10
REMARK    6  A    between atoms: C_10  and  O_11
REMARK    7  A    between atoms: C_13  and  C_15
REMARK    8  A    between atoms: C_15  and  O_16
REMARK    9  A    between atoms: C_18  and  N_19
REMARK                            x       y       z     vdW  Elec       q    Type
REMARK                         _______ _______ _______ _____ _____    ______ ____
ROOT
ATOM      1  N   UNL     1      32.689 -15.018 -21.547  0.00  0.00    -0.317 N 
ATOM      2  C   UNL     1      34.231 -15.981 -22.822  0.00  0.00    -0.007 C 
ATOM      3  C   UNL     1      34.095 -16.701 -21.628  0.00  0.00    -0.010 C 
ATOM      4  C   UNL     1      33.341 -14.932 -22.749  0.00  0.00    -0.001 C 
ATOM      5  C   UNL     1      33.149 -16.105 -20.851  0.00  0.00    +0.057 C 
ATOM      6  H   UNL     1      31.996 -14.393 -21.232  0.00  0.00    +0.152 HD
ENDROOT
BRANCH   3   7
ATOM      7  C   UNL     1      34.866 -17.936 -21.252  0.00  0.00    +0.039 C 
BRANCH   7   8
ATOM      8  C   UNL     1      34.189 -19.240 -21.684  0.00  0.00    +0.114 C 
BRANCH   8  10
ATOM      9  O   UNL     1      32.660 -20.475 -20.241  0.00  0.00    -0.250 OA
ATOM     10  C   UNL     1      33.799 -20.132 -20.525  0.00  0.00    +0.314 C 
BRANCH  10  11
ATOM     11  O   UNL     1      34.884 -20.499 -19.794  0.00  0.00    -0.480 OA
ATOM     12  H   UNL     1      35.747 -20.324 -20.117  0.00  0.00    +0.295 HD
ENDBRANCH  10  11
ENDBRANCH   8  10
ENDBRANCH   7   8
ENDBRANCH   3   7
BRANCH   2  13
ATOM     13  C   UNL     1      35.145 -16.274 -23.946  0.00  0.00    +0.136 C 
BRANCH  13  15
ATOM     14  O   UNL     1      34.286 -18.266 -25.019  0.00  0.00    -0.250 OA
ATOM     15  C   UNL     1      34.449 -17.052 -25.041  0.00  0.00    +0.318 C 
BRANCH  15  16
ATOM     16  O   UNL     1      34.058 -16.268 -26.076  0.00  0.00    -0.480 OA
ATOM     17  H   UNL     1      33.905 -15.354 -25.940  0.00  0.00    +0.295 HD
ENDBRANCH  15  16
ENDBRANCH  13  15
ENDBRANCH   2  13
BRANCH   4  18
ATOM     18  C   UNL     1      33.041 -13.847 -23.703  0.00  0.00    -0.044 C 
BRANCH  18  19
ATOM     19  N   UNL     1      34.061 -12.787 -23.675  0.00  0.00    +0.384 N 
ATOM     20  H   UNL     1      33.660 -11.921 -24.034  0.00  0.00    -0.089 HD
ATOM     21  H   UNL     1      34.852 -13.062 -24.257  0.00  0.00    -0.089 HD
ATOM     22  H   UNL     1      34.376 -12.644 -22.716  0.00  0.00    -0.089 HD
ENDBRANCH  18  19
ENDBRANCH   4  18
TORSDOF 9
ENDMDL
MODEL 4
REMARK VINA RESULT:      -6.5     12.254     13.312
REMARK  Name = 1021
REMARK  9 active torsions:
REMARK  status: ('A' for Active; 'I' for Inactive)
REMARK    1  A    between atoms: C_2  and  C_13
REMARK    2  A    between atoms: C_3  and  C_7
REMARK    3  A    between atoms: C_4  and  C_18
REMARK    4  A    between atoms: C_7  and  C_8
REMARK    5  A    between atoms: C_8  and  C_10
REMARK    6  A    between atoms: C_10  and  O_11
REMARK    7  A    between atoms: C_13  and  C_15
REMARK    8  A    between atoms: C_15  and  O_16
REMARK    9  A    between atoms: C_18  and  N_19
REMARK                            x       y       z     vdW  Elec       q    Type
REMARK                         _______ _______ _______ _____ _____    ______ ____
ROOT
ATOM      1  N   UNL     1      33.496 -15.654 -25.300  0.00  0.00    -0.317 N 
ATOM      2  C   UNL     1      34.461 -15.470 -23.308  0.00  0.00    -0.007 C 
ATOM      3  C   UNL     1      34.775 -16.716 -23.866  0.00  0.00    -0.010 C 
ATOM      4  C   UNL     1      33.660 -14.822 -24.223  0.00  0.00    -0.001 C 
ATOM      5  C   UNL     1      34.180 -16.822 -25.086  0.00  0.00    +0.057 C 
ATOM      6  H   UNL     1      32.967 -15.444 -26.104  0.00  0.00    +0.152 HD
ENDROOT
BRANCH   3   7
ATOM      7  C   UNL     1      35.629 -17.776 -23.229  0.00  0.00    +0.039 C 
BRANCH   7   8
ATOM      8  C   UNL     1      34.858 -19.046 -22.856  0.00  0.00    +0.114 C 
BRANCH   8  10
ATOM      9  O   UNL     1      33.509 -19.553 -20.890  0.00  0.00    -0.250 OA
ATOM     10  C   UNL     1      34.560 -19.161 -21.376  0.00  0.00    +0.314 C 
BRANCH  10  11
ATOM     11  O   UNL     1      35.610 -18.740 -20.625  0.00  0.00    -0.480 OA
ATOM     12  H   UNL     1      36.488 -18.910 -20.908  0.00  0.00    +0.295 HD
ENDBRANCH  10  11
ENDBRANCH   8  10
ENDBRANCH   7   8
ENDBRANCH   3   7
BRANCH   2  13
ATOM     13  C   UNL     1      34.894 -14.940 -21.998  0.00  0.00    +0.136 C 
BRANCH  13  15
ATOM     14  O   UNL     1      32.858 -15.541 -20.837  0.00  0.00    -0.250 OA
ATOM     15  C   UNL     1      34.082 -15.526 -20.864  0.00  0.00    +0.318 C 
BRANCH  15  16
ATOM     16  O   UNL     1      34.854 -15.998 -19.854  0.00  0.00    -0.480 OA
ATOM     17  H   UNL     1      34.454 -16.394 -19.105  0.00  0.00    +0.295 HD
ENDBRANCH  15  16
ENDBRANCH  13  15
ENDBRANCH   2  13
BRANCH   4  18
ATOM     18  C   UNL     1      33.028 -13.489 -24.186  0.00  0.00    -0.044 C 
BRANCH  18  19
ATOM     19  N   UNL     1      32.071 -13.362 -23.076  0.00  0.00    +0.384 N 
ATOM     20  H   UNL     1      32.581 -13.278 -22.196  0.00  0.00    -0.089 HD
ATOM     21  H   UNL     1      31.473 -14.188 -23.046  0.00  0.00    -0.089 HD
ATOM     22  H   UNL     1      31.496 -12.531 -23.216  0.00  0.00    -0.089 HD
ENDBRANCH  18  19
ENDBRANCH   4  18
TORSDOF 9
ENDMDL
MODEL 5
REMARK VINA RESULT:      -6.5      5.460      8.608
REMARK  Name = 1021
REMARK  9 active torsions:
REMARK  status: ('A' for Active; 'I' for Inactive)
REMARK    1  A    between atoms: C_2  and  C_13
REMARK    2  A    between atoms: C_3  and  C_7
REMARK    3  A    between atoms: C_4  and  C_18
REMARK    4  A    between atoms: C_7  and  C_8
REMARK    5  A    between atoms: C_8  and  C_10
REMARK    6  A    between atoms: C_10  and  O_11
REMARK    7  A    between atoms: C_13  and  C_15
REMARK    8  A    between atoms: C_15  and  O_16
REMARK    9  A    between atoms: C_18  and  N_19
REMARK                            x       y       z     vdW  Elec       q    Type
REMARK                         _______ _______ _______ _____ _____    ______ ____
ROOT
ATOM      1  N   UNL     1      32.812 -23.008 -13.933  0.00  0.00    -0.317 N 
ATOM      2  C   UNL     1      32.838 -23.427 -16.114  0.00  0.00    -0.007 C 
ATOM      3  C   UNL     1      31.580 -22.932 -15.748  0.00  0.00    -0.010 C 
ATOM      4  C   UNL     1      33.593 -23.465 -14.962  0.00  0.00    -0.001 C 
ATOM      5  C   UNL     1      31.570 -22.678 -14.411  0.00  0.00    +0.057 C 
ATOM      6  H   UNL     1      33.099 -22.928 -12.995  0.00  0.00    +0.152 HD
ENDROOT
BRANCH   3   7
ATOM      7  C   UNL     1      30.416 -22.714 -16.675  0.00  0.00    +0.039 C 
BRANCH   7   8
ATOM      8  C   UNL     1      29.052 -22.933 -16.012  0.00  0.00    +0.114 C 
BRANCH   8  10
ATOM      9  O   UNL     1      27.466 -23.825 -17.634  0.00  0.00    -0.250 OA
ATOM     10  C   UNL     1      27.893 -22.882 -16.984  0.00  0.00    +0.314 C 
BRANCH  10  11
ATOM     11  O   UNL     1      27.380 -21.627 -17.079  0.00  0.00    -0.480 OA
ATOM     12  H   UNL     1      26.899 -21.261 -16.362  0.00  0.00    +0.295 HD
ENDBRANCH  10  11
ENDBRANCH   8  10
ENDBRANCH   7   8
ENDBRANCH   3   7
BRANCH   2  13
ATOM     13  C   UNL     1      33.284 -23.833 -17.463  0.00  0.00    +0.136 C 
BRANCH  13  15
ATOM     14  O   UNL     1      32.977 -21.993 -19.004  0.00  0.00    -0.250 OA
ATOM     15  C   UNL     1      33.726 -22.643 -18.285  0.00  0.00    +0.318 C 
BRANCH  15  16
ATOM     16  O   UNL     1      35.055 -22.393 -18.177  0.00  0.00    -0.480 OA
ATOM     17  H   UNL     1      35.530 -22.699 -17.430  0.00  0.00    +0.295 HD
ENDBRANCH  15  16
ENDBRANCH  13  15
ENDBRANCH   2  13
BRANCH   4  18
ATOM     18  C   UNL     1      34.986 -23.893 -14.729  0.00  0.00    -0.044 C 
BRANCH  18  19
ATOM     19  N   UNL     1      35.958 -22.922 -15.256  0.00  0.00    +0.384 N 
ATOM     20  H   UNL     1      35.926 -22.929 -16.276  0.00  0.00    -0.089 HD
ATOM     21  H   UNL     1      36.895 -23.176 -14.944  0.00  0.00    -0.089 HD
ATOM     22  H   UNL     1      35.727 -21.989 -14.914  0.00  0.00    -0.089 HD
ENDBRANCH  18  19
ENDBRANCH   4  18
TORSDOF 9
ENDMDL
MODEL 6
REMARK VINA RESULT:      -6.5      3.746      5.211
REMARK  Name = 1021
REMARK  9 active torsions:
REMARK  status: ('A' for Active; 'I' for Inactive)
REMARK    1  A    between atoms: C_2  and  C_13
REMARK    2  A    between atoms: C_3  and  C_7
REMARK    3  A    between atoms: C_4  and  C_18
REMARK    4  A    between atoms: C_7  and  C_8
REMARK    5  A    between atoms: C_8  and  C_10
REMARK    6  A    between atoms: C_10  and  O_11
REMARK    7  A    between atoms: C_13  and  C_15
REMARK    8  A    between atoms: C_15  and  O_16
REMARK    9  A    between atoms: C_18  and  N_19
REMARK                            x       y       z     vdW  Elec       q    Type
REMARK                         _______ _______ _______ _____ _____    ______ ____
ROOT
ATOM      1  N   UNL     1      31.681 -22.877 -17.610  0.00  0.00    -0.317 N 
ATOM      2  C   UNL     1      31.728 -23.110 -15.401  0.00  0.00    -0.007 C 
ATOM      3  C   UNL     1      33.030 -23.204 -15.909  0.00  0.00    -0.010 C 
ATOM      4  C   UNL     1      30.900 -22.905 -16.484  0.00  0.00    -0.001 C 
ATOM      5  C   UNL     1      32.994 -23.061 -17.263  0.00  0.00    +0.057 C 
ATOM      6  H   UNL     1      31.349 -22.745 -18.527  0.00  0.00    +0.152 HD
ENDROOT
BRANCH   3   7
ATOM      7  C   UNL     1      34.276 -23.428 -15.099  0.00  0.00    +0.039 C 
BRANCH   7   8
ATOM      8  C   UNL     1      35.557 -22.967 -15.801  0.00  0.00    +0.114 C 
BRANCH   8  10
ATOM      9  O   UNL     1      37.689 -23.037 -14.620  0.00  0.00    -0.250 OA
ATOM     10  C   UNL     1      36.813 -23.610 -15.251  0.00  0.00    +0.314 C 
BRANCH  10  11
ATOM     11  O   UNL     1      36.876 -24.928 -15.572  0.00  0.00    -0.480 OA
ATOM     12  H   UNL     1      37.103 -25.560 -14.917  0.00  0.00    +0.295 HD
ENDBRANCH  10  11
ENDBRANCH   8  10
ENDBRANCH   7   8
ENDBRANCH   3   7
BRANCH   2  13
ATOM     13  C   UNL     1      31.307 -23.209 -13.988  0.00  0.00    +0.136 C 
BRANCH  13  15
ATOM     14  O   UNL     1      31.955 -25.351 -13.066  0.00  0.00    -0.250 OA
ATOM     15  C   UNL     1      31.089 -24.647 -13.572  0.00  0.00    +0.318 C 
BRANCH  15  16
ATOM     16  O   UNL     1      29.842 -25.094 -13.859  0.00  0.00    -0.480 OA
ATOM     17  H   UNL     1      29.712 -25.706 -14.556  0.00  0.00    +0.295 HD
ENDBRANCH  15  16
ENDBRANCH  13  15
ENDBRANCH   2  13
BRANCH   4  18
ATOM     18  C   UNL     1      29.437 -22.732 -16.567  0.00  0.00    -0.044 C 
BRANCH  18  19
ATOM     19  N   UNL     1      28.722 -24.014 -16.467  0.00  0.00    +0.384 N 
ATOM     20  H   UNL     1      27.794 -23.856 -16.075  0.00  0.00    -0.089 HD
ATOM     21  H   UNL     1      29.244 -24.648 -15.861  0.00  0.00    -0.089 HD
ATOM     22  H   UNL     1      28.634 -24.428 -17.395  0.00  0.00    -0.089 HD
ENDBRANCH  18  19
ENDBRANCH   4  18
TORSDOF 9
ENDMDL
MODEL 7
REMARK VINA RESULT:      -6.4      6.368      8.164
REMARK  Name = 1021
REMARK  9 active torsions:
REMARK  status: ('A' for Active; 'I' for Inactive)
REMARK    1  A    between atoms: C_2  and  C_13
REMARK    2  A    between atoms: C_3  and  C_7
REMARK    3  A    between atoms: C_4  and  C_18
REMARK    4  A    between atoms: C_7  and  C_8
REMARK    5  A    between atoms: C_8  and  C_10
REMARK    6  A    between atoms: C_10  and  O_11
REMARK    7  A    between atoms: C_13  and  C_15
REMARK    8  A    between atoms: C_15  and  O_16
REMARK    9  A    between atoms: C_18  and  N_19
REMARK                            x       y       z     vdW  Elec       q    Type
REMARK                         _______ _______ _______ _____ _____    ______ ____
ROOT
ATOM      1  N   UNL     1      33.493 -19.831 -20.612  0.00  0.00    -0.317 N 
ATOM      2  C   UNL     1      35.145 -21.100 -19.842  0.00  0.00    -0.007 C 
ATOM      3  C   UNL     1      33.914 -21.666 -19.484  0.00  0.00    -0.010 C 
ATOM      4  C   UNL     1      34.856 -19.952 -20.548  0.00  0.00    -0.001 C 
ATOM      5  C   UNL     1      32.907 -20.883 -19.959  0.00  0.00    +0.057 C 
ATOM      6  H   UNL     1      33.009 -19.100 -21.060  0.00  0.00    +0.152 HD
ENDROOT
BRANCH   3   7
ATOM      7  C   UNL     1      33.724 -22.934 -18.699  0.00  0.00    +0.039 C 
BRANCH   7   8
ATOM      8  C   UNL     1      32.764 -22.787 -17.515  0.00  0.00    +0.114 C 
BRANCH   8  10
ATOM      9  O   UNL     1      32.802 -23.212 -15.115  0.00  0.00    -0.250 OA
ATOM     10  C   UNL     1      33.313 -23.341 -16.218  0.00  0.00    +0.314 C 
BRANCH  10  11
ATOM     11  O   UNL     1      34.489 -23.992 -16.415  0.00  0.00    -0.480 OA
ATOM     12  H   UNL     1      34.979 -24.308 -15.680  0.00  0.00    +0.295 HD
ENDBRANCH  10  11
ENDBRANCH   8  10
ENDBRANCH   7   8
ENDBRANCH   3   7
BRANCH   2  13
ATOM     13  C   UNL     1      36.494 -21.618 -19.532  0.00  0.00    +0.136 C 
BRANCH  13  15
ATOM     14  O   UNL     1      36.604 -22.454 -17.264  0.00  0.00    -0.250 OA
ATOM     15  C   UNL     1      36.794 -21.535 -18.051  0.00  0.00    +0.318 C 
BRANCH  15  16
ATOM     16  O   UNL     1      37.259 -20.318 -17.676  0.00  0.00    -0.480 OA
ATOM     17  H   UNL     1      36.699 -19.724 -17.217  0.00  0.00    +0.295 HD
ENDBRANCH  15  16
ENDBRANCH  13  15
ENDBRANCH   2  13
BRANCH   4  18
ATOM     18  C   UNL     1      35.741 -18.950 -21.173  0.00  0.00    -0.044 C 
BRANCH  18  19
ATOM     19  N   UNL     1      35.432 -17.583 -20.723  0.00  0.00    +0.384 N 
ATOM     20  H   UNL     1      34.423 -17.438 -20.746  0.00  0.00    -0.089 HD
ATOM     21  H   UNL     1      35.887 -16.911 -21.342  0.00  0.00    -0.089 HD
ATOM     22  H   UNL     1      35.773 -17.453 -19.770  0.00  0.00    -0.089 HD
ENDBRANCH  18  19
ENDBRANCH   4  18
TORSDOF 9
ENDMDL
MODEL 8
REMARK VINA RESULT:      -6.4     12.631     14.136
REMARK  Name = 1021
REMARK  9 active torsions:
REMARK  status: ('A' for Active; 'I' for Inactive)
REMARK    1  A    between atoms: C_2  and  C_13
REMARK    2  A    between atoms: C_3  and  C_7
REMARK    3  A    between atoms: C_4  and  C_18
REMARK    4  A    between atoms: C_7  and  C_8
REMARK    5  A    between atoms: C_8  and  C_10
REMARK    6  A    between atoms: C_10  and  O_11
REMARK    7  A    between atoms: C_13  and  C_15
REMARK    8  A    between atoms: C_15  and  O_16
REMARK    9  A    between atoms: C_18  and  N_19
REMARK                            x       y       z     vdW  Elec       q    Type
REMARK                         _______ _______ _______ _____ _____    ______ ____
ROOT
ATOM      1  N   UNL     1      32.557 -13.741 -23.151  0.00  0.00    -0.317 N 
ATOM      2  C   UNL     1      34.137 -15.237 -23.593  0.00  0.00    -0.007 C 
ATOM      3  C   UNL     1      33.826 -15.275 -22.228  0.00  0.00    -0.010 C 
ATOM      4  C   UNL     1      33.330 -14.270 -24.151  0.00  0.00    -0.001 C 
ATOM      5  C   UNL     1      32.858 -14.355 -21.964  0.00  0.00    +0.057 C 
ATOM      6  H   UNL     1      31.887 -13.028 -23.269  0.00  0.00    +0.152 HD
ENDROOT
BRANCH   3   7
ATOM      7  C   UNL     1      34.456 -16.180 -21.206  0.00  0.00    +0.039 C 
BRANCH   7   8
ATOM      8  C   UNL     1      33.904 -17.609 -21.226  0.00  0.00    +0.114 C 
BRANCH   8  10
ATOM      9  O   UNL     1      36.025 -18.576 -20.514  0.00  0.00    -0.250 OA
ATOM     10  C   UNL     1      34.976 -18.674 -21.134  0.00  0.00    +0.314 C 
BRANCH  10  11
ATOM     11  O   UNL     1      34.648 -19.773 -21.863  0.00  0.00    -0.480 OA
ATOM     12  H   UNL     1      34.235 -19.674 -22.699  0.00  0.00    +0.295 HD
ENDBRANCH  10  11
ENDBRANCH   8  10
ENDBRANCH   7   8
ENDBRANCH   3   7
BRANCH   2  13
ATOM     13  C   UNL     1      35.132 -16.063 -24.309  0.00  0.00    +0.136 C 
BRANCH  13  15
ATOM     14  O   UNL     1      33.625 -17.175 -25.842  0.00  0.00    -0.250 OA
ATOM     15  C   UNL     1      34.487 -17.258 -24.975  0.00  0.00    +0.318 C 
BRANCH  15  16
ATOM     16  O   UNL     1      34.932 -18.440 -24.481  0.00  0.00    -0.480 OA
ATOM     17  H   UNL     1      34.746 -18.677 -23.594  0.00  0.00    +0.295 HD
ENDBRANCH  15  16
ENDBRANCH  13  15
ENDBRANCH   2  13
BRANCH   4  18
ATOM     18  C   UNL     1      33.213 -13.789 -25.541  0.00  0.00    -0.044 C 
BRANCH  18  19
ATOM     19  N   UNL     1      32.312 -14.631 -26.344  0.00  0.00    +0.384 N 
ATOM     20  H   UNL     1      31.531 -14.940 -25.765  0.00  0.00    -0.089 HD
ATOM     21  H   UNL     1      32.823 -15.444 -26.688  0.00  0.00    -0.089 HD
ATOM     22  H   UNL     1      31.957 -14.093 -27.134  0.00  0.00    -0.089 HD
ENDBRANCH  18  19
ENDBRANCH   4  18
TORSDOF 9
ENDMDL
MODEL 9
REMARK VINA RESULT:      -6.4      3.348      5.023
REMARK  Name = 1021
REMARK  9 active torsions:
REMARK  status: ('A' for Active; 'I' for Inactive)
REMARK    1  A    between atoms: C_2  and  C_13
REMARK    2  A    between atoms: C_3  and  C_7
REMARK    3  A    between atoms: C_4  and  C_18
REMARK    4  A    between atoms: C_7  and  C_8
REMARK    5  A    between atoms: C_8  and  C_10
REMARK    6  A    between atoms: C_10  and  O_11
REMARK    7  A    between atoms: C_13  and  C_15
REMARK    8  A    between atoms: C_15  and  O_16
REMARK    9  A    between atoms: C_18  and  N_19
REMARK                            x       y       z     vdW  Elec       q    Type
REMARK                         _______ _______ _______ _____ _____    ______ ____
ROOT
ATOM      1  N   UNL     1      34.284 -23.592 -16.520  0.00  0.00    -0.317 N 
ATOM      2  C   UNL     1      32.813 -23.504 -14.859  0.00  0.00    -0.007 C 
ATOM      3  C   UNL     1      34.052 -23.929 -14.363  0.00  0.00    -0.010 C 
ATOM      4  C   UNL     1      32.982 -23.299 -16.211  0.00  0.00    -0.001 C 
ATOM      5  C   UNL     1      34.949 -23.981 -15.386  0.00  0.00    +0.057 C 
ATOM      6  H   UNL     1      34.681 -23.532 -17.419  0.00  0.00    +0.152 HD
ENDROOT
BRANCH   3   7
ATOM      7  C   UNL     1      34.356 -24.277 -12.933  0.00  0.00    +0.039 C 
BRANCH   7   8
ATOM      8  C   UNL     1      35.631 -23.619 -12.397  0.00  0.00    +0.114 C 
BRANCH   8  10
ATOM      9  O   UNL     1      37.447 -24.401 -10.971  0.00  0.00    -0.250 OA
ATOM     10  C   UNL     1      36.255 -24.365 -11.236  0.00  0.00    +0.314 C 
BRANCH  10  11
ATOM     11  O   UNL     1      35.317 -25.034 -10.515  0.00  0.00    -0.480 OA
ATOM     12  H   UNL     1      34.418 -24.772 -10.558  0.00  0.00    +0.295 HD
ENDBRANCH  10  11
ENDBRANCH   8  10
ENDBRANCH   7   8
ENDBRANCH   3   7
BRANCH   2  13
ATOM     13  C   UNL     1      31.562 -23.309 -14.096  0.00  0.00    +0.136 C 
BRANCH  13  15
ATOM     14  O   UNL     1      30.485 -25.343 -14.845  0.00  0.00    -0.250 OA
ATOM     15  C   UNL     1      30.810 -24.610 -13.919  0.00  0.00    +0.318 C 
BRANCH  15  16
ATOM     16  O   UNL     1      30.493 -24.862 -12.625  0.00  0.00    -0.480 OA
ATOM     17  H   UNL     1      29.875 -24.317 -12.179  0.00  0.00    +0.295 HD
ENDBRANCH  15  16
ENDBRANCH  13  15
ENDBRANCH   2  13
BRANCH   4  18
ATOM     18  C   UNL     1      32.034 -22.851 -17.249  0.00  0.00    -0.044 C 
BRANCH  18  19
ATOM     19  N   UNL     1      32.723 -22.371 -18.457  0.00  0.00    +0.384 N 
ATOM     20  H   UNL     1      33.416 -21.668 -18.196  0.00  0.00    -0.089 HD
ATOM     21  H   UNL     1      32.043 -21.957 -19.095  0.00  0.00    -0.089 HD
ATOM     22  H   UNL     1      33.189 -23.153 -18.917  0.00  0.00    -0.089 HD
ENDBRANCH  18  19
ENDBRANCH   4  18
TORSDOF 9
ENDMDL
