MODEL 1
REMARK VINA RESULT:     -10.1      0.000      0.000
REMARK  Name = 11259
REMARK  4 active torsions:
REMARK  status: ('A' for Active; 'I' for Inactive)
REMARK    1  A    between atoms: S_1  and  C_4
REMARK    2  A    between atoms: S_1  and  N_16
REMARK    3  A    between atoms: C_7  and  N_11
REMARK    4  A    between atoms: N_15  and  C_20
REMARK                            x       y       z     vdW  Elec       q    Type
REMARK                         _______ _______ _______ _____ _____    ______ ____
ROOT
ATOM      1  S   UNL     1      34.251 -22.819 -18.899  0.00  0.00    +0.077 S 
ATOM      2  O   UNL     1      35.301 -22.787 -17.900  0.00  0.00    -0.150 OA
ATOM      3  O   UNL     1      34.212 -23.878 -19.890  0.00  0.00    -0.150 OA
ENDROOT
BRANCH   1   4
ATOM      4  C   UNL     1      34.287 -21.290 -19.785  0.00  0.00    +0.126 C 
ATOM      5  C   UNL     1      35.508 -20.735 -20.126  0.00  0.00    +0.034 C 
ATOM      6  C   UNL     1      33.093 -20.677 -20.123  0.00  0.00    +0.020 C 
ATOM      7  C   UNL     1      35.535 -19.528 -20.825  0.00  0.00    +0.039 C 
ATOM      8  C   UNL     1      34.341 -18.896 -21.173  0.00  0.00    -0.009 C 
ATOM      9  C   UNL     1      33.120 -19.471 -20.822  0.00  0.00    -0.002 C 
ATOM     10  C   UNL     1      34.342 -17.603 -21.922  0.00  0.00    +0.032 C 
BRANCH   7  11
ATOM     11  N   UNL     1      36.781 -18.960 -21.172  0.00  0.00    -0.357 N 
ATOM     12  H   UNL     1      37.366 -18.589 -20.472  0.00  0.00    +0.142 HD
ATOM     13  H   UNL     1      37.065 -18.936 -22.114  0.00  0.00    +0.142 HD
ENDBRANCH   7  11
ENDBRANCH   1   4
BRANCH   1  16
ATOM     14  O   UNL     1      33.397 -23.144 -15.931  0.00  0.00    -0.251 OA
ATOM     15  N   UNL     1      31.166 -22.752 -16.387  0.00  0.00    -0.289 N 
ATOM     16  N   UNL     1      32.729 -22.714 -18.127  0.00  0.00    -0.169 N 
ATOM     17  C   UNL     1      32.497 -22.895 -16.727  0.00  0.00    +0.319 C 
ATOM     18  H   UNL     1      30.518 -22.551 -17.101  0.00  0.00    +0.151 HD
ATOM     19  H   UNL     1      31.949 -22.513 -18.692  0.00  0.00    +0.178 HD
BRANCH  15  20
ATOM     20  C   UNL     1      30.681 -22.883 -15.031  0.00  0.00    +0.073 C 
ATOM     21  C   UNL     1      29.177 -22.603 -14.955  0.00  0.00    +0.020 C 
ATOM     22  C   UNL     1      31.021 -24.262 -14.455  0.00  0.00    +0.020 C 
ATOM     23  C   UNL     1      28.342 -23.722 -15.577  0.00  0.00    +0.002 C 
ATOM     24  C   UNL     1      30.183 -25.378 -15.080  0.00  0.00    +0.002 C 
ATOM     25  C   UNL     1      28.689 -25.083 -14.981  0.00  0.00    +0.000 C 
ENDBRANCH  15  20
ENDBRANCH   1  16
TORSDOF 4
ENDMDL
MODEL 2
REMARK VINA RESULT:      -9.7      3.726      4.850
REMARK  Name = 11259
REMARK  4 active torsions:
REMARK  status: ('A' for Active; 'I' for Inactive)
REMARK    1  A    between atoms: S_1  and  C_4
REMARK    2  A    between atoms: S_1  and  N_16
REMARK    3  A    between atoms: C_7  and  N_11
REMARK    4  A    between atoms: N_15  and  C_20
REMARK                            x       y       z     vdW  Elec       q    Type
REMARK                         _______ _______ _______ _____ _____    ______ ____
ROOT
ATOM      1  S   UNL     1      33.661 -22.983 -18.062  0.00  0.00    +0.077 S 
ATOM      2  O   UNL     1      33.702 -24.250 -18.766  0.00  0.00    -0.150 OA
ATOM      3  O   UNL     1      32.393 -22.412 -17.648  0.00  0.00    -0.150 OA
ENDROOT
BRANCH   1   4
ATOM      4  C   UNL     1      34.465 -21.770 -19.065  0.00  0.00    +0.126 C 
ATOM      5  C   UNL     1      33.700 -20.937 -19.862  0.00  0.00    +0.034 C 
ATOM      6  C   UNL     1      35.846 -21.675 -19.033  0.00  0.00    +0.020 C 
ATOM      7  C   UNL     1      34.336 -19.980 -20.654  0.00  0.00    +0.039 C 
ATOM      8  C   UNL     1      35.727 -19.870 -20.635  0.00  0.00    -0.009 C 
ATOM      9  C   UNL     1      36.481 -20.719 -19.824  0.00  0.00    -0.002 C 
ATOM     10  C   UNL     1      36.433 -18.855 -21.472  0.00  0.00    +0.032 C 
BRANCH   7  11
ATOM     11  N   UNL     1      33.556 -19.130 -21.468  0.00  0.00    -0.357 N 
ATOM     12  H   UNL     1      32.857 -19.510 -22.050  0.00  0.00    +0.142 HD
ATOM     13  H   UNL     1      33.710 -18.157 -21.455  0.00  0.00    +0.142 HD
ENDBRANCH   7  11
ENDBRANCH   1   4
BRANCH   1  16
ATOM     14  O   UNL     1      33.548 -24.584 -15.403  0.00  0.00    -0.251 OA
ATOM     15  N   UNL     1      35.534 -23.695 -14.624  0.00  0.00    -0.289 N 
ATOM     16  N   UNL     1      34.715 -23.047 -16.717  0.00  0.00    -0.169 N 
ATOM     17  C   UNL     1      34.518 -23.846 -15.548  0.00  0.00    +0.319 C 
ATOM     18  H   UNL     1      36.271 -23.078 -14.834  0.00  0.00    +0.151 HD
ATOM     19  H   UNL     1      35.524 -22.486 -16.750  0.00  0.00    +0.178 HD
BRANCH  15  20
ATOM     20  C   UNL     1      35.563 -24.403 -13.364  0.00  0.00    +0.073 C 
ATOM     21  C   UNL     1      36.559 -25.567 -13.410  0.00  0.00    +0.020 C 
ATOM     22  C   UNL     1      35.874 -23.451 -12.204  0.00  0.00    +0.020 C 
ATOM     23  C   UNL     1      38.012 -25.094 -13.409  0.00  0.00    +0.002 C 
ATOM     24  C   UNL     1      37.329 -22.981 -12.207  0.00  0.00    +0.002 C 
ATOM     25  C   UNL     1      38.300 -24.157 -12.241  0.00  0.00    +0.000 C 
ENDBRANCH  15  20
ENDBRANCH   1  16
TORSDOF 4
ENDMDL
MODEL 3
REMARK VINA RESULT:      -9.6      3.288      4.335
REMARK  Name = 11259
REMARK  4 active torsions:
REMARK  status: ('A' for Active; 'I' for Inactive)
REMARK    1  A    between atoms: S_1  and  C_4
REMARK    2  A    between atoms: S_1  and  N_16
REMARK    3  A    between atoms: C_7  and  N_11
REMARK    4  A    between atoms: N_15  and  C_20
REMARK                            x       y       z     vdW  Elec       q    Type
REMARK                         _______ _______ _______ _____ _____    ______ ____
ROOT
ATOM      1  S   UNL     1      33.658 -22.658 -18.778  0.00  0.00    +0.077 S 
ATOM      2  O   UNL     1      33.850 -23.832 -19.607  0.00  0.00    -0.150 OA
ATOM      3  O   UNL     1      32.361 -22.374 -18.194  0.00  0.00    -0.150 OA
ENDROOT
BRANCH   1   4
ATOM      4  C   UNL     1      34.117 -21.236 -19.723  0.00  0.00    +0.126 C 
ATOM      5  C   UNL     1      35.456 -20.917 -19.859  0.00  0.00    +0.034 C 
ATOM      6  C   UNL     1      33.126 -20.468 -20.310  0.00  0.00    +0.020 C 
ATOM      7  C   UNL     1      35.817 -19.795 -20.605  0.00  0.00    +0.039 C 
ATOM      8  C   UNL     1      34.832 -19.009 -21.204  0.00  0.00    -0.009 C 
ATOM      9  C   UNL     1      33.486 -19.345 -21.056  0.00  0.00    -0.002 C 
ATOM     10  C   UNL     1      35.190 -17.801 -22.007  0.00  0.00    +0.032 C 
BRANCH   7  11
ATOM     11  N   UNL     1      37.184 -19.469 -20.743  0.00  0.00    -0.357 N 
ATOM     12  H   UNL     1      37.505 -18.572 -20.491  0.00  0.00    +0.142 HD
ATOM     13  H   UNL     1      37.817 -20.138 -21.090  0.00  0.00    +0.142 HD
ENDBRANCH   7  11
ENDBRANCH   1   4
BRANCH   1  16
ATOM     14  O   UNL     1      33.711 -23.843 -15.908  0.00  0.00    -0.251 OA
ATOM     15  N   UNL     1      35.838 -23.050 -15.472  0.00  0.00    -0.289 N 
ATOM     16  N   UNL     1      34.847 -22.631 -17.550  0.00  0.00    -0.169 N 
ATOM     17  C   UNL     1      34.717 -23.232 -16.258  0.00  0.00    +0.319 C 
ATOM     18  H   UNL     1      36.595 -22.544 -15.845  0.00  0.00    +0.151 HD
ATOM     19  H   UNL     1      35.691 -22.163 -17.747  0.00  0.00    +0.178 HD
BRANCH  15  20
ATOM     20  C   UNL     1      35.950 -23.570 -14.128  0.00  0.00    +0.073 C 
ATOM     21  C   UNL     1      35.490 -25.030 -14.062  0.00  0.00    +0.020 C 
ATOM     22  C   UNL     1      37.376 -23.411 -13.592  0.00  0.00    +0.020 C 
ATOM     23  C   UNL     1      36.480 -25.984 -14.731  0.00  0.00    +0.002 C 
ATOM     24  C   UNL     1      38.362 -24.368 -14.263  0.00  0.00    +0.002 C 
ATOM     25  C   UNL     1      37.889 -25.816 -14.174  0.00  0.00    +0.000 C 
ENDBRANCH  15  20
ENDBRANCH   1  16
TORSDOF 4
ENDMDL
MODEL 4
REMARK VINA RESULT:      -9.4      7.397     10.089
REMARK  Name = 11259
REMARK  4 active torsions:
REMARK  status: ('A' for Active; 'I' for Inactive)
REMARK    1  A    between atoms: S_1  and  C_4
REMARK    2  A    between atoms: S_1  and  N_16
REMARK    3  A    between atoms: C_7  and  N_11
REMARK    4  A    between atoms: N_15  and  C_20
REMARK                            x       y       z     vdW  Elec       q    Type
REMARK                         _______ _______ _______ _____ _____    ______ ____
ROOT
ATOM      1  S   UNL     1      33.388 -13.513 -24.106  0.00  0.00    +0.077 S 
ATOM      2  O   UNL     1      34.304 -12.618 -24.785  0.00  0.00    -0.150 OA
ATOM      3  O   UNL     1      32.290 -14.128 -24.828  0.00  0.00    -0.150 OA
ENDROOT
BRANCH   1   4
ATOM      4  C   UNL     1      32.679 -12.643 -22.740  0.00  0.00    +0.126 C 
ATOM      5  C   UNL     1      32.441 -11.285 -22.854  0.00  0.00    +0.034 C 
ATOM      6  C   UNL     1      32.375 -13.337 -21.582  0.00  0.00    +0.020 C 
ATOM      7  C   UNL     1      31.881 -10.599 -21.776  0.00  0.00    +0.039 C 
ATOM      8  C   UNL     1      31.568 -11.282 -20.600  0.00  0.00    -0.009 C 
ATOM      9  C   UNL     1      31.815 -12.652 -20.504  0.00  0.00    -0.002 C 
ATOM     10  C   UNL     1      30.969 -10.572 -19.431  0.00  0.00    +0.032 C 
BRANCH   7  11
ATOM     11  N   UNL     1      31.639  -9.212 -21.892  0.00  0.00    -0.357 N 
ATOM     12  H   UNL     1      32.275  -8.640 -22.378  0.00  0.00    +0.142 HD
ATOM     13  H   UNL     1      30.832  -8.818 -21.486  0.00  0.00    +0.142 HD
ENDBRANCH   7  11
ENDBRANCH   1   4
BRANCH   1  16
ATOM     14  O   UNL     1      34.283 -16.361 -24.962  0.00  0.00    -0.251 OA
ATOM     15  N   UNL     1      35.338 -16.783 -22.949  0.00  0.00    -0.289 N 
ATOM     16  N   UNL     1      34.278 -14.727 -23.294  0.00  0.00    -0.169 N 
ATOM     17  C   UNL     1      34.612 -16.009 -23.833  0.00  0.00    +0.319 C 
ATOM     18  H   UNL     1      35.552 -16.410 -22.064  0.00  0.00    +0.151 HD
ATOM     19  H   UNL     1      34.585 -14.526 -22.380  0.00  0.00    +0.178 HD
BRANCH  15  20
ATOM     20  C   UNL     1      35.798 -18.117 -23.265  0.00  0.00    +0.073 C 
ATOM     21  C   UNL     1      36.891 -18.568 -22.292  0.00  0.00    +0.020 C 
ATOM     22  C   UNL     1      34.632 -19.111 -23.291  0.00  0.00    +0.020 C 
ATOM     23  C   UNL     1      36.344 -18.869 -20.896  0.00  0.00    +0.002 C 
ATOM     24  C   UNL     1      34.088 -19.409 -21.894  0.00  0.00    +0.002 C 
ATOM     25  C   UNL     1      35.192 -19.868 -20.946  0.00  0.00    +0.000 C 
ENDBRANCH  15  20
ENDBRANCH   1  16
TORSDOF 4
ENDMDL
MODEL 5
REMARK VINA RESULT:      -9.2      7.579     11.343
REMARK  Name = 11259
REMARK  4 active torsions:
REMARK  status: ('A' for Active; 'I' for Inactive)
REMARK    1  A    between atoms: S_1  and  C_4
REMARK    2  A    between atoms: S_1  and  N_16
REMARK    3  A    between atoms: C_7  and  N_11
REMARK    4  A    between atoms: N_15  and  C_20
REMARK                            x       y       z     vdW  Elec       q    Type
REMARK                         _______ _______ _______ _____ _____    ______ ____
ROOT
ATOM      1  S   UNL     1      34.032 -15.415 -21.017  0.00  0.00    +0.077 S 
ATOM      2  O   UNL     1      34.988 -15.511 -19.931  0.00  0.00    -0.150 OA
ATOM      3  O   UNL     1      32.609 -15.377 -20.742  0.00  0.00    -0.150 OA
ENDROOT
BRANCH   1   4
ATOM      4  C   UNL     1      34.306 -16.773 -22.114  0.00  0.00    +0.126 C 
ATOM      5  C   UNL     1      34.440 -16.532 -23.470  0.00  0.00    +0.034 C 
ATOM      6  C   UNL     1      34.383 -18.054 -21.596  0.00  0.00    +0.020 C 
ATOM      7  C   UNL     1      34.656 -17.604 -24.335  0.00  0.00    +0.039 C 
ATOM      8  C   UNL     1      34.736 -18.903 -23.830  0.00  0.00    -0.009 C 
ATOM      9  C   UNL     1      34.599 -19.127 -22.460  0.00  0.00    -0.002 C 
ATOM     10  C   UNL     1      34.966 -20.070 -24.734  0.00  0.00    +0.032 C 
BRANCH   7  11
ATOM     11  N   UNL     1      34.792 -17.358 -25.719  0.00  0.00    -0.357 N 
ATOM     12  H   UNL     1      35.673 -17.132 -26.095  0.00  0.00    +0.142 HD
ATOM     13  H   UNL     1      34.005 -17.413 -26.308  0.00  0.00    +0.142 HD
ENDBRANCH   7  11
ENDBRANCH   1   4
BRANCH   1  16
ATOM     14  O   UNL     1      32.363 -13.705 -23.002  0.00  0.00    -0.251 OA
ATOM     15  N   UNL     1      34.163 -12.378 -23.586  0.00  0.00    -0.289 N 
ATOM     16  N   UNL     1      34.447 -14.094 -22.022  0.00  0.00    -0.169 N 
ATOM     17  C   UNL     1      33.548 -13.405 -22.896  0.00  0.00    +0.319 C 
ATOM     18  H   UNL     1      35.121 -12.216 -23.431  0.00  0.00    +0.151 HD
ATOM     19  H   UNL     1      35.381 -13.784 -21.998  0.00  0.00    +0.178 HD
BRANCH  15  20
ATOM     20  C   UNL     1      33.462 -11.531 -24.525  0.00  0.00    +0.073 C 
ATOM     21  C   UNL     1      32.947 -10.260 -23.842  0.00  0.00    +0.020 C 
ATOM     22  C   UNL     1      34.346 -11.195 -25.731  0.00  0.00    +0.020 C 
ATOM     23  C   UNL     1      34.072  -9.287 -23.493  0.00  0.00    +0.002 C 
ATOM     24  C   UNL     1      35.470 -10.220 -25.377  0.00  0.00    +0.002 C 
ATOM     25  C   UNL     1      34.932  -8.958 -24.709  0.00  0.00    +0.000 C 
ENDBRANCH  15  20
ENDBRANCH   1  16
TORSDOF 4
ENDMDL
MODEL 6
REMARK VINA RESULT:      -9.2      3.063      7.636
REMARK  Name = 11259
REMARK  4 active torsions:
REMARK  status: ('A' for Active; 'I' for Inactive)
REMARK    1  A    between atoms: S_1  and  C_4
REMARK    2  A    between atoms: S_1  and  N_16
REMARK    3  A    between atoms: C_7  and  N_11
REMARK    4  A    between atoms: N_15  and  C_20
REMARK                            x       y       z     vdW  Elec       q    Type
REMARK                         _______ _______ _______ _____ _____    ______ ____
ROOT
ATOM      1  S   UNL     1      33.511 -23.012 -18.072  0.00  0.00    +0.077 S 
ATOM      2  O   UNL     1      32.189 -22.697 -17.565  0.00  0.00    -0.150 OA
ATOM      3  O   UNL     1      33.729 -24.211 -18.860  0.00  0.00    -0.150 OA
ENDROOT
BRANCH   1   4
ATOM      4  C   UNL     1      34.623 -23.091 -16.701  0.00  0.00    +0.126 C 
ATOM      5  C   UNL     1      34.247 -23.784 -15.564  0.00  0.00    +0.034 C 
ATOM      6  C   UNL     1      35.850 -22.457 -16.790  0.00  0.00    +0.020 C 
ATOM      7  C   UNL     1      35.125 -23.845 -14.482  0.00  0.00    +0.039 C 
ATOM      8  C   UNL     1      36.367 -23.212 -14.554  0.00  0.00    -0.009 C 
ATOM      9  C   UNL     1      36.729 -22.518 -15.708  0.00  0.00    -0.002 C 
ATOM     10  C   UNL     1      37.326 -23.262 -13.410  0.00  0.00    +0.032 C 
BRANCH   7  11
ATOM     11  N   UNL     1      34.741 -24.553 -13.321  0.00  0.00    -0.357 N 
ATOM     12  H   UNL     1      35.152 -25.424 -13.117  0.00  0.00    +0.142 HD
ATOM     13  H   UNL     1      34.063 -24.174 -12.716  0.00  0.00    +0.142 HD
ENDBRANCH   7  11
ENDBRANCH   1   4
BRANCH   1  16
ATOM     14  O   UNL     1      32.420 -21.392 -20.487  0.00  0.00    -0.251 OA
ATOM     15  N   UNL     1      34.230 -19.953 -20.514  0.00  0.00    -0.289 N 
ATOM     16  N   UNL     1      34.130 -21.662 -18.919  0.00  0.00    -0.169 N 
ATOM     17  C   UNL     1      33.498 -21.021 -20.031  0.00  0.00    +0.319 C 
ATOM     18  H   UNL     1      35.084 -19.735 -20.078  0.00  0.00    +0.151 HD
ATOM     19  H   UNL     1      34.992 -21.295 -18.616  0.00  0.00    +0.178 HD
BRANCH  15  20
ATOM     20  C   UNL     1      33.796 -19.143 -21.630  0.00  0.00    +0.073 C 
ATOM     21  C   UNL     1      33.661 -17.672 -21.223  0.00  0.00    +0.020 C 
ATOM     22  C   UNL     1      34.739 -19.305 -22.828  0.00  0.00    +0.020 C 
ATOM     23  C   UNL     1      35.016 -17.001 -21.000  0.00  0.00    +0.002 C 
ATOM     24  C   UNL     1      36.092 -18.631 -22.600  0.00  0.00    +0.002 C 
ATOM     25  C   UNL     1      35.933 -17.165 -22.208  0.00  0.00    +0.000 C 
ENDBRANCH  15  20
ENDBRANCH   1  16
TORSDOF 4
ENDMDL
MODEL 7
REMARK VINA RESULT:      -8.8      2.353      3.118
REMARK  Name = 11259
REMARK  4 active torsions:
REMARK  status: ('A' for Active; 'I' for Inactive)
REMARK    1  A    between atoms: S_1  and  C_4
REMARK    2  A    between atoms: S_1  and  N_16
REMARK    3  A    between atoms: C_7  and  N_11
REMARK    4  A    between atoms: N_15  and  C_20
REMARK                            x       y       z     vdW  Elec       q    Type
REMARK                         _______ _______ _______ _____ _____    ______ ____
ROOT
ATOM      1  S   UNL     1      35.242 -23.638 -15.584  0.00  0.00    +0.077 S 
ATOM      2  O   UNL     1      35.383 -22.709 -14.480  0.00  0.00    -0.150 OA
ATOM      3  O   UNL     1      36.169 -24.742 -15.738  0.00  0.00    -0.150 OA
ENDROOT
BRANCH   1   4
ATOM      4  C   UNL     1      35.290 -22.714 -17.090  0.00  0.00    +0.126 C 
ATOM      5  C   UNL     1      34.154 -22.644 -17.877  0.00  0.00    +0.034 C 
ATOM      6  C   UNL     1      36.464 -22.077 -17.454  0.00  0.00    +0.020 C 
ATOM      7  C   UNL     1      34.193 -21.915 -19.065  0.00  0.00    +0.039 C 
ATOM      8  C   UNL     1      35.368 -21.267 -19.448  0.00  0.00    -0.009 C 
ATOM      9  C   UNL     1      36.503 -21.348 -18.642  0.00  0.00    -0.002 C 
ATOM     10  C   UNL     1      35.437 -20.479 -20.716  0.00  0.00    +0.032 C 
BRANCH   7  11
ATOM     11  N   UNL     1      33.034 -21.844 -19.869  0.00  0.00    -0.357 N 
ATOM     12  H   UNL     1      32.424 -22.615 -19.924  0.00  0.00    +0.142 HD
ATOM     13  H   UNL     1      32.836 -21.022 -20.375  0.00  0.00    +0.142 HD
ENDBRANCH   7  11
ENDBRANCH   1   4
BRANCH   1  16
ATOM     14  O   UNL     1      32.624 -22.663 -14.227  0.00  0.00    -0.251 OA
ATOM     15  N   UNL     1      31.355 -24.366 -15.140  0.00  0.00    -0.289 N 
ATOM     16  N   UNL     1      33.641 -24.238 -15.619  0.00  0.00    -0.169 N 
ATOM     17  C   UNL     1      32.527 -23.667 -14.926  0.00  0.00    +0.319 C 
ATOM     18  H   UNL     1      31.381 -25.160 -15.719  0.00  0.00    +0.151 HD
ATOM     19  H   UNL     1      33.472 -25.043 -16.161  0.00  0.00    +0.178 HD
BRANCH  15  20
ATOM     20  C   UNL     1      30.091 -23.980 -14.551  0.00  0.00    +0.073 C 
ATOM     21  C   UNL     1      29.699 -22.560 -14.970  0.00  0.00    +0.020 C 
ATOM     22  C   UNL     1      28.990 -24.987 -14.901  0.00  0.00    +0.020 C 
ATOM     23  C   UNL     1      29.273 -22.479 -16.436  0.00  0.00    +0.002 C 
ATOM     24  C   UNL     1      28.566 -24.902 -16.368  0.00  0.00    +0.002 C 
ATOM     25  C   UNL     1      28.170 -23.481 -16.758  0.00  0.00    +0.000 C 
ENDBRANCH  15  20
ENDBRANCH   1  16
TORSDOF 4
ENDMDL
MODEL 8
REMARK VINA RESULT:      -8.4     10.881     14.174
REMARK  Name = 11259
REMARK  4 active torsions:
REMARK  status: ('A' for Active; 'I' for Inactive)
REMARK    1  A    between atoms: S_1  and  C_4
REMARK    2  A    between atoms: S_1  and  N_16
REMARK    3  A    between atoms: C_7  and  N_11
REMARK    4  A    between atoms: N_15  and  C_20
REMARK                            x       y       z     vdW  Elec       q    Type
REMARK                         _______ _______ _______ _____ _____    ______ ____
ROOT
ATOM      1  S   UNL     1      32.528  -8.083 -22.321  0.00  0.00    +0.077 S 
ATOM      2  O   UNL     1      31.080  -8.005 -22.297  0.00  0.00    -0.150 OA
ATOM      3  O   UNL     1      33.305  -7.685 -21.163  0.00  0.00    -0.150 OA
ENDROOT
BRANCH   1   4
ATOM      4  C   UNL     1      33.108  -7.119 -23.684  0.00  0.00    +0.126 C 
ATOM      5  C   UNL     1      32.272  -6.171 -24.247  0.00  0.00    +0.034 C 
ATOM      6  C   UNL     1      34.389  -7.331 -24.164  0.00  0.00    +0.020 C 
ATOM      7  C   UNL     1      32.731  -5.411 -25.322  0.00  0.00    +0.039 C 
ATOM      8  C   UNL     1      34.019  -5.610 -25.819  0.00  0.00    -0.009 C 
ATOM      9  C   UNL     1      34.848  -6.571 -25.239  0.00  0.00    -0.002 C 
ATOM     10  C   UNL     1      34.536  -4.810 -26.970  0.00  0.00    +0.032 C 
BRANCH   7  11
ATOM     11  N   UNL     1      31.877  -4.444 -25.897  0.00  0.00    -0.357 N 
ATOM     12  H   UNL     1      32.257  -3.633 -26.307  0.00  0.00    +0.142 HD
ATOM     13  H   UNL     1      30.902  -4.580 -25.888  0.00  0.00    +0.142 HD
ENDBRANCH   7  11
ENDBRANCH   1   4
BRANCH   1  16
ATOM     14  O   UNL     1      31.135 -10.848 -22.074  0.00  0.00    -0.251 OA
ATOM     15  N   UNL     1      32.872 -11.969 -23.106  0.00  0.00    -0.289 N 
ATOM     16  N   UNL     1      33.003  -9.653 -22.805  0.00  0.00    -0.169 N 
ATOM     17  C   UNL     1      32.237 -10.846 -22.614  0.00  0.00    +0.319 C 
ATOM     18  H   UNL     1      33.757 -11.863 -23.523  0.00  0.00    +0.151 HD
ATOM     19  H   UNL     1      33.876  -9.744 -23.251  0.00  0.00    +0.178 HD
BRANCH  15  20
ATOM     20  C   UNL     1      32.296 -13.294 -23.036  0.00  0.00    +0.073 C 
ATOM     21  C   UNL     1      33.034 -14.265 -23.963  0.00  0.00    +0.020 C 
ATOM     22  C   UNL     1      32.273 -13.810 -21.594  0.00  0.00    +0.020 C 
ATOM     23  C   UNL     1      34.427 -14.623 -23.444  0.00  0.00    +0.002 C 
ATOM     24  C   UNL     1      33.668 -14.168 -21.079  0.00  0.00    +0.002 C 
ATOM     25  C   UNL     1      34.378 -15.145 -22.011  0.00  0.00    +0.000 C 
ENDBRANCH  15  20
ENDBRANCH   1  16
TORSDOF 4
ENDMDL
MODEL 9
REMARK VINA RESULT:      -8.4      9.821     14.022
REMARK  Name = 11259
REMARK  4 active torsions:
REMARK  status: ('A' for Active; 'I' for Inactive)
REMARK    1  A    between atoms: S_1  and  C_4
REMARK    2  A    between atoms: S_1  and  N_16
REMARK    3  A    between atoms: C_7  and  N_11
REMARK    4  A    between atoms: N_15  and  C_20
REMARK                            x       y       z     vdW  Elec       q    Type
REMARK                         _______ _______ _______ _____ _____    ______ ____
ROOT
ATOM      1  S   UNL     1      31.392 -11.417 -20.847  0.00  0.00    +0.077 S 
ATOM      2  O   UNL     1      32.013 -11.107 -19.574  0.00  0.00    -0.150 OA
ATOM      3  O   UNL     1      29.966 -11.669 -20.926  0.00  0.00    -0.150 OA
ENDROOT
BRANCH   1   4
ATOM      4  C   UNL     1      32.201 -12.836 -21.522  0.00  0.00    +0.126 C 
ATOM      5  C   UNL     1      32.370 -12.930 -22.893  0.00  0.00    +0.034 C 
ATOM      6  C   UNL     1      32.652 -13.827 -20.668  0.00  0.00    +0.020 C 
ATOM      7  C   UNL     1      33.009 -14.049 -23.425  0.00  0.00    +0.039 C 
ATOM      8  C   UNL     1      33.470 -15.058 -22.579  0.00  0.00    -0.009 C 
ATOM      9  C   UNL     1      33.291 -14.947 -21.200  0.00  0.00    -0.002 C 
ATOM     10  C   UNL     1      34.157 -16.268 -23.122  0.00  0.00    +0.032 C 
BRANCH   7  11
ATOM     11  N   UNL     1      33.180 -14.146 -24.824  0.00  0.00    -0.357 N 
ATOM     12  H   UNL     1      32.627 -13.598 -25.427  0.00  0.00    +0.142 HD
ATOM     13  H   UNL     1      33.853 -14.761 -25.196  0.00  0.00    +0.142 HD
ENDBRANCH   7  11
ENDBRANCH   1   4
BRANCH   1  16
ATOM     14  O   UNL     1      32.442  -8.512 -20.528  0.00  0.00    -0.251 OA
ATOM     15  N   UNL     1      32.555  -8.157 -22.810  0.00  0.00    -0.289 N 
ATOM     16  N   UNL     1      31.818 -10.221 -21.992  0.00  0.00    -0.169 N 
ATOM     17  C   UNL     1      32.290  -8.907 -21.680  0.00  0.00    +0.319 C 
ATOM     18  H   UNL     1      32.402  -8.566 -23.691  0.00  0.00    +0.151 HD
ATOM     19  H   UNL     1      31.730 -10.456 -22.944  0.00  0.00    +0.178 HD
BRANCH  15  20
ATOM     20  C   UNL     1      33.049  -6.799 -22.754  0.00  0.00    +0.073 C 
ATOM     21  C   UNL     1      33.321  -6.254 -24.160  0.00  0.00    +0.020 C 
ATOM     22  C   UNL     1      32.084  -5.893 -21.983  0.00  0.00    +0.020 C 
ATOM     23  C   UNL     1      32.035  -5.970 -24.935  0.00  0.00    +0.002 C 
ATOM     24  C   UNL     1      30.799  -5.610 -22.763  0.00  0.00    +0.002 C 
ATOM     25  C   UNL     1      31.095  -5.058 -24.154  0.00  0.00    +0.000 C 
ENDBRANCH  15  20
ENDBRANCH   1  16
TORSDOF 4
ENDMDL
