MODEL 1
REMARK VINA RESULT:      -4.3      0.000      0.000
REMARK  Name = 3562
REMARK  1 active torsions:
REMARK  status: ('A' for Active; 'I' for Inactive)
REMARK    1  A    between atoms: C_4  and  C_7
REMARK                            x       y       z     vdW  Elec       q    Type
REMARK                         _______ _______ _______ _____ _____    ______ ____
ROOT
ATOM      1  F   UNL     1      36.983 -18.313 -22.295  0.00  0.00    -0.168 F 
ATOM      2  F   UNL     1      35.560 -17.643 -20.782  0.00  0.00    -0.168 F 
ATOM      3  F   UNL     1      36.806 -19.400 -20.420  0.00  0.00    -0.168 F 
ATOM      4  C   UNL     1      36.098 -18.738 -21.363  0.00  0.00    +0.421 C 
ENDROOT
BRANCH   4   7
ATOM      5 BR   UNL     1      33.477 -19.714 -20.841  0.00  0.00    -0.055 Br
ATOM      6 CL   UNL     1      34.571 -19.034 -23.586  0.00  0.00    -0.093 Cl
ATOM      7  C   UNL     1      35.050 -19.629 -21.986  0.00  0.00    +0.230 C 
ENDBRANCH   4   7
TORSDOF 1
ENDMDL
MODEL 2
REMARK VINA RESULT:      -4.3      2.047      2.223
REMARK  Name = 3562
REMARK  1 active torsions:
REMARK  status: ('A' for Active; 'I' for Inactive)
REMARK    1  A    between atoms: C_4  and  C_7
REMARK                            x       y       z     vdW  Elec       q    Type
REMARK                         _______ _______ _______ _____ _____    ______ ____
ROOT
ATOM      1  F   UNL     1      34.820 -19.782 -23.142  0.00  0.00    -0.168 F 
ATOM      2  F   UNL     1      34.352 -17.769 -22.443  0.00  0.00    -0.168 F 
ATOM      3  F   UNL     1      36.398 -18.525 -22.332  0.00  0.00    -0.168 F 
ATOM      4  C   UNL     1      35.097 -18.866 -22.186  0.00  0.00    +0.421 C 
ENDROOT
BRANCH   4   7
ATOM      5 BR   UNL     1      32.988 -20.039 -20.680  0.00  0.00    -0.055 Br
ATOM      6 CL   UNL     1      35.917 -20.784 -20.452  0.00  0.00    -0.093 Cl
ATOM      7  C   UNL     1      34.832 -19.429 -20.810  0.00  0.00    +0.230 C 
ENDBRANCH   4   7
TORSDOF 1
ENDMDL
MODEL 3
REMARK VINA RESULT:      -4.3      2.038      2.409
REMARK  Name = 3562
REMARK  1 active torsions:
REMARK  status: ('A' for Active; 'I' for Inactive)
REMARK    1  A    between atoms: C_4  and  C_7
REMARK                            x       y       z     vdW  Elec       q    Type
REMARK                         _______ _______ _______ _____ _____    ______ ____
ROOT
ATOM      1  F   UNL     1      34.439 -17.766 -22.284  0.00  0.00    -0.168 F 
ATOM      2  F   UNL     1      36.455 -18.598 -22.250  0.00  0.00    -0.168 F 
ATOM      3  F   UNL     1      34.804 -19.749 -23.099  0.00  0.00    -0.168 F 
ATOM      4  C   UNL     1      35.148 -18.904 -22.100  0.00  0.00    +0.421 C 
ENDROOT
BRANCH   4   7
ATOM      5 BR   UNL     1      32.990 -20.066 -20.656  0.00  0.00    -0.055 Br
ATOM      6 CL   UNL     1      35.894 -20.907 -20.430  0.00  0.00    -0.093 Cl
ATOM      7  C   UNL     1      34.853 -19.507 -20.748  0.00  0.00    +0.230 C 
ENDBRANCH   4   7
TORSDOF 1
ENDMDL
MODEL 4
REMARK VINA RESULT:      -4.3      1.797      2.075
REMARK  Name = 3562
REMARK  1 active torsions:
REMARK  status: ('A' for Active; 'I' for Inactive)
REMARK    1  A    between atoms: C_4  and  C_7
REMARK                            x       y       z     vdW  Elec       q    Type
REMARK                         _______ _______ _______ _____ _____    ______ ____
ROOT
ATOM      1  F   UNL     1      37.162 -18.734 -21.385  0.00  0.00    -0.168 F 
ATOM      2  F   UNL     1      35.642 -18.134 -22.831  0.00  0.00    -0.168 F 
ATOM      3  F   UNL     1      35.424 -17.608 -20.722  0.00  0.00    -0.168 F 
ATOM      4  C   UNL     1      35.830 -18.581 -21.570  0.00  0.00    +0.421 C 
ENDROOT
BRANCH   4   7
ATOM      5 BR   UNL     1      36.072 -20.939 -19.998  0.00  0.00    -0.055 Br
ATOM      6 CL   UNL     1      33.459 -19.575 -20.705  0.00  0.00    -0.093 Cl
ATOM      7  C   UNL     1      35.100 -19.875 -21.306  0.00  0.00    +0.230 C 
ENDBRANCH   4   7
TORSDOF 1
ENDMDL
MODEL 5
REMARK VINA RESULT:      -4.2      1.770      2.098
REMARK  Name = 3562
REMARK  1 active torsions:
REMARK  status: ('A' for Active; 'I' for Inactive)
REMARK    1  A    between atoms: C_4  and  C_7
REMARK                            x       y       z     vdW  Elec       q    Type
REMARK                         _______ _______ _______ _____ _____    ______ ____
ROOT
ATOM      1  F   UNL     1      34.367 -16.856 -22.574  0.00  0.00    -0.168 F 
ATOM      2  F   UNL     1      33.085 -17.201 -20.842  0.00  0.00    -0.168 F 
ATOM      3  F   UNL     1      35.224 -16.845 -20.575  0.00  0.00    -0.168 F 
ATOM      4  C   UNL     1      34.307 -17.454 -21.362  0.00  0.00    +0.421 C 
ENDROOT
BRANCH   4   7
ATOM      5 BR   UNL     1      33.103 -19.953 -20.731  0.00  0.00    -0.055 Br
ATOM      6 CL   UNL     1      34.818 -19.410 -23.170  0.00  0.00    -0.093 Cl
ATOM      7  C   UNL     1      34.583 -18.933 -21.479  0.00  0.00    +0.230 C 
ENDBRANCH   4   7
TORSDOF 1
ENDMDL
MODEL 6
REMARK VINA RESULT:      -4.2      2.161      2.504
REMARK  Name = 3562
REMARK  1 active torsions:
REMARK  status: ('A' for Active; 'I' for Inactive)
REMARK    1  A    between atoms: C_4  and  C_7
REMARK                            x       y       z     vdW  Elec       q    Type
REMARK                         _______ _______ _______ _____ _____    ______ ____
ROOT
ATOM      1  F   UNL     1      35.009 -19.741 -23.565  0.00  0.00    -0.168 F 
ATOM      2  F   UNL     1      35.126 -17.640 -24.144  0.00  0.00    -0.168 F 
ATOM      3  F   UNL     1      36.561 -18.472 -22.723  0.00  0.00    -0.168 F 
ATOM      4  C   UNL     1      35.264 -18.494 -23.106  0.00  0.00    +0.421 C 
ENDROOT
BRANCH   4   7
ATOM      5 BR   UNL     1      33.960 -19.742 -20.907  0.00  0.00    -0.055 Br
ATOM      6 CL   UNL     1      35.078 -16.924 -20.901  0.00  0.00    -0.093 Cl
ATOM      7  C   UNL     1      34.349 -18.148 -21.956  0.00  0.00    +0.230 C 
ENDBRANCH   4   7
TORSDOF 1
ENDMDL
MODEL 7
REMARK VINA RESULT:      -4.2      2.149      2.645
REMARK  Name = 3562
REMARK  1 active torsions:
REMARK  status: ('A' for Active; 'I' for Inactive)
REMARK    1  A    between atoms: C_4  and  C_7
REMARK                            x       y       z     vdW  Elec       q    Type
REMARK                         _______ _______ _______ _____ _____    ______ ____
ROOT
ATOM      1  F   UNL     1      36.240 -21.991 -20.632  0.00  0.00    -0.168 F 
ATOM      2  F   UNL     1      36.929 -20.139 -19.705  0.00  0.00    -0.168 F 
ATOM      3  F   UNL     1      35.134 -21.139 -18.964  0.00  0.00    -0.168 F 
ATOM      4  C   UNL     1      35.828 -20.825 -20.082  0.00  0.00    +0.421 C 
ENDROOT
BRANCH   4   7
ATOM      5 BR   UNL     1      33.100 -20.158 -20.538  0.00  0.00    -0.055 Br
ATOM      6 CL   UNL     1      35.459 -18.342 -21.111  0.00  0.00    -0.093 Cl
ATOM      7  C   UNL     1      34.974 -20.046 -21.054  0.00  0.00    +0.230 C 
ENDBRANCH   4   7
TORSDOF 1
ENDMDL
MODEL 8
REMARK VINA RESULT:      -4.1      2.219      2.738
REMARK  Name = 3562
REMARK  1 active torsions:
REMARK  status: ('A' for Active; 'I' for Inactive)
REMARK    1  A    between atoms: C_4  and  C_7
REMARK                            x       y       z     vdW  Elec       q    Type
REMARK                         _______ _______ _______ _____ _____    ______ ____
ROOT
ATOM      1  F   UNL     1      33.967 -18.251 -21.119  0.00  0.00    -0.168 F 
ATOM      2  F   UNL     1      36.090 -18.503 -20.683  0.00  0.00    -0.168 F 
ATOM      3  F   UNL     1      35.150 -16.542 -20.479  0.00  0.00    -0.168 F 
ATOM      4  C   UNL     1      35.182 -17.666 -21.231  0.00  0.00    +0.421 C 
ENDROOT
BRANCH   4   7
ATOM      5 BR   UNL     1      34.853 -18.781 -23.827  0.00  0.00    -0.055 Br
ATOM      6 CL   UNL     1      34.742 -15.823 -23.172  0.00  0.00    -0.093 Cl
ATOM      7  C   UNL     1      35.494 -17.350 -22.674  0.00  0.00    +0.230 C 
ENDBRANCH   4   7
TORSDOF 1
ENDMDL
MODEL 9
REMARK VINA RESULT:      -4.1      8.808      9.048
REMARK  Name = 3562
REMARK  1 active torsions:
REMARK  status: ('A' for Active; 'I' for Inactive)
REMARK    1  A    between atoms: C_4  and  C_7
REMARK                            x       y       z     vdW  Elec       q    Type
REMARK                         _______ _______ _______ _____ _____    ______ ____
ROOT
ATOM      1  F   UNL     1      42.843 -13.147 -18.008  0.00  0.00    -0.168 F 
ATOM      2  F   UNL     1      40.793 -13.855 -18.244  0.00  0.00    -0.168 F 
ATOM      3  F   UNL     1      41.464 -13.050 -16.329  0.00  0.00    -0.168 F 
ATOM      4  C   UNL     1      41.836 -13.805 -17.387  0.00  0.00    +0.421 C 
ENDROOT
BRANCH   4   7
ATOM      5 BR   UNL     1      41.138 -15.829 -15.515  0.00  0.00    -0.055 Br
ATOM      6 CL   UNL     1      42.233 -16.330 -18.296  0.00  0.00    -0.093 Cl
ATOM      7  C   UNL     1      42.282 -15.179 -16.949  0.00  0.00    +0.230 C 
ENDBRANCH   4   7
TORSDOF 1
ENDMDL
