MODEL 1
REMARK VINA RESULT:      -9.4      0.000      0.000
REMARK  Name = 5357
REMARK  7 active torsions:
REMARK  status: ('A' for Active; 'I' for Inactive)
REMARK    1  A    between atoms: N_2  and  C_18
REMARK    2  A    between atoms: C_3  and  C_5
REMARK    3  A    between atoms: C_7  and  S_11
REMARK    4  A    between atoms: C_8  and  O_16
REMARK    5  A    between atoms: S_11  and  C_14
REMARK    6  A    between atoms: C_18  and  C_20
REMARK    7  A    between atoms: N_19  and  C_25
REMARK                            x       y       z     vdW  Elec       q    Type
REMARK                         _______ _______ _______ _____ _____    ______ ____
ROOT
ATOM      1  O   UNL     1      37.470 -20.797 -16.762  0.00  0.00    -0.270 OA
ATOM      2  N   UNL     1      36.348 -21.815 -18.519  0.00  0.00    -0.303 N 
ATOM      3  C   UNL     1      36.818 -21.736 -17.211  0.00  0.00    +0.249 C 
ATOM      4  H   UNL     1      35.832 -22.610 -18.787  0.00  0.00    +0.150 HD
ENDROOT
BRANCH   3   5
ATOM      5  C   UNL     1      36.512 -22.894 -16.331  0.00  0.00    +0.089 C 
ATOM      6  C   UNL     1      37.568 -23.537 -15.715  0.00  0.00    +0.026 C 
ATOM      7  C   UNL     1      37.301 -24.627 -14.885  0.00  0.00    +0.106 C 
ATOM      8  C   UNL     1      35.203 -23.293 -16.151  0.00  0.00    +0.143 C 
ATOM      9  C   UNL     1      35.987 -25.049 -14.688  0.00  0.00    +0.021 C 
ATOM     10  C   UNL     1      34.938 -24.382 -15.321  0.00  0.00    +0.038 C 
BRANCH   7  11
ATOM     11  S   UNL     1      38.614 -25.461 -14.093  0.00  0.00    +0.009 S 
ATOM     12  O   UNL     1      38.590 -26.850 -14.530  0.00  0.00    -0.169 OA
ATOM     13  O   UNL     1      39.832 -24.677 -14.244  0.00  0.00    -0.169 OA
BRANCH  11  14
ATOM     14  C   UNL     1      38.184 -25.424 -12.367  0.00  0.00    +0.156 C 
ATOM     15  C   UNL     1      38.119 -24.007 -11.843  0.00  0.00    +0.028 C 
ENDBRANCH  11  14
ENDBRANCH   7  11
BRANCH   8  16
ATOM     16  O   UNL     1      34.165 -22.654 -16.760  0.00  0.00    -0.471 OA
ATOM     17  C   UNL     1      32.927 -23.358 -16.840  0.00  0.00    +0.252 C 
ENDBRANCH   8  16
ENDBRANCH   3   5
BRANCH   2  18
ATOM     18  C   UNL     1      36.582 -20.791 -19.493  0.00  0.00    +0.069 C 
BRANCH  18  20
ATOM     19  N   UNL     1      35.040 -19.220 -20.682  0.00  0.00    +0.389 N 
ATOM     20  C   UNL     1      35.380 -20.624 -20.415  0.00  0.00    -0.038 C 
ATOM     21  C   UNL     1      34.098 -21.165 -19.780  0.00  0.00    -0.021 C 
ATOM     22  C   UNL     1      32.981 -20.267 -20.300  0.00  0.00    -0.025 C 
ATOM     23  C   UNL     1      33.670 -19.256 -21.200  0.00  0.00    -0.077 C 
ATOM     24  H   UNL     1      35.123 -18.662 -19.833  0.00  0.00    -0.080 HD
BRANCH  19  25
ATOM     25  C   UNL     1      35.949 -18.574 -21.620  0.00  0.00    -0.077 C 
ATOM     26  C   UNL     1      35.416 -18.631 -23.037  0.00  0.00    -0.025 C 
ENDBRANCH  19  25
ENDBRANCH  18  20
ENDBRANCH   2  18
TORSDOF 7
ENDMDL
MODEL 2
REMARK VINA RESULT:      -9.2      2.995      5.264
REMARK  Name = 5357
REMARK  7 active torsions:
REMARK  status: ('A' for Active; 'I' for Inactive)
REMARK    1  A    between atoms: N_2  and  C_18
REMARK    2  A    between atoms: C_3  and  C_5
REMARK    3  A    between atoms: C_7  and  S_11
REMARK    4  A    between atoms: C_8  and  O_16
REMARK    5  A    between atoms: S_11  and  C_14
REMARK    6  A    between atoms: C_18  and  C_20
REMARK    7  A    between atoms: N_19  and  C_25
REMARK                            x       y       z     vdW  Elec       q    Type
REMARK                         _______ _______ _______ _____ _____    ______ ____
ROOT
ATOM      1  O   UNL     1      34.109 -23.770 -19.483  0.00  0.00    -0.270 OA
ATOM      2  N   UNL     1      34.942 -21.740 -18.730  0.00  0.00    -0.303 N 
ATOM      3  C   UNL     1      34.223 -22.925 -18.599  0.00  0.00    +0.249 C 
ATOM      4  H   UNL     1      34.975 -21.123 -17.962  0.00  0.00    +0.150 HD
ENDROOT
BRANCH   3   5
ATOM      5  C   UNL     1      33.538 -23.140 -17.298  0.00  0.00    +0.089 C 
ATOM      6  C   UNL     1      32.167 -22.979 -17.251  0.00  0.00    +0.026 C 
ATOM      7  C   UNL     1      31.506 -23.177 -16.039  0.00  0.00    +0.106 C 
ATOM      8  C   UNL     1      34.275 -23.489 -16.184  0.00  0.00    +0.143 C 
ATOM      9  C   UNL     1      32.229 -23.530 -14.900  0.00  0.00    +0.021 C 
ATOM     10  C   UNL     1      33.613 -23.686 -14.972  0.00  0.00    +0.038 C 
BRANCH   7  11
ATOM     11  S   UNL     1      29.774 -22.981 -15.947  0.00  0.00    +0.009 S 
ATOM     12  O   UNL     1      29.454 -22.425 -14.641  0.00  0.00    -0.169 OA
ATOM     13  O   UNL     1      29.310 -22.309 -17.153  0.00  0.00    -0.169 OA
BRANCH  11  14
ATOM     14  C   UNL     1      29.139 -24.642 -16.004  0.00  0.00    +0.156 C 
ATOM     15  C   UNL     1      29.061 -25.253 -14.624  0.00  0.00    +0.028 C 
ENDBRANCH  11  14
ENDBRANCH   7  11
BRANCH   8  16
ATOM     16  O   UNL     1      35.628 -23.647 -16.235  0.00  0.00    -0.471 OA
ATOM     17  C   UNL     1      36.419 -22.692 -15.531  0.00  0.00    +0.252 C 
ENDBRANCH   8  16
ENDBRANCH   3   5
BRANCH   2  18
ATOM     18  C   UNL     1      35.635 -21.379 -19.930  0.00  0.00    +0.069 C 
BRANCH  18  20
ATOM     19  N   UNL     1      35.118 -19.052 -20.693  0.00  0.00    +0.389 N 
ATOM     20  C   UNL     1      34.778 -20.478 -20.810  0.00  0.00    -0.038 C 
ATOM     21  C   UNL     1      33.307 -20.507 -20.390  0.00  0.00    -0.021 C 
ATOM     22  C   UNL     1      32.777 -19.107 -20.680  0.00  0.00    -0.025 C 
ATOM     23  C   UNL     1      33.961 -18.342 -21.245  0.00  0.00    -0.077 C 
ATOM     24  H   UNL     1      35.301 -18.805 -19.721  0.00  0.00    -0.080 HD
BRANCH  19  25
ATOM     25  C   UNL     1      36.347 -18.694 -21.388  0.00  0.00    -0.077 C 
ATOM     26  C   UNL     1      36.077 -18.301 -22.826  0.00  0.00    -0.025 C 
ENDBRANCH  19  25
ENDBRANCH  18  20
ENDBRANCH   2  18
TORSDOF 7
ENDMDL
MODEL 3
REMARK VINA RESULT:      -9.2      1.147      1.413
REMARK  Name = 5357
REMARK  7 active torsions:
REMARK  status: ('A' for Active; 'I' for Inactive)
REMARK    1  A    between atoms: N_2  and  C_18
REMARK    2  A    between atoms: C_3  and  C_5
REMARK    3  A    between atoms: C_7  and  S_11
REMARK    4  A    between atoms: C_8  and  O_16
REMARK    5  A    between atoms: S_11  and  C_14
REMARK    6  A    between atoms: C_18  and  C_20
REMARK    7  A    between atoms: N_19  and  C_25
REMARK                            x       y       z     vdW  Elec       q    Type
REMARK                         _______ _______ _______ _____ _____    ______ ____
ROOT
ATOM      1  O   UNL     1      37.536 -21.083 -16.630  0.00  0.00    -0.270 OA
ATOM      2  N   UNL     1      36.165 -21.975 -18.275  0.00  0.00    -0.303 N 
ATOM      3  C   UNL     1      36.695 -21.902 -16.990  0.00  0.00    +0.249 C 
ATOM      4  H   UNL     1      35.493 -22.670 -18.468  0.00  0.00    +0.150 HD
ENDROOT
BRANCH   3   5
ATOM      5  C   UNL     1      36.207 -22.915 -16.018  0.00  0.00    +0.089 C 
ATOM      6  C   UNL     1      37.107 -23.421 -15.101  0.00  0.00    +0.026 C 
ATOM      7  C   UNL     1      36.668 -24.373 -14.180  0.00  0.00    +0.106 C 
ATOM      8  C   UNL     1      34.888 -23.320 -16.053  0.00  0.00    +0.143 C 
ATOM      9  C   UNL     1      35.340 -24.798 -14.195  0.00  0.00    +0.021 C 
ATOM     10  C   UNL     1      34.450 -24.272 -15.131  0.00  0.00    +0.038 C 
BRANCH   7  11
ATOM     11  S   UNL     1      37.782 -25.031 -13.008  0.00  0.00    +0.009 S 
ATOM     12  O   UNL     1      38.572 -23.931 -12.472  0.00  0.00    -0.169 OA
ATOM     13  O   UNL     1      37.052 -25.906 -12.101  0.00  0.00    -0.169 OA
BRANCH  11  14
ATOM     14  C   UNL     1      38.867 -26.067 -13.965  0.00  0.00    +0.156 C 
ATOM     15  C   UNL     1      40.194 -25.390 -14.224  0.00  0.00    +0.028 C 
ENDBRANCH  11  14
ENDBRANCH   7  11
BRANCH   8  16
ATOM     16  O   UNL     1      34.003 -22.817 -16.959  0.00  0.00    -0.471 OA
ATOM     17  C   UNL     1      32.645 -23.233 -16.838  0.00  0.00    +0.252 C 
ENDBRANCH   8  16
ENDBRANCH   3   5
BRANCH   2  18
ATOM     18  C   UNL     1      36.553 -21.086 -19.328  0.00  0.00    +0.069 C 
BRANCH  18  20
ATOM     19  N   UNL     1      35.157 -19.412 -20.558  0.00  0.00    +0.389 N 
ATOM     20  C   UNL     1      35.398 -20.837 -20.292  0.00  0.00    -0.038 C 
ATOM     21  C   UNL     1      34.062 -21.300 -19.707  0.00  0.00    -0.021 C 
ATOM     22  C   UNL     1      33.024 -20.329 -20.259  0.00  0.00    -0.025 C 
ATOM     23  C   UNL     1      33.807 -19.358 -21.124  0.00  0.00    -0.077 C 
ATOM     24  H   UNL     1      35.244 -18.866 -19.702  0.00  0.00    -0.080 HD
BRANCH  19  25
ATOM     25  C   UNL     1      36.139 -18.820 -21.458  0.00  0.00    -0.077 C 
ATOM     26  C   UNL     1      35.502 -18.377 -22.759  0.00  0.00    -0.025 C 
ENDBRANCH  19  25
ENDBRANCH  18  20
ENDBRANCH   2  18
TORSDOF 7
ENDMDL
MODEL 4
REMARK VINA RESULT:      -8.9      2.069      3.967
REMARK  Name = 5357
REMARK  7 active torsions:
REMARK  status: ('A' for Active; 'I' for Inactive)
REMARK    1  A    between atoms: N_2  and  C_18
REMARK    2  A    between atoms: C_3  and  C_5
REMARK    3  A    between atoms: C_7  and  S_11
REMARK    4  A    between atoms: C_8  and  O_16
REMARK    5  A    between atoms: S_11  and  C_14
REMARK    6  A    between atoms: C_18  and  C_20
REMARK    7  A    between atoms: N_19  and  C_25
REMARK                            x       y       z     vdW  Elec       q    Type
REMARK                         _______ _______ _______ _____ _____    ______ ____
ROOT
ATOM      1  O   UNL     1      37.513 -21.299 -16.408  0.00  0.00    -0.270 OA
ATOM      2  N   UNL     1      36.025 -22.102 -17.997  0.00  0.00    -0.303 N 
ATOM      3  C   UNL     1      36.601 -22.057 -16.730  0.00  0.00    +0.249 C 
ATOM      4  H   UNL     1      35.296 -22.745 -18.160  0.00  0.00    +0.150 HD
ENDROOT
BRANCH   3   5
ATOM      5  C   UNL     1      36.070 -23.019 -15.730  0.00  0.00    +0.089 C 
ATOM      6  C   UNL     1      34.706 -23.047 -15.518  0.00  0.00    +0.026 C 
ATOM      7  C   UNL     1      34.188 -23.944 -14.582  0.00  0.00    +0.106 C 
ATOM      8  C   UNL     1      36.937 -23.847 -15.047  0.00  0.00    +0.143 C 
ATOM      9  C   UNL     1      35.044 -24.791 -13.879  0.00  0.00    +0.021 C 
ATOM     10  C   UNL     1      36.418 -24.742 -14.111  0.00  0.00    +0.038 C 
BRANCH   7  11
ATOM     11  S   UNL     1      32.467 -24.004 -14.292  0.00  0.00    +0.009 S 
ATOM     12  O   UNL     1      32.075 -25.404 -14.211  0.00  0.00    -0.169 OA
ATOM     13  O   UNL     1      32.141 -23.097 -13.199  0.00  0.00    -0.169 OA
BRANCH  11  14
ATOM     14  C   UNL     1      31.746 -23.319 -15.767  0.00  0.00    +0.156 C 
ATOM     15  C   UNL     1      30.314 -22.893 -15.537  0.00  0.00    +0.028 C 
ENDBRANCH  11  14
ENDBRANCH   7  11
BRANCH   8  16
ATOM     16  O   UNL     1      38.283 -23.815 -15.260  0.00  0.00    -0.471 OA
ATOM     17  C   UNL     1      39.041 -24.924 -14.784  0.00  0.00    +0.252 C 
ENDBRANCH   8  16
ENDBRANCH   3   5
BRANCH   2  18
ATOM     18  C   UNL     1      36.445 -21.256 -19.073  0.00  0.00    +0.069 C 
BRANCH  18  20
ATOM     19  N   UNL     1      35.073 -19.611 -20.368  0.00  0.00    +0.389 N 
ATOM     20  C   UNL     1      35.313 -21.030 -20.069  0.00  0.00    -0.038 C 
ATOM     21  C   UNL     1      33.965 -21.488 -19.508  0.00  0.00    -0.021 C 
ATOM     22  C   UNL     1      32.936 -20.532 -20.103  0.00  0.00    -0.025 C 
ATOM     23  C   UNL     1      33.736 -19.573 -20.967  0.00  0.00    -0.077 C 
ATOM     24  H   UNL     1      35.137 -19.049 -19.519  0.00  0.00    -0.080 HD
BRANCH  19  25
ATOM     25  C   UNL     1      36.073 -19.031 -21.254  0.00  0.00    -0.077 C 
ATOM     26  C   UNL     1      35.463 -18.595 -22.570  0.00  0.00    -0.025 C 
ENDBRANCH  19  25
ENDBRANCH  18  20
ENDBRANCH   2  18
TORSDOF 7
ENDMDL
MODEL 5
REMARK VINA RESULT:      -8.8      7.510     11.409
REMARK  Name = 5357
REMARK  7 active torsions:
REMARK  status: ('A' for Active; 'I' for Inactive)
REMARK    1  A    between atoms: N_2  and  C_18
REMARK    2  A    between atoms: C_3  and  C_5
REMARK    3  A    between atoms: C_7  and  S_11
REMARK    4  A    between atoms: C_8  and  O_16
REMARK    5  A    between atoms: S_11  and  C_14
REMARK    6  A    between atoms: C_18  and  C_20
REMARK    7  A    between atoms: N_19  and  C_25
REMARK                            x       y       z     vdW  Elec       q    Type
REMARK                         _______ _______ _______ _____ _____    ______ ____
ROOT
ATOM      1  O   UNL     1      32.056 -13.731 -21.703  0.00  0.00    -0.270 OA
ATOM      2  N   UNL     1      33.033 -12.344 -23.286  0.00  0.00    -0.303 N 
ATOM      3  C   UNL     1      32.771 -13.574 -22.690  0.00  0.00    +0.249 C 
ATOM      4  H   UNL     1      33.621 -12.321 -24.077  0.00  0.00    +0.150 HD
ENDROOT
BRANCH   3   5
ATOM      5  C   UNL     1      33.435 -14.757 -23.298  0.00  0.00    +0.089 C 
ATOM      6  C   UNL     1      34.028 -15.674 -22.452  0.00  0.00    +0.026 C 
ATOM      7  C   UNL     1      34.657 -16.791 -23.004  0.00  0.00    +0.106 C 
ATOM      8  C   UNL     1      33.446 -14.908 -24.669  0.00  0.00    +0.143 C 
ATOM      9  C   UNL     1      34.681 -16.965 -24.387  0.00  0.00    +0.021 C 
ATOM     10  C   UNL     1      34.076 -16.024 -25.220  0.00  0.00    +0.038 C 
BRANCH   7  11
ATOM     11  S   UNL     1      35.415 -17.969 -21.962  0.00  0.00    +0.009 S 
ATOM     12  O   UNL     1      36.712 -18.304 -22.534  0.00  0.00    -0.169 OA
ATOM     13  O   UNL     1      35.331 -17.504 -20.584  0.00  0.00    -0.169 OA
BRANCH  11  14
ATOM     14  C   UNL     1      34.374 -19.405 -22.089  0.00  0.00    +0.156 C 
ATOM     15  C   UNL     1      33.591 -19.637 -20.817  0.00  0.00    +0.028 C 
ENDBRANCH  11  14
ENDBRANCH   7  11
BRANCH   8  16
ATOM     16  O   UNL     1      32.860 -14.000 -25.499  0.00  0.00    -0.471 OA
ATOM     17  C   UNL     1      33.148 -14.112 -26.891  0.00  0.00    +0.252 C 
ENDBRANCH   8  16
ENDBRANCH   3   5
BRANCH   2  18
ATOM     18  C   UNL     1      32.487 -11.112 -22.802  0.00  0.00    +0.069 C 
BRANCH  18  20
ATOM     19  N   UNL     1      34.449 -10.101 -23.979  0.00  0.00    +0.389 N 
ATOM     20  C   UNL     1      33.049  -9.922 -23.569  0.00  0.00    -0.038 C 
ATOM     21  C   UNL     1      33.113  -8.665 -22.699  0.00  0.00    -0.021 C 
ATOM     22  C   UNL     1      34.340  -7.901 -23.183  0.00  0.00    -0.025 C 
ATOM     23  C   UNL     1      34.924  -8.752 -24.298  0.00  0.00    -0.077 C 
ATOM     24  H   UNL     1      34.990 -10.540 -23.234  0.00  0.00    -0.080 HD
BRANCH  19  25
ATOM     25  C   UNL     1      34.608 -11.005 -25.111  0.00  0.00    -0.077 C 
ATOM     26  C   UNL     1      35.528 -10.421 -26.163  0.00  0.00    -0.025 C 
ENDBRANCH  19  25
ENDBRANCH  18  20
ENDBRANCH   2  18
TORSDOF 7
ENDMDL
MODEL 6
REMARK VINA RESULT:      -8.8      7.871     11.296
REMARK  Name = 5357
REMARK  7 active torsions:
REMARK  status: ('A' for Active; 'I' for Inactive)
REMARK    1  A    between atoms: N_2  and  C_18
REMARK    2  A    between atoms: C_3  and  C_5
REMARK    3  A    between atoms: C_7  and  S_11
REMARK    4  A    between atoms: C_8  and  O_16
REMARK    5  A    between atoms: S_11  and  C_14
REMARK    6  A    between atoms: C_18  and  C_20
REMARK    7  A    between atoms: N_19  and  C_25
REMARK                            x       y       z     vdW  Elec       q    Type
REMARK                         _______ _______ _______ _____ _____    ______ ____
ROOT
ATOM      1  O   UNL     1      33.524 -13.940 -25.044  0.00  0.00    -0.270 OA
ATOM      2  N   UNL     1      33.820 -12.230 -23.504  0.00  0.00    -0.303 N 
ATOM      3  C   UNL     1      33.633 -13.556 -23.882  0.00  0.00    +0.249 C 
ATOM      4  H   UNL     1      33.896 -12.020 -22.545  0.00  0.00    +0.150 HD
ENDROOT
BRANCH   3   5
ATOM      5  C   UNL     1      33.541 -14.549 -22.780  0.00  0.00    +0.089 C 
ATOM      6  C   UNL     1      34.326 -15.682 -22.859  0.00  0.00    +0.026 C 
ATOM      7  C   UNL     1      34.253 -16.626 -21.834  0.00  0.00    +0.106 C 
ATOM      8  C   UNL     1      32.685 -14.320 -21.721  0.00  0.00    +0.143 C 
ATOM      9  C   UNL     1      33.396 -16.417 -20.753  0.00  0.00    +0.021 C 
ATOM     10  C   UNL     1      32.613 -15.265 -20.697  0.00  0.00    +0.038 C 
BRANCH   7  11
ATOM     11  S   UNL     1      35.234 -18.068 -21.905  0.00  0.00    +0.009 S 
ATOM     12  O   UNL     1      35.974 -18.046 -23.158  0.00  0.00    -0.169 OA
ATOM     13  O   UNL     1      35.949 -18.215 -20.645  0.00  0.00    -0.169 OA
BRANCH  11  14
ATOM     14  C   UNL     1      34.056 -19.399 -21.990  0.00  0.00    +0.156 C 
ATOM     15  C   UNL     1      33.882 -20.072 -20.647  0.00  0.00    +0.028 C 
ENDBRANCH  11  14
ENDBRANCH   7  11
BRANCH   8  16
ATOM     16  O   UNL     1      31.912 -13.200 -21.648  0.00  0.00    -0.471 OA
ATOM     17  C   UNL     1      31.916 -12.490 -20.411  0.00  0.00    +0.252 C 
ENDBRANCH   8  16
ENDBRANCH   3   5
BRANCH   2  18
ATOM     18  C   UNL     1      33.904 -11.156 -24.448  0.00  0.00    +0.069 C 
BRANCH  18  20
ATOM     19  N   UNL     1      32.765  -9.036 -23.762  0.00  0.00    +0.389 N 
ATOM     20  C   UNL     1      34.015  -9.810 -23.742  0.00  0.00    -0.038 C 
ATOM     21  C   UNL     1      34.998  -8.877 -24.451  0.00  0.00    -0.021 C 
ATOM     22  C   UNL     1      34.440  -7.473 -24.247  0.00  0.00    -0.025 C 
ATOM     23  C   UNL     1      33.167  -7.664 -23.441  0.00  0.00    -0.077 C 
ATOM     24  H   UNL     1      32.311  -9.109 -24.672  0.00  0.00    -0.080 HD
BRANCH  19  25
ATOM     25  C   UNL     1      31.765  -9.533 -22.827  0.00  0.00    -0.077 C 
ATOM     26  C   UNL     1      31.916  -8.895 -21.461  0.00  0.00    -0.025 C 
ENDBRANCH  19  25
ENDBRANCH  18  20
ENDBRANCH   2  18
TORSDOF 7
ENDMDL
MODEL 7
REMARK VINA RESULT:      -8.6      8.578     12.926
REMARK  Name = 5357
REMARK  7 active torsions:
REMARK  status: ('A' for Active; 'I' for Inactive)
REMARK    1  A    between atoms: N_2  and  C_18
REMARK    2  A    between atoms: C_3  and  C_5
REMARK    3  A    between atoms: C_7  and  S_11
REMARK    4  A    between atoms: C_8  and  O_16
REMARK    5  A    between atoms: S_11  and  C_14
REMARK    6  A    between atoms: C_18  and  C_20
REMARK    7  A    between atoms: N_19  and  C_25
REMARK                            x       y       z     vdW  Elec       q    Type
REMARK                         _______ _______ _______ _____ _____    ______ ____
ROOT
ATOM      1  O   UNL     1      33.362 -13.802 -25.176  0.00  0.00    -0.270 OA
ATOM      2  N   UNL     1      34.441 -14.754 -23.355  0.00  0.00    -0.303 N 
ATOM      3  C   UNL     1      33.582 -13.845 -23.968  0.00  0.00    +0.249 C 
ATOM      4  H   UNL     1      34.552 -14.710 -22.377  0.00  0.00    +0.150 HD
ENDROOT
BRANCH   3   5
ATOM      5  C   UNL     1      32.920 -12.859 -23.075  0.00  0.00    +0.089 C 
ATOM      6  C   UNL     1      33.033 -11.519 -23.392  0.00  0.00    +0.026 C 
ATOM      7  C   UNL     1      32.419 -10.577 -22.565  0.00  0.00    +0.106 C 
ATOM      8  C   UNL     1      32.221 -13.296 -21.968  0.00  0.00    +0.143 C 
ATOM      9  C   UNL     1      31.707 -10.994 -21.441  0.00  0.00    +0.021 C 
ATOM     10  C   UNL     1      31.608 -12.353 -21.143  0.00  0.00    +0.038 C 
BRANCH   7  11
ATOM     11  S   UNL     1      32.543  -8.876 -22.939  0.00  0.00    +0.009 S 
ATOM     12  O   UNL     1      31.451  -8.534 -23.839  0.00  0.00    -0.169 OA
ATOM     13  O   UNL     1      32.719  -8.132 -21.699  0.00  0.00    -0.169 OA
BRANCH  11  14
ATOM     14  C   UNL     1      34.066  -8.735 -23.848  0.00  0.00    +0.156 C 
ATOM     15  C   UNL     1      34.831  -7.490 -23.458  0.00  0.00    +0.028 C 
ENDBRANCH  11  14
ENDBRANCH   7  11
BRANCH   8  16
ATOM     16  O   UNL     1      32.113 -14.619 -21.660  0.00  0.00    -0.471 OA
ATOM     17  C   UNL     1      32.620 -15.034 -20.394  0.00  0.00    +0.252 C 
ENDBRANCH   8  16
ENDBRANCH   3   5
BRANCH   2  18
ATOM     18  C   UNL     1      35.169 -15.749 -24.083  0.00  0.00    +0.069 C 
BRANCH  18  20
ATOM     19  N   UNL     1      35.523 -18.049 -23.164  0.00  0.00    +0.389 N 
ATOM     20  C   UNL     1      34.591 -17.138 -23.844  0.00  0.00    -0.038 C 
ATOM     21  C   UNL     1      34.307 -17.869 -25.158  0.00  0.00    -0.021 C 
ATOM     22  C   UNL     1      34.562 -19.343 -24.863  0.00  0.00    -0.025 C 
ATOM     23  C   UNL     1      34.983 -19.390 -23.405  0.00  0.00    -0.077 C 
ATOM     24  H   UNL     1      36.468 -17.937 -23.532  0.00  0.00    -0.080 HD
BRANCH  19  25
ATOM     25  C   UNL     1      35.662 -17.776 -21.740  0.00  0.00    -0.077 C 
ATOM     26  C   UNL     1      36.285 -18.946 -21.008  0.00  0.00    -0.025 C 
ENDBRANCH  19  25
ENDBRANCH  18  20
ENDBRANCH   2  18
TORSDOF 7
ENDMDL
MODEL 8
REMARK VINA RESULT:      -8.6      8.081     11.422
REMARK  Name = 5357
REMARK  7 active torsions:
REMARK  status: ('A' for Active; 'I' for Inactive)
REMARK    1  A    between atoms: N_2  and  C_18
REMARK    2  A    between atoms: C_3  and  C_5
REMARK    3  A    between atoms: C_7  and  S_11
REMARK    4  A    between atoms: C_8  and  O_16
REMARK    5  A    between atoms: S_11  and  C_14
REMARK    6  A    between atoms: C_18  and  C_20
REMARK    7  A    between atoms: N_19  and  C_25
REMARK                            x       y       z     vdW  Elec       q    Type
REMARK                         _______ _______ _______ _____ _____    ______ ____
ROOT
ATOM      1  O   UNL     1      33.452 -13.598 -24.971  0.00  0.00    -0.270 OA
ATOM      2  N   UNL     1      33.757 -11.869 -23.454  0.00  0.00    -0.303 N 
ATOM      3  C   UNL     1      33.579 -13.202 -23.815  0.00  0.00    +0.249 C 
ATOM      4  H   UNL     1      33.850 -11.649 -22.498  0.00  0.00    +0.150 HD
ENDROOT
BRANCH   3   5
ATOM      5  C   UNL     1      33.519 -14.184 -22.701  0.00  0.00    +0.089 C 
ATOM      6  C   UNL     1      34.286 -15.328 -22.803  0.00  0.00    +0.026 C 
ATOM      7  C   UNL     1      34.243 -16.262 -21.768  0.00  0.00    +0.106 C 
ATOM      8  C   UNL     1      32.712 -13.935 -21.610  0.00  0.00    +0.143 C 
ATOM      9  C   UNL     1      33.435 -16.033 -20.654  0.00  0.00    +0.021 C 
ATOM     10  C   UNL     1      32.670 -14.870 -20.575  0.00  0.00    +0.038 C 
BRANCH   7  11
ATOM     11  S   UNL     1      35.201 -17.719 -21.867  0.00  0.00    +0.009 S 
ATOM     12  O   UNL     1      36.027 -17.631 -23.063  0.00  0.00    -0.169 OA
ATOM     13  O   UNL     1      35.824 -17.964 -20.574  0.00  0.00    -0.169 OA
BRANCH  11  14
ATOM     14  C   UNL     1      34.008 -19.014 -22.121  0.00  0.00    +0.156 C 
ATOM     15  C   UNL     1      33.700 -19.744 -20.834  0.00  0.00    +0.028 C 
ENDBRANCH  11  14
ENDBRANCH   7  11
BRANCH   8  16
ATOM     16  O   UNL     1      31.958 -12.804 -21.514  0.00  0.00    -0.471 OA
ATOM     17  C   UNL     1      31.826 -12.221 -20.219  0.00  0.00    +0.252 C 
ENDBRANCH   8  16
ENDBRANCH   3   5
BRANCH   2  18
ATOM     18  C   UNL     1      33.811 -10.804 -24.410  0.00  0.00    +0.069 C 
BRANCH  18  20
ATOM     19  N   UNL     1      33.927  -8.734 -23.010  0.00  0.00    +0.389 N 
ATOM     20  C   UNL     1      33.094  -9.563 -23.892  0.00  0.00    -0.038 C 
ATOM     21  C   UNL     1      31.910  -9.926 -22.993  0.00  0.00    -0.021 C 
ATOM     22  C   UNL     1      31.838  -8.812 -21.954  0.00  0.00    -0.025 C 
ATOM     23  C   UNL     1      32.980  -7.872 -22.299  0.00  0.00    -0.077 C 
ATOM     24  H   UNL     1      34.474  -9.318 -22.378  0.00  0.00    -0.080 HD
BRANCH  19  25
ATOM     25  C   UNL     1      34.927  -7.953 -23.727  0.00  0.00    -0.077 C 
ATOM     26  C   UNL     1      34.293  -6.813 -24.497  0.00  0.00    -0.025 C 
ENDBRANCH  19  25
ENDBRANCH  18  20
ENDBRANCH   2  18
TORSDOF 7
ENDMDL
MODEL 9
REMARK VINA RESULT:      -8.5      2.802      5.245
REMARK  Name = 5357
REMARK  7 active torsions:
REMARK  status: ('A' for Active; 'I' for Inactive)
REMARK    1  A    between atoms: N_2  and  C_18
REMARK    2  A    between atoms: C_3  and  C_5
REMARK    3  A    between atoms: C_7  and  S_11
REMARK    4  A    between atoms: C_8  and  O_16
REMARK    5  A    between atoms: S_11  and  C_14
REMARK    6  A    between atoms: C_18  and  C_20
REMARK    7  A    between atoms: N_19  and  C_25
REMARK                            x       y       z     vdW  Elec       q    Type
REMARK                         _______ _______ _______ _____ _____    ______ ____
ROOT
ATOM      1  O   UNL     1      33.888 -23.505 -19.489  0.00  0.00    -0.270 OA
ATOM      2  N   UNL     1      35.330 -21.854 -18.727  0.00  0.00    -0.303 N 
ATOM      3  C   UNL     1      34.380 -22.859 -18.567  0.00  0.00    +0.249 C 
ATOM      4  H   UNL     1      35.665 -21.391 -17.925  0.00  0.00    +0.150 HD
ENDROOT
BRANCH   3   5
ATOM      5  C   UNL     1      33.934 -23.128 -17.175  0.00  0.00    +0.089 C 
ATOM      6  C   UNL     1      32.581 -23.281 -16.945  0.00  0.00    +0.026 C 
ATOM      7  C   UNL     1      32.142 -23.534 -15.645  0.00  0.00    +0.106 C 
ATOM      8  C   UNL     1      34.866 -23.216 -16.161  0.00  0.00    +0.143 C 
ATOM      9  C   UNL     1      33.065 -23.628 -14.604  0.00  0.00    +0.021 C 
ATOM     10  C   UNL     1      34.426 -23.469 -14.861  0.00  0.00    +0.038 C 
BRANCH   7  11
ATOM     11  S   UNL     1      30.438 -23.732 -15.322  0.00  0.00    +0.009 S 
ATOM     12  O   UNL     1      30.087 -25.117 -15.603  0.00  0.00    -0.169 OA
ATOM     13  O   UNL     1      30.135 -23.159 -14.018  0.00  0.00    -0.169 OA
BRANCH  11  14
ATOM     14  C   UNL     1      29.637 -22.708 -16.537  0.00  0.00    +0.156 C 
ATOM     15  C   UNL     1      28.332 -23.315 -16.999  0.00  0.00    +0.028 C 
ENDBRANCH  11  14
ENDBRANCH   7  11
BRANCH   8  16
ATOM     16  O   UNL     1      36.200 -23.065 -16.393  0.00  0.00    -0.471 OA
ATOM     17  C   UNL     1      37.080 -23.306 -15.298  0.00  0.00    +0.252 C 
ENDBRANCH   8  16
ENDBRANCH   3   5
BRANCH   2  18
ATOM     18  C   UNL     1      35.840 -21.462 -20.007  0.00  0.00    +0.069 C 
BRANCH  18  20
ATOM     19  N   UNL     1      34.414 -19.934 -21.383  0.00  0.00    +0.389 N 
ATOM     20  C   UNL     1      35.446 -20.028 -20.341  0.00  0.00    -0.038 C 
ATOM     21  C   UNL     1      36.612 -19.248 -20.952  0.00  0.00    -0.021 C 
ATOM     22  C   UNL     1      35.973 -18.278 -21.940  0.00  0.00    -0.025 C 
ATOM     23  C   UNL     1      34.481 -18.548 -21.855  0.00  0.00    -0.077 C 
ATOM     24  H   UNL     1      34.590 -20.609 -22.126  0.00  0.00    -0.080 HD
BRANCH  19  25
ATOM     25  C   UNL     1      33.080 -20.272 -20.905  0.00  0.00    -0.077 C 
ATOM     26  C   UNL     1      32.277 -19.030 -20.574  0.00  0.00    -0.025 C 
ENDBRANCH  19  25
ENDBRANCH  18  20
ENDBRANCH   2  18
TORSDOF 7
ENDMDL
