MODEL 1
REMARK VINA RESULT:      -2.9      0.000      0.000
REMARK  Name = 679
REMARK  0 active torsions:
REMARK  status: ('A' for Active; 'I' for Inactive)
REMARK                            x       y       z     vdW  Elec       q    Type
REMARK                         _______ _______ _______ _____ _____    ______ ____
ROOT
ATOM      1  S   UNL     1      28.482 -23.457 -16.715  0.00  0.00    +0.044 S 
ATOM      2  O   UNL     1      27.654 -24.322 -17.617  0.00  0.00    -0.256 OA
ATOM      3  C   UNL     1      28.958 -24.459 -15.285  0.00  0.00    +0.106 C 
ATOM      4  C   UNL     1      27.351 -22.374 -15.809  0.00  0.00    +0.106 C 
ENDROOT
TORSDOF 0
ENDMDL
MODEL 2
REMARK VINA RESULT:      -2.9      9.656      9.656
REMARK  Name = 679
REMARK  0 active torsions:
REMARK  status: ('A' for Active; 'I' for Inactive)
REMARK                            x       y       z     vdW  Elec       q    Type
REMARK                         _______ _______ _______ _____ _____    ______ ____
ROOT
ATOM      1  S   UNL     1      35.772 -24.561 -11.841  0.00  0.00    +0.044 S 
ATOM      2  O   UNL     1      35.339 -25.066 -10.498  0.00  0.00    -0.256 OA
ATOM      3  C   UNL     1      37.022 -25.706 -12.476  0.00  0.00    +0.106 C 
ATOM      4  C   UNL     1      36.912 -23.184 -11.564  0.00  0.00    +0.106 C 
ENDROOT
TORSDOF 0
ENDMDL
MODEL 3
REMARK VINA RESULT:      -2.7     16.075     16.145
REMARK  Name = 679
REMARK  0 active torsions:
REMARK  status: ('A' for Active; 'I' for Inactive)
REMARK                            x       y       z     vdW  Elec       q    Type
REMARK                         _______ _______ _______ _____ _____    ______ ____
ROOT
ATOM      1  S   UNL     1      41.889 -16.069 -16.863  0.00  0.00    +0.044 S 
ATOM      2  O   UNL     1      43.343 -16.036 -16.499  0.00  0.00    -0.256 OA
ATOM      3  C   UNL     1      41.513 -14.534 -17.744  0.00  0.00    +0.106 C 
ATOM      4  C   UNL     1      40.944 -15.661 -15.376  0.00  0.00    +0.106 C 
ENDROOT
TORSDOF 0
ENDMDL
MODEL 4
REMARK VINA RESULT:      -2.6     14.209     14.535
REMARK  Name = 679
REMARK  0 active torsions:
REMARK  status: ('A' for Active; 'I' for Inactive)
REMARK                            x       y       z     vdW  Elec       q    Type
REMARK                         _______ _______ _______ _____ _____    ______ ____
ROOT
ATOM      1  S   UNL     1      32.884 -14.675 -26.157  0.00  0.00    +0.044 S 
ATOM      2  O   UNL     1      33.894 -15.776 -26.285  0.00  0.00    -0.256 OA
ATOM      3  C   UNL     1      33.407 -13.327 -27.246  0.00  0.00    +0.106 C 
ATOM      4  C   UNL     1      33.223 -13.800 -24.611  0.00  0.00    +0.106 C 
ENDROOT
TORSDOF 0
ENDMDL
MODEL 5
REMARK VINA RESULT:      -2.6     10.403     10.756
REMARK  Name = 679
REMARK  0 active torsions:
REMARK  status: ('A' for Active; 'I' for Inactive)
REMARK                            x       y       z     vdW  Elec       q    Type
REMARK                         _______ _______ _______ _____ _____    ______ ____
ROOT
ATOM      1  S   UNL     1      37.795 -24.132 -12.060  0.00  0.00    +0.044 S 
ATOM      2  O   UNL     1      38.720 -23.028 -11.642  0.00  0.00    -0.256 OA
ATOM      3  C   UNL     1      38.704 -25.199 -13.204  0.00  0.00    +0.106 C 
ATOM      4  C   UNL     1      36.665 -23.457 -13.300  0.00  0.00    +0.106 C 
ENDROOT
TORSDOF 0
ENDMDL
MODEL 6
REMARK VINA RESULT:      -2.6     10.841     11.248
REMARK  Name = 679
REMARK  0 active torsions:
REMARK  status: ('A' for Active; 'I' for Inactive)
REMARK                            x       y       z     vdW  Elec       q    Type
REMARK                         _______ _______ _______ _____ _____    ______ ____
ROOT
ATOM      1  S   UNL     1      38.481 -25.770 -14.514  0.00  0.00    +0.044 S 
ATOM      2  O   UNL     1      38.221 -27.227 -14.749  0.00  0.00    -0.256 OA
ATOM      3  C   UNL     1      40.275 -25.531 -14.513  0.00  0.00    +0.106 C 
ATOM      4  C   UNL     1      38.255 -25.453 -12.747  0.00  0.00    +0.106 C 
ENDROOT
TORSDOF 0
ENDMDL
MODEL 7
REMARK VINA RESULT:      -2.6     15.517     15.557
REMARK  Name = 679
REMARK  0 active torsions:
REMARK  status: ('A' for Active; 'I' for Inactive)
REMARK                            x       y       z     vdW  Elec       q    Type
REMARK                         _______ _______ _______ _____ _____    ______ ____
ROOT
ATOM      1  S   UNL     1      42.082 -16.089 -16.634  0.00  0.00    +0.044 S 
ATOM      2  O   UNL     1      41.563 -17.429 -17.063  0.00  0.00    -0.256 OA
ATOM      3  C   UNL     1      41.010 -15.490 -15.306  0.00  0.00    +0.106 C 
ATOM      4  C   UNL     1      41.542 -14.877 -17.863  0.00  0.00    +0.106 C 
ENDROOT
TORSDOF 0
ENDMDL
MODEL 8
REMARK VINA RESULT:      -2.6     10.217     10.620
REMARK  Name = 679
REMARK  0 active torsions:
REMARK  status: ('A' for Active; 'I' for Inactive)
REMARK                            x       y       z     vdW  Elec       q    Type
REMARK                         _______ _______ _______ _____ _____    ______ ____
ROOT
ATOM      1  S   UNL     1      37.344 -23.493 -12.358  0.00  0.00    +0.044 S 
ATOM      2  O   UNL     1      38.304 -22.648 -11.576  0.00  0.00    -0.256 OA
ATOM      3  C   UNL     1      36.068 -24.071 -11.212  0.00  0.00    +0.106 C 
ATOM      4  C   UNL     1      38.115 -25.111 -12.602  0.00  0.00    +0.106 C 
ENDROOT
TORSDOF 0
ENDMDL
MODEL 9
REMARK VINA RESULT:      -2.6      7.076      7.321
REMARK  Name = 679
REMARK  0 active torsions:
REMARK  status: ('A' for Active; 'I' for Inactive)
REMARK                            x       y       z     vdW  Elec       q    Type
REMARK                         _______ _______ _______ _____ _____    ______ ____
ROOT
ATOM      1  S   UNL     1      34.085 -22.347 -18.797  0.00  0.00    +0.044 S 
ATOM      2  O   UNL     1      33.978 -23.638 -19.551  0.00  0.00    -0.256 OA
ATOM      3  C   UNL     1      33.370 -21.049 -19.835  0.00  0.00    +0.106 C 
ATOM      4  C   UNL     1      35.794 -21.772 -18.939  0.00  0.00    +0.106 C 
ENDROOT
TORSDOF 0
ENDMDL
