MODEL 1
REMARK VINA RESULT:      -8.8      0.000      0.000
REMARK  Name = 44129642
REMARK  4 active torsions:
REMARK  status: ('A' for Active; 'I' for Inactive)
REMARK    1  A    between atoms: C_1  and  O_10
REMARK    2  A    between atoms: C_3  and  O_8
REMARK    3  A    between atoms: O_10  and  C_11
REMARK    4  A    between atoms: C_11  and  C_13
REMARK                            x       y       z     vdW  Elec       q    Type
REMARK                         _______ _______ _______ _____ _____    ______ ____
ROOT
ATOM      1  C   UNL     1      31.912 -22.992 -16.686  0.00  0.00    +0.172 C 
ATOM      2  C   UNL     1      32.628 -23.647 -14.473  0.00  0.00    -0.019 C 
ATOM      3  C   UNL     1      30.606 -22.840 -16.218  0.00  0.00    +0.172 C 
ATOM      4  C   UNL     1      32.922 -23.395 -15.812  0.00  0.00    +0.036 C 
ATOM      5  C   UNL     1      31.322 -23.493 -14.005  0.00  0.00    -0.001 C 
ATOM      6  C   UNL     1      30.312 -23.090 -14.878  0.00  0.00    +0.040 C 
ATOM      7  C   UNL     1      33.708 -24.078 -13.540  0.00  0.00    +0.031 C 
ENDROOT
BRANCH   3   8
ATOM      8  O   UNL     1      29.612 -22.447 -17.062  0.00  0.00    -0.468 OA
ATOM      9  C   UNL     1      28.336 -23.061 -16.888  0.00  0.00    +0.253 C 
ENDBRANCH   3   8
BRANCH   1  10
ATOM     10  O   UNL     1      32.212 -22.752 -17.992  0.00  0.00    -0.466 OA
BRANCH  10  11
ATOM     11  C   UNL     1      33.594 -22.691 -18.339  0.00  0.00    +0.251 C 
BRANCH  11  13
ATOM     12  N   UNL     1      32.695 -20.954 -19.780  0.00  0.00    -0.244 NA
ATOM     13  C   UNL     1      33.804 -21.574 -19.319  0.00  0.00    +0.103 C 
ATOM     14  C   UNL     1      35.094 -21.237 -19.697  0.00  0.00    +0.018 C 
ATOM     15  C   UNL     1      35.255 -20.197 -20.605  0.00  0.00    +0.003 C 
ATOM     16  C   UNL     1      34.138 -19.535 -21.102  0.00  0.00    +0.021 C 
ATOM     17  C   UNL     1      32.891 -19.948 -20.661  0.00  0.00    +0.099 C 
ENDBRANCH  11  13
ENDBRANCH  10  11
ENDBRANCH   1  10
TORSDOF 4
ENDMDL
MODEL 2
REMARK VINA RESULT:      -8.2      5.722      9.698
REMARK  Name = 44129642
REMARK  4 active torsions:
REMARK  status: ('A' for Active; 'I' for Inactive)
REMARK    1  A    between atoms: C_1  and  O_10
REMARK    2  A    between atoms: C_3  and  O_8
REMARK    3  A    between atoms: O_10  and  C_11
REMARK    4  A    between atoms: C_11  and  C_13
REMARK                            x       y       z     vdW  Elec       q    Type
REMARK                         _______ _______ _______ _____ _____    ______ ____
ROOT
ATOM      1  C   UNL     1      34.672 -16.012 -23.719  0.00  0.00    +0.172 C 
ATOM      2  C   UNL     1      33.468 -13.931 -23.965  0.00  0.00    -0.019 C 
ATOM      3  C   UNL     1      34.312 -16.374 -25.018  0.00  0.00    +0.172 C 
ATOM      4  C   UNL     1      34.249 -14.790 -23.193  0.00  0.00    +0.036 C 
ATOM      5  C   UNL     1      33.108 -14.293 -25.264  0.00  0.00    -0.001 C 
ATOM      6  C   UNL     1      33.530 -15.514 -25.790  0.00  0.00    +0.040 C 
ATOM      7  C   UNL     1      33.016 -12.627 -23.402  0.00  0.00    +0.031 C 
ENDROOT
BRANCH   3   8
ATOM      8  O   UNL     1      34.717 -17.563 -25.541  0.00  0.00    -0.468 OA
ATOM      9  C   UNL     1      34.123 -18.743 -25.003  0.00  0.00    +0.253 C 
ENDBRANCH   3   8
BRANCH   1  10
ATOM     10  O   UNL     1      35.432 -16.843 -22.954  0.00  0.00    -0.466 OA
BRANCH  10  11
ATOM     11  C   UNL     1      35.173 -16.852 -21.552  0.00  0.00    +0.251 C 
BRANCH  11  13
ATOM     12  N   UNL     1      36.188 -18.899 -20.728  0.00  0.00    -0.244 NA
ATOM     13  C   UNL     1      35.045 -18.272 -21.086  0.00  0.00    +0.103 C 
ATOM     14  C   UNL     1      33.792 -18.861 -21.043  0.00  0.00    +0.018 C 
ATOM     15  C   UNL     1      33.706 -20.178 -20.605  0.00  0.00    +0.003 C 
ATOM     16  C   UNL     1      34.860 -20.856 -20.229  0.00  0.00    +0.021 C 
ATOM     17  C   UNL     1      36.066 -20.178 -20.308  0.00  0.00    +0.099 C 
ENDBRANCH  11  13
ENDBRANCH  10  11
ENDBRANCH   1  10
TORSDOF 4
ENDMDL
MODEL 3
REMARK VINA RESULT:      -8.2      1.775      3.455
REMARK  Name = 44129642
REMARK  4 active torsions:
REMARK  status: ('A' for Active; 'I' for Inactive)
REMARK    1  A    between atoms: C_1  and  O_10
REMARK    2  A    between atoms: C_3  and  O_8
REMARK    3  A    between atoms: O_10  and  C_11
REMARK    4  A    between atoms: C_11  and  C_13
REMARK                            x       y       z     vdW  Elec       q    Type
REMARK                         _______ _______ _______ _____ _____    ______ ____
ROOT
ATOM      1  C   UNL     1      34.183 -23.327 -16.393  0.00  0.00    +0.172 C 
ATOM      2  C   UNL     1      32.409 -23.519 -14.765  0.00  0.00    -0.019 C 
ATOM      3  C   UNL     1      35.083 -23.872 -15.477  0.00  0.00    +0.172 C 
ATOM      4  C   UNL     1      32.846 -23.151 -16.036  0.00  0.00    +0.036 C 
ATOM      5  C   UNL     1      33.309 -24.066 -13.849  0.00  0.00    -0.001 C 
ATOM      6  C   UNL     1      34.645 -24.242 -14.205  0.00  0.00    +0.040 C 
ATOM      7  C   UNL     1      30.980 -23.331 -14.383  0.00  0.00    +0.031 C 
ENDROOT
BRANCH   3   8
ATOM      8  O   UNL     1      36.391 -24.048 -15.814  0.00  0.00    -0.468 OA
ATOM      9  C   UNL     1      37.227 -24.688 -14.851  0.00  0.00    +0.253 C 
ENDBRANCH   3   8
BRANCH   1  10
ATOM     10  O   UNL     1      34.599 -22.960 -17.637  0.00  0.00    -0.466 OA
BRANCH  10  11
ATOM     11  C   UNL     1      33.606 -22.896 -18.659  0.00  0.00    +0.251 C 
BRANCH  11  13
ATOM     12  N   UNL     1      32.735 -20.995 -19.896  0.00  0.00    -0.244 NA
ATOM     13  C   UNL     1      33.835 -21.666 -19.488  0.00  0.00    +0.103 C 
ATOM     14  C   UNL     1      35.133 -21.284 -19.790  0.00  0.00    +0.018 C 
ATOM     15  C   UNL     1      35.312 -20.140 -20.559  0.00  0.00    +0.003 C 
ATOM     16  C   UNL     1      34.204 -19.423 -20.997  0.00  0.00    +0.021 C 
ATOM     17  C   UNL     1      32.948 -19.888 -20.642  0.00  0.00    +0.099 C 
ENDBRANCH  11  13
ENDBRANCH  10  11
ENDBRANCH   1  10
TORSDOF 4
ENDMDL
MODEL 4
REMARK VINA RESULT:      -8.1      4.635      8.711
REMARK  Name = 44129642
REMARK  4 active torsions:
REMARK  status: ('A' for Active; 'I' for Inactive)
REMARK    1  A    between atoms: C_1  and  O_10
REMARK    2  A    between atoms: C_3  and  O_8
REMARK    3  A    between atoms: O_10  and  C_11
REMARK    4  A    between atoms: C_11  and  C_13
REMARK                            x       y       z     vdW  Elec       q    Type
REMARK                         _______ _______ _______ _____ _____    ______ ____
ROOT
ATOM      1  C   UNL     1      34.317 -16.301 -21.793  0.00  0.00    +0.172 C 
ATOM      2  C   UNL     1      33.079 -14.255 -21.444  0.00  0.00    -0.019 C 
ATOM      3  C   UNL     1      34.622 -15.894 -23.093  0.00  0.00    +0.172 C 
ATOM      4  C   UNL     1      33.545 -15.480 -20.970  0.00  0.00    +0.036 C 
ATOM      5  C   UNL     1      33.385 -13.848 -22.743  0.00  0.00    -0.001 C 
ATOM      6  C   UNL     1      34.156 -14.668 -23.567  0.00  0.00    +0.040 C 
ATOM      7  C   UNL     1      32.254 -13.379 -20.563  0.00  0.00    +0.031 C 
ENDROOT
BRANCH   3   8
ATOM      8  O   UNL     1      35.373 -16.686 -23.906  0.00  0.00    -0.468 OA
ATOM      9  C   UNL     1      34.719 -17.256 -25.039  0.00  0.00    +0.253 C 
ENDBRANCH   3   8
BRANCH   1  10
ATOM     10  O   UNL     1      34.763 -17.497 -21.320  0.00  0.00    -0.466 OA
BRANCH  10  11
ATOM     11  C   UNL     1      33.943 -18.638 -21.565  0.00  0.00    +0.251 C 
BRANCH  11  13
ATOM     12  N   UNL     1      35.738 -19.854 -20.469  0.00  0.00    -0.244 NA
ATOM     13  C   UNL     1      34.408 -19.771 -20.699  0.00  0.00    +0.103 C 
ATOM     14  C   UNL     1      33.476 -20.659 -20.186  0.00  0.00    +0.018 C 
ATOM     15  C   UNL     1      33.939 -21.698 -19.386  0.00  0.00    +0.003 C 
ATOM     16  C   UNL     1      35.300 -21.815 -19.126  0.00  0.00    +0.021 C 
ATOM     17  C   UNL     1      36.150 -20.876 -19.687  0.00  0.00    +0.099 C 
ENDBRANCH  11  13
ENDBRANCH  10  11
ENDBRANCH   1  10
TORSDOF 4
ENDMDL
MODEL 5
REMARK VINA RESULT:      -8.0      7.366     10.411
REMARK  Name = 44129642
REMARK  4 active torsions:
REMARK  status: ('A' for Active; 'I' for Inactive)
REMARK    1  A    between atoms: C_1  and  O_10
REMARK    2  A    between atoms: C_3  and  O_8
REMARK    3  A    between atoms: O_10  and  C_11
REMARK    4  A    between atoms: C_11  and  C_13
REMARK                            x       y       z     vdW  Elec       q    Type
REMARK                         _______ _______ _______ _____ _____    ______ ____
ROOT
ATOM      1  C   UNL     1      34.484 -16.221 -23.612  0.00  0.00    +0.172 C 
ATOM      2  C   UNL     1      34.748 -18.486 -22.814  0.00  0.00    -0.019 C 
ATOM      3  C   UNL     1      34.418 -16.691 -24.924  0.00  0.00    +0.172 C 
ATOM      4  C   UNL     1      34.650 -17.119 -22.557  0.00  0.00    +0.036 C 
ATOM      5  C   UNL     1      34.681 -18.956 -24.126  0.00  0.00    -0.001 C 
ATOM      6  C   UNL     1      34.515 -18.058 -25.180  0.00  0.00    +0.040 C 
ATOM      7  C   UNL     1      34.925 -19.445 -21.686  0.00  0.00    +0.031 C 
ENDROOT
BRANCH   3   8
ATOM      8  O   UNL     1      34.257 -15.823 -25.961  0.00  0.00    -0.468 OA
ATOM      9  C   UNL     1      32.919 -15.480 -26.317  0.00  0.00    +0.253 C 
ENDBRANCH   3   8
BRANCH   1  10
ATOM     10  O   UNL     1      34.393 -14.888 -23.349  0.00  0.00    -0.466 OA
BRANCH  10  11
ATOM     11  C   UNL     1      33.124 -14.398 -22.919  0.00  0.00    +0.251 C 
BRANCH  11  13
ATOM     12  N   UNL     1      32.229 -12.209 -22.361  0.00  0.00    -0.244 NA
ATOM     13  C   UNL     1      33.065 -12.917 -23.153  0.00  0.00    +0.103 C 
ATOM     14  C   UNL     1      33.853 -12.356 -24.146  0.00  0.00    +0.018 C 
ATOM     15  C   UNL     1      33.777 -10.981 -24.338  0.00  0.00    +0.003 C 
ATOM     16  C   UNL     1      32.928 -10.220 -23.542  0.00  0.00    +0.021 C 
ATOM     17  C   UNL     1      32.182 -10.876 -22.576  0.00  0.00    +0.099 C 
ENDBRANCH  11  13
ENDBRANCH  10  11
ENDBRANCH   1  10
TORSDOF 4
ENDMDL
MODEL 6
REMARK VINA RESULT:      -7.9      1.292      2.895
REMARK  Name = 44129642
REMARK  4 active torsions:
REMARK  status: ('A' for Active; 'I' for Inactive)
REMARK    1  A    between atoms: C_1  and  O_10
REMARK    2  A    between atoms: C_3  and  O_8
REMARK    3  A    between atoms: O_10  and  C_11
REMARK    4  A    between atoms: C_11  and  C_13
REMARK                            x       y       z     vdW  Elec       q    Type
REMARK                         _______ _______ _______ _____ _____    ______ ____
ROOT
ATOM      1  C   UNL     1      32.793 -23.232 -17.008  0.00  0.00    +0.172 C 
ATOM      2  C   UNL     1      30.958 -22.940 -15.464  0.00  0.00    -0.019 C 
ATOM      3  C   UNL     1      33.620 -23.617 -15.952  0.00  0.00    +0.172 C 
ATOM      4  C   UNL     1      31.462 -22.894 -16.763  0.00  0.00    +0.036 C 
ATOM      5  C   UNL     1      31.785 -23.326 -14.409  0.00  0.00    -0.001 C 
ATOM      6  C   UNL     1      33.115 -23.664 -14.653  0.00  0.00    +0.040 C 
ATOM      7  C   UNL     1      29.535 -22.578 -15.203  0.00  0.00    +0.031 C 
ENDROOT
BRANCH   3   8
ATOM      8  O   UNL     1      34.921 -23.949 -16.179  0.00  0.00    -0.468 OA
ATOM      9  C   UNL     1      35.587 -24.693 -15.160  0.00  0.00    +0.253 C 
ENDBRANCH   3   8
BRANCH   1  10
ATOM     10  O   UNL     1      33.275 -23.180 -18.281  0.00  0.00    -0.466 OA
BRANCH  10  11
ATOM     11  C   UNL     1      34.486 -22.456 -18.486  0.00  0.00    +0.251 C 
BRANCH  11  13
ATOM     12  N   UNL     1      32.958 -21.018 -19.709  0.00  0.00    -0.244 NA
ATOM     13  C   UNL     1      34.245 -21.371 -19.493  0.00  0.00    +0.103 C 
ATOM     14  C   UNL     1      35.325 -20.793 -20.140  0.00  0.00    +0.018 C 
ATOM     15  C   UNL     1      35.069 -19.789 -21.067  0.00  0.00    +0.003 C 
ATOM     16  C   UNL     1      33.757 -19.399 -21.315  0.00  0.00    +0.021 C 
ATOM     17  C   UNL     1      32.746 -20.039 -20.616  0.00  0.00    +0.099 C 
ENDBRANCH  11  13
ENDBRANCH  10  11
ENDBRANCH   1  10
TORSDOF 4
ENDMDL
MODEL 7
REMARK VINA RESULT:      -7.9      7.440     10.198
REMARK  Name = 44129642
REMARK  4 active torsions:
REMARK  status: ('A' for Active; 'I' for Inactive)
REMARK    1  A    between atoms: C_1  and  O_10
REMARK    2  A    between atoms: C_3  and  O_8
REMARK    3  A    between atoms: O_10  and  C_11
REMARK    4  A    between atoms: C_11  and  C_13
REMARK                            x       y       z     vdW  Elec       q    Type
REMARK                         _______ _______ _______ _____ _____    ______ ____
ROOT
ATOM      1  C   UNL     1      32.382 -13.502 -21.289  0.00  0.00    +0.172 C 
ATOM      2  C   UNL     1      31.639 -11.504 -20.152  0.00  0.00    -0.019 C 
ATOM      3  C   UNL     1      32.243 -12.855 -22.517  0.00  0.00    +0.172 C 
ATOM      4  C   UNL     1      32.080 -12.826 -20.107  0.00  0.00    +0.036 C 
ATOM      5  C   UNL     1      31.501 -10.857 -21.381  0.00  0.00    -0.001 C 
ATOM      6  C   UNL     1      31.802 -11.532 -22.563  0.00  0.00    +0.040 C 
ATOM      7  C   UNL     1      31.316 -10.782 -18.889  0.00  0.00    +0.031 C 
ENDROOT
BRANCH   3   8
ATOM      8  O   UNL     1      32.534 -13.505 -23.678  0.00  0.00    -0.468 OA
ATOM      9  C   UNL     1      33.637 -13.013 -24.437  0.00  0.00    +0.253 C 
ENDBRANCH   3   8
BRANCH   1  10
ATOM     10  O   UNL     1      32.809 -14.794 -21.232  0.00  0.00    -0.466 OA
BRANCH  10  11
ATOM     11  C   UNL     1      34.147 -15.015 -20.790  0.00  0.00    +0.251 C 
BRANCH  11  13
ATOM     12  N   UNL     1      35.217 -17.195 -20.726  0.00  0.00    -0.244 NA
ATOM     13  C   UNL     1      34.705 -16.213 -21.501  0.00  0.00    +0.103 C 
ATOM     14  C   UNL     1      34.671 -16.257 -22.886  0.00  0.00    +0.018 C 
ATOM     15  C   UNL     1      35.195 -17.380 -23.515  0.00  0.00    +0.003 C 
ATOM     16  C   UNL     1      35.730 -18.412 -22.751  0.00  0.00    +0.021 C 
ATOM     17  C   UNL     1      35.717 -18.272 -21.372  0.00  0.00    +0.099 C 
ENDBRANCH  11  13
ENDBRANCH  10  11
ENDBRANCH   1  10
TORSDOF 4
ENDMDL
MODEL 8
REMARK VINA RESULT:      -7.8      7.528      9.927
REMARK  Name = 44129642
REMARK  4 active torsions:
REMARK  status: ('A' for Active; 'I' for Inactive)
REMARK    1  A    between atoms: C_1  and  O_10
REMARK    2  A    between atoms: C_3  and  O_8
REMARK    3  A    between atoms: O_10  and  C_11
REMARK    4  A    between atoms: C_11  and  C_13
REMARK                            x       y       z     vdW  Elec       q    Type
REMARK                         _______ _______ _______ _____ _____    ______ ____
ROOT
ATOM      1  C   UNL     1      34.836 -16.202 -23.088  0.00  0.00    +0.172 C 
ATOM      2  C   UNL     1      34.854 -18.553 -23.646  0.00  0.00    -0.019 C 
ATOM      3  C   UNL     1      34.894 -16.523 -21.732  0.00  0.00    +0.172 C 
ATOM      4  C   UNL     1      34.817 -17.217 -24.045  0.00  0.00    +0.036 C 
ATOM      5  C   UNL     1      34.912 -18.874 -22.289  0.00  0.00    -0.001 C 
ATOM      6  C   UNL     1      34.932 -17.859 -21.332  0.00  0.00    +0.040 C 
ATOM      7  C   UNL     1      34.832 -19.637 -24.668  0.00  0.00    +0.031 C 
ENDROOT
BRANCH   3   8
ATOM      8  O   UNL     1      34.913 -15.540 -20.789  0.00  0.00    -0.468 OA
ATOM      9  C   UNL     1      33.651 -15.052 -20.338  0.00  0.00    +0.253 C 
ENDBRANCH   3   8
BRANCH   1  10
ATOM     10  O   UNL     1      34.796 -14.901 -23.491  0.00  0.00    -0.466 OA
BRANCH  10  11
ATOM     11  C   UNL     1      33.639 -14.481 -24.210  0.00  0.00    +0.251 C 
BRANCH  11  13
ATOM     12  N   UNL     1      32.342 -12.993 -22.794  0.00  0.00    -0.244 NA
ATOM     13  C   UNL     1      33.267 -13.094 -23.774  0.00  0.00    +0.103 C 
ATOM     14  C   UNL     1      33.876 -12.007 -24.381  0.00  0.00    +0.018 C 
ATOM     15  C   UNL     1      33.511 -10.735 -23.954  0.00  0.00    +0.003 C 
ATOM     16  C   UNL     1      32.563 -10.591 -22.948  0.00  0.00    +0.021 C 
ATOM     17  C   UNL     1      32.013 -11.742 -22.405  0.00  0.00    +0.099 C 
ENDBRANCH  11  13
ENDBRANCH  10  11
ENDBRANCH   1  10
TORSDOF 4
ENDMDL
MODEL 9
REMARK VINA RESULT:      -7.7      8.629     11.742
REMARK  Name = 44129642
REMARK  4 active torsions:
REMARK  status: ('A' for Active; 'I' for Inactive)
REMARK    1  A    between atoms: C_1  and  O_10
REMARK    2  A    between atoms: C_3  and  O_8
REMARK    3  A    between atoms: O_10  and  C_11
REMARK    4  A    between atoms: C_11  and  C_13
REMARK                            x       y       z     vdW  Elec       q    Type
REMARK                         _______ _______ _______ _____ _____    ______ ____
ROOT
ATOM      1  C   UNL     1      33.256 -12.578 -23.516  0.00  0.00    +0.172 C 
ATOM      2  C   UNL     1      31.752 -11.353 -22.075  0.00  0.00    -0.019 C 
ATOM      3  C   UNL     1      33.637 -11.386 -24.132  0.00  0.00    +0.172 C 
ATOM      4  C   UNL     1      32.313 -12.561 -22.487  0.00  0.00    +0.036 C 
ATOM      5  C   UNL     1      32.134 -10.161 -22.691  0.00  0.00    -0.001 C 
ATOM      6  C   UNL     1      33.076 -10.177 -23.719  0.00  0.00    +0.040 C 
ATOM      7  C   UNL     1      30.745 -11.335 -20.976  0.00  0.00    +0.031 C 
ENDROOT
BRANCH   3   8
ATOM      8  O   UNL     1      34.555 -11.390 -25.137  0.00  0.00    -0.468 OA
ATOM      9  C   UNL     1      35.298 -10.189 -25.341  0.00  0.00    +0.253 C 
ENDBRANCH   3   8
BRANCH   1  10
ATOM     10  O   UNL     1      33.794 -13.765 -23.912  0.00  0.00    -0.466 OA
BRANCH  10  11
ATOM     11  C   UNL     1      34.453 -14.542 -22.914  0.00  0.00    +0.251 C 
BRANCH  11  13
ATOM     12  N   UNL     1      34.217 -16.191 -24.682  0.00  0.00    -0.244 NA
ATOM     13  C   UNL     1      34.603 -15.950 -23.410  0.00  0.00    +0.103 C 
ATOM     14  C   UNL     1      35.119 -16.917 -22.561  0.00  0.00    +0.018 C 
ATOM     15  C   UNL     1      35.246 -18.212 -23.050  0.00  0.00    +0.003 C 
ATOM     16  C   UNL     1      34.859 -18.498 -24.354  0.00  0.00    +0.021 C 
ATOM     17  C   UNL     1      34.355 -17.461 -25.123  0.00  0.00    +0.099 C 
ENDBRANCH  11  13
ENDBRANCH  10  11
ENDBRANCH   1  10
TORSDOF 4
ENDMDL
