MODEL 1
REMARK VINA RESULT:      -6.6      0.000      0.000
REMARK  Name = 445238
REMARK  6 active torsions:
REMARK  status: ('A' for Active; 'I' for Inactive)
REMARK    1  A    between atoms: C_2  and  O_7
REMARK    2  A    between atoms: C_3  and  O_9
REMARK    3  A    between atoms: C_4  and  C_15
REMARK    4  A    between atoms: C_5  and  O_11
REMARK    5  A    between atoms: C_6  and  O_13
REMARK    6  A    between atoms: C_15  and  O_16
REMARK                            x       y       z     vdW  Elec       q    Type
REMARK                         _______ _______ _______ _____ _____    ______ ____
ROOT
ATOM      1  O   UNL     1      38.850 -24.503 -13.122  0.00  0.00    -0.326 OA
ATOM      2  C   UNL     1      37.653 -25.567 -14.941  0.00  0.00    +0.169 C 
ATOM      3  C   UNL     1      36.502 -25.909 -13.994  0.00  0.00    +0.172 C 
ATOM      4  C   UNL     1      38.974 -25.461 -14.175  0.00  0.00    +0.176 C 
ATOM      5  C   UNL     1      36.495 -24.985 -12.777  0.00  0.00    +0.196 C 
ATOM      6  C   UNL     1      37.883 -24.885 -12.146  0.00  0.00    +0.266 C 
ENDROOT
BRANCH   2   7
ATOM      7  O   UNL     1      37.764 -26.586 -15.933  0.00  0.00    -0.379 OA
ATOM      8  H   UNL     1      37.882 -27.446 -15.501  0.00  0.00    +0.211 HD
ENDBRANCH   2   7
BRANCH   3   9
ATOM      9  O   UNL     1      35.277 -25.757 -14.714  0.00  0.00    -0.379 OA
ATOM     10  H   UNL     1      35.039 -24.817 -14.750  0.00  0.00    +0.211 HD
ENDBRANCH   3   9
BRANCH   5  11
ATOM     11  O   UNL     1      35.595 -25.500 -11.796  0.00  0.00    -0.378 OA
ATOM     12  H   UNL     1      35.194 -26.320 -12.124  0.00  0.00    +0.211 HD
ENDBRANCH   5  11
BRANCH   6  13
ATOM     13  O   UNL     1      37.828 -23.902 -11.112  0.00  0.00    -0.326 OA
ATOM     14  C   UNL     1      37.417 -22.641 -11.620  0.00  0.00    +0.177 C 
ENDBRANCH   6  13
BRANCH   4  15
ATOM     15  C   UNL     1      40.116 -25.007 -15.079  0.00  0.00    +0.169 C 
BRANCH  15  16
ATOM     16  O   UNL     1      40.482 -26.087 -15.918  0.00  0.00    -0.379 OA
ATOM     17  H   UNL     1      40.440 -25.803 -16.845  0.00  0.00    +0.211 HD
ENDBRANCH  15  16
ENDBRANCH   4  15
TORSDOF 6
ENDMDL
MODEL 2
REMARK VINA RESULT:      -6.3      1.811      3.946
REMARK  Name = 445238
REMARK  6 active torsions:
REMARK  status: ('A' for Active; 'I' for Inactive)
REMARK    1  A    between atoms: C_2  and  O_7
REMARK    2  A    between atoms: C_3  and  O_9
REMARK    3  A    between atoms: C_4  and  C_15
REMARK    4  A    between atoms: C_5  and  O_11
REMARK    5  A    between atoms: C_6  and  O_13
REMARK    6  A    between atoms: C_15  and  O_16
REMARK                            x       y       z     vdW  Elec       q    Type
REMARK                         _______ _______ _______ _____ _____    ______ ____
ROOT
ATOM      1  O   UNL     1      36.114 -23.693 -13.859  0.00  0.00    -0.326 OA
ATOM      2  C   UNL     1      37.715 -25.234 -12.893  0.00  0.00    +0.169 C 
ATOM      3  C   UNL     1      37.329 -26.295 -13.925  0.00  0.00    +0.172 C 
ATOM      4  C   UNL     1      36.547 -24.280 -12.631  0.00  0.00    +0.176 C 
ATOM      5  C   UNL     1      36.698 -25.658 -15.162  0.00  0.00    +0.196 C 
ATOM      6  C   UNL     1      35.607 -24.658 -14.779  0.00  0.00    +0.266 C 
ENDROOT
BRANCH   2   7
ATOM      7  O   UNL     1      38.081 -25.877 -11.673  0.00  0.00    -0.379 OA
ATOM      8  H   UNL     1      38.421 -26.765 -11.864  0.00  0.00    +0.211 HD
ENDBRANCH   2   7
BRANCH   3   9
ATOM      9  O   UNL     1      38.515 -26.996 -14.303  0.00  0.00    -0.379 OA
ATOM     10  H   UNL     1      38.371 -27.439 -15.153  0.00  0.00    +0.211 HD
ENDBRANCH   3   9
BRANCH   5  11
ATOM     11  O   UNL     1      36.107 -26.675 -15.970  0.00  0.00    -0.378 OA
ATOM     12  H   UNL     1      35.865 -26.303 -16.832  0.00  0.00    +0.211 HD
ENDBRANCH   5  11
BRANCH   6  13
ATOM     13  O   UNL     1      35.169 -24.005 -15.970  0.00  0.00    -0.326 OA
ATOM     14  C   UNL     1      35.841 -22.770 -16.159  0.00  0.00    +0.177 C 
ENDBRANCH   6  13
BRANCH   4  15
ATOM     15  C   UNL     1      36.945 -23.145 -11.693  0.00  0.00    +0.169 C 
BRANCH  15  16
ATOM     16  O   UNL     1      38.359 -23.057 -11.667  0.00  0.00    -0.379 OA
ATOM     17  H   UNL     1      38.723 -23.491 -12.453  0.00  0.00    +0.211 HD
ENDBRANCH  15  16
ENDBRANCH   4  15
TORSDOF 6
ENDMDL
MODEL 3
REMARK VINA RESULT:      -6.1      1.438      3.675
REMARK  Name = 445238
REMARK  6 active torsions:
REMARK  status: ('A' for Active; 'I' for Inactive)
REMARK    1  A    between atoms: C_2  and  O_7
REMARK    2  A    between atoms: C_3  and  O_9
REMARK    3  A    between atoms: C_4  and  C_15
REMARK    4  A    between atoms: C_5  and  O_11
REMARK    5  A    between atoms: C_6  and  O_13
REMARK    6  A    between atoms: C_15  and  O_16
REMARK                            x       y       z     vdW  Elec       q    Type
REMARK                         _______ _______ _______ _____ _____    ______ ____
ROOT
ATOM      1  O   UNL     1      38.260 -24.839 -13.368  0.00  0.00    -0.326 OA
ATOM      2  C   UNL     1      35.922 -24.291 -13.693  0.00  0.00    +0.169 C 
ATOM      3  C   UNL     1      35.879 -25.177 -14.939  0.00  0.00    +0.172 C 
ATOM      4  C   UNL     1      37.335 -23.754 -13.456  0.00  0.00    +0.176 C 
ATOM      5  C   UNL     1      36.994 -26.222 -14.912  0.00  0.00    +0.196 C 
ATOM      6  C   UNL     1      38.344 -25.587 -14.579  0.00  0.00    +0.266 C 
ENDROOT
BRANCH   2   7
ATOM      7  O   UNL     1      35.024 -23.196 -13.864  0.00  0.00    -0.379 OA
ATOM      8  H   UNL     1      35.361 -22.607 -14.557  0.00  0.00    +0.211 HD
ENDBRANCH   2   7
BRANCH   3   9
ATOM      9  O   UNL     1      34.611 -25.835 -14.970  0.00  0.00    -0.379 OA
ATOM     10  H   UNL     1      34.167 -25.639 -15.809  0.00  0.00    +0.211 HD
ENDBRANCH   3   9
BRANCH   5  11
ATOM     11  O   UNL     1      37.096 -26.840 -16.195  0.00  0.00    -0.378 OA
ATOM     12  H   UNL     1      36.263 -27.292 -16.403  0.00  0.00    +0.211 HD
ENDBRANCH   5  11
BRANCH   6  13
ATOM     13  O   UNL     1      39.301 -26.636 -14.433  0.00  0.00    -0.326 OA
ATOM     14  C   UNL     1      40.622 -26.123 -14.351  0.00  0.00    +0.177 C 
ENDBRANCH   6  13
BRANCH   4  15
ATOM     15  C   UNL     1      37.428 -22.963 -12.155  0.00  0.00    +0.169 C 
BRANCH  15  16
ATOM     16  O   UNL     1      38.735 -23.111 -11.630  0.00  0.00    -0.379 OA
ATOM     17  H   UNL     1      38.691 -23.592 -10.789  0.00  0.00    +0.211 HD
ENDBRANCH  15  16
ENDBRANCH   4  15
TORSDOF 6
ENDMDL
MODEL 4
REMARK VINA RESULT:      -6.1      2.069      3.355
REMARK  Name = 445238
REMARK  6 active torsions:
REMARK  status: ('A' for Active; 'I' for Inactive)
REMARK    1  A    between atoms: C_2  and  O_7
REMARK    2  A    between atoms: C_3  and  O_9
REMARK    3  A    between atoms: C_4  and  C_15
REMARK    4  A    between atoms: C_5  and  O_11
REMARK    5  A    between atoms: C_6  and  O_13
REMARK    6  A    between atoms: C_15  and  O_16
REMARK                            x       y       z     vdW  Elec       q    Type
REMARK                         _______ _______ _______ _____ _____    ______ ____
ROOT
ATOM      1  O   UNL     1      38.097 -24.383 -14.600  0.00  0.00    -0.326 OA
ATOM      2  C   UNL     1      35.986 -23.404 -13.925  0.00  0.00    +0.169 C 
ATOM      3  C   UNL     1      35.747 -24.565 -12.959  0.00  0.00    +0.172 C 
ATOM      4  C   UNL     1      36.871 -23.843 -15.095  0.00  0.00    +0.176 C 
ATOM      5  C   UNL     1      37.061 -25.249 -12.582  0.00  0.00    +0.196 C 
ATOM      6  C   UNL     1      37.902 -25.560 -13.820  0.00  0.00    +0.266 C 
ENDROOT
BRANCH   2   7
ATOM      7  O   UNL     1      34.732 -22.946 -14.429  0.00  0.00    -0.379 OA
ATOM      8  H   UNL     1      34.346 -23.627 -15.002  0.00  0.00    +0.211 HD
ENDBRANCH   2   7
BRANCH   3   9
ATOM      9  O   UNL     1      35.128 -24.042 -11.783  0.00  0.00    -0.379 OA
ATOM     10  H   UNL     1      34.495 -24.689 -11.436  0.00  0.00    +0.211 HD
ENDBRANCH   3   9
BRANCH   5  11
ATOM     11  O   UNL     1      36.780 -26.478 -11.912  0.00  0.00    -0.378 OA
ATOM     12  H   UNL     1      36.059 -26.343 -11.278  0.00  0.00    +0.211 HD
ENDBRANCH   5  11
BRANCH   6  13
ATOM     13  O   UNL     1      39.164 -26.062 -13.381  0.00  0.00    -0.326 OA
ATOM     14  C   UNL     1      40.217 -25.619 -14.221  0.00  0.00    +0.177 C 
ENDBRANCH   6  13
BRANCH   4  15
ATOM     15  C   UNL     1      37.218 -22.672 -16.009  0.00  0.00    +0.169 C 
BRANCH  15  16
ATOM     16  O   UNL     1      36.228 -22.581 -17.019  0.00  0.00    -0.379 OA
ATOM     17  H   UNL     1      36.651 -22.369 -17.865  0.00  0.00    +0.211 HD
ENDBRANCH  15  16
ENDBRANCH   4  15
TORSDOF 6
ENDMDL
MODEL 5
REMARK VINA RESULT:      -6.0      2.048      3.570
REMARK  Name = 445238
REMARK  6 active torsions:
REMARK  status: ('A' for Active; 'I' for Inactive)
REMARK    1  A    between atoms: C_2  and  O_7
REMARK    2  A    between atoms: C_3  and  O_9
REMARK    3  A    between atoms: C_4  and  C_15
REMARK    4  A    between atoms: C_5  and  O_11
REMARK    5  A    between atoms: C_6  and  O_13
REMARK    6  A    between atoms: C_15  and  O_16
REMARK                            x       y       z     vdW  Elec       q    Type
REMARK                         _______ _______ _______ _____ _____    ______ ____
ROOT
ATOM      1  O   UNL     1      36.379 -24.553 -14.623  0.00  0.00    -0.326 OA
ATOM      2  C   UNL     1      37.040 -24.893 -12.316  0.00  0.00    +0.169 C 
ATOM      3  C   UNL     1      35.726 -24.271 -11.840  0.00  0.00    +0.172 C 
ATOM      4  C   UNL     1      37.438 -24.341 -13.687  0.00  0.00    +0.176 C 
ATOM      5  C   UNL     1      34.654 -24.346 -12.927  0.00  0.00    +0.196 C 
ATOM      6  C   UNL     1      35.188 -23.853 -14.272  0.00  0.00    +0.266 C 
ENDROOT
BRANCH   2   7
ATOM      7  O   UNL     1      38.068 -24.599 -11.373  0.00  0.00    -0.379 OA
ATOM      8  H   UNL     1      38.934 -24.686 -11.801  0.00  0.00    +0.211 HD
ENDBRANCH   2   7
BRANCH   3   9
ATOM      9  O   UNL     1      35.287 -24.993 -10.688  0.00  0.00    -0.379 OA
ATOM     10  H   UNL     1      34.333 -24.864 -10.571  0.00  0.00    +0.211 HD
ENDBRANCH   3   9
BRANCH   5  11
ATOM     11  O   UNL     1      33.547 -23.523 -12.558  0.00  0.00    -0.378 OA
ATOM     12  H   UNL     1      32.738 -23.868 -12.968  0.00  0.00    +0.211 HD
ENDBRANCH   5  11
BRANCH   6  13
ATOM     13  O   UNL     1      34.183 -24.085 -15.258  0.00  0.00    -0.326 OA
ATOM     14  C   UNL     1      34.330 -23.207 -16.363  0.00  0.00    +0.177 C 
ENDBRANCH   6  13
BRANCH   4  15
ATOM     15  C   UNL     1      38.683 -25.032 -14.234  0.00  0.00    +0.169 C 
BRANCH  15  16
ATOM     16  O   UNL     1      39.146 -24.301 -15.356  0.00  0.00    -0.379 OA
ATOM     17  H   UNL     1      38.483 -24.339 -16.062  0.00  0.00    +0.211 HD
ENDBRANCH  15  16
ENDBRANCH   4  15
TORSDOF 6
ENDMDL
MODEL 6
REMARK VINA RESULT:      -6.0      1.974      4.351
REMARK  Name = 445238
REMARK  6 active torsions:
REMARK  status: ('A' for Active; 'I' for Inactive)
REMARK    1  A    between atoms: C_2  and  O_7
REMARK    2  A    between atoms: C_3  and  O_9
REMARK    3  A    between atoms: C_4  and  C_15
REMARK    4  A    between atoms: C_5  and  O_11
REMARK    5  A    between atoms: C_6  and  O_13
REMARK    6  A    between atoms: C_15  and  O_16
REMARK                            x       y       z     vdW  Elec       q    Type
REMARK                         _______ _______ _______ _____ _____    ______ ____
ROOT
ATOM      1  O   UNL     1      36.822 -23.476 -14.202  0.00  0.00    -0.326 OA
ATOM      2  C   UNL     1      37.381 -25.315 -12.727  0.00  0.00    +0.169 C 
ATOM      3  C   UNL     1      38.413 -25.821 -13.736  0.00  0.00    +0.172 C 
ATOM      4  C   UNL     1      36.264 -24.542 -13.432  0.00  0.00    +0.176 C 
ATOM      5  C   UNL     1      38.865 -24.701 -14.673  0.00  0.00    +0.196 C 
ATOM      6  C   UNL     1      37.670 -23.941 -15.249  0.00  0.00    +0.266 C 
ENDROOT
BRANCH   2   7
ATOM      7  O   UNL     1      36.820 -26.426 -12.032  0.00  0.00    -0.379 OA
ATOM      8  H   UNL     1      37.424 -26.706 -11.327  0.00  0.00    +0.211 HD
ENDBRANCH   2   7
BRANCH   3   9
ATOM      9  O   UNL     1      39.539 -26.315 -13.008  0.00  0.00    -0.379 OA
ATOM     10  H   UNL     1      39.237 -26.695 -12.168  0.00  0.00    +0.211 HD
ENDBRANCH   3   9
BRANCH   5  11
ATOM     11  O   UNL     1      39.604 -25.260 -15.758  0.00  0.00    -0.378 OA
ATOM     12  H   UNL     1      39.814 -26.187 -15.563  0.00  0.00    +0.211 HD
ENDBRANCH   5  11
BRANCH   6  13
ATOM     13  O   UNL     1      38.171 -22.831 -15.994  0.00  0.00    -0.326 OA
ATOM     14  C   UNL     1      37.124 -21.958 -16.387  0.00  0.00    +0.177 C 
ENDBRANCH   6  13
BRANCH   4  15
ATOM     15  C   UNL     1      35.286 -23.929 -12.436  0.00  0.00    +0.169 C 
BRANCH  15  16
ATOM     16  O   UNL     1      34.529 -24.972 -11.848  0.00  0.00    -0.379 OA
ATOM     17  H   UNL     1      35.055 -25.787 -11.841  0.00  0.00    +0.211 HD
ENDBRANCH  15  16
ENDBRANCH   4  15
TORSDOF 6
ENDMDL
MODEL 7
REMARK VINA RESULT:      -6.0      2.157      4.630
REMARK  Name = 445238
REMARK  6 active torsions:
REMARK  status: ('A' for Active; 'I' for Inactive)
REMARK    1  A    between atoms: C_2  and  O_7
REMARK    2  A    between atoms: C_3  and  O_9
REMARK    3  A    between atoms: C_4  and  C_15
REMARK    4  A    between atoms: C_5  and  O_11
REMARK    5  A    between atoms: C_6  and  O_13
REMARK    6  A    between atoms: C_15  and  O_16
REMARK                            x       y       z     vdW  Elec       q    Type
REMARK                         _______ _______ _______ _____ _____    ______ ____
ROOT
ATOM      1  O   UNL     1      35.933 -23.601 -14.701  0.00  0.00    -0.326 OA
ATOM      2  C   UNL     1      35.528 -24.268 -12.406  0.00  0.00    +0.169 C 
ATOM      3  C   UNL     1      36.999 -24.654 -12.250  0.00  0.00    +0.172 C 
ATOM      4  C   UNL     1      35.085 -24.392 -13.866  0.00  0.00    +0.176 C 
ATOM      5  C   UNL     1      37.872 -23.932 -13.276  0.00  0.00    +0.196 C 
ATOM      6  C   UNL     1      37.288 -24.047 -14.684  0.00  0.00    +0.266 C 
ENDROOT
BRANCH   2   7
ATOM      7  O   UNL     1      34.727 -25.126 -11.596  0.00  0.00    -0.379 OA
ATOM      8  H   UNL     1      35.070 -26.032 -11.649  0.00  0.00    +0.211 HD
ENDBRANCH   2   7
BRANCH   3   9
ATOM      9  O   UNL     1      37.414 -24.291 -10.932  0.00  0.00    -0.379 OA
ATOM     10  H   UNL     1      37.551 -23.331 -10.890  0.00  0.00    +0.211 HD
ENDBRANCH   3   9
BRANCH   5  11
ATOM     11  O   UNL     1      39.175 -24.515 -13.284  0.00  0.00    -0.378 OA
ATOM     12  H   UNL     1      39.837 -23.823 -13.438  0.00  0.00    +0.211 HD
ENDBRANCH   5  11
BRANCH   6  13
ATOM     13  O   UNL     1      38.074 -23.234 -15.555  0.00  0.00    -0.326 OA
ATOM     14  C   UNL     1      37.286 -22.230 -16.175  0.00  0.00    +0.177 C 
ENDBRANCH   6  13
BRANCH   4  15
ATOM     15  C   UNL     1      33.655 -23.901 -14.066  0.00  0.00    +0.169 C 
BRANCH  15  16
ATOM     16  O   UNL     1      33.220 -23.281 -12.869  0.00  0.00    -0.379 OA
ATOM     17  H   UNL     1      32.269 -23.430 -12.756  0.00  0.00    +0.211 HD
ENDBRANCH  15  16
ENDBRANCH   4  15
TORSDOF 6
ENDMDL
MODEL 8
REMARK VINA RESULT:      -5.9      2.472      3.353
REMARK  Name = 445238
REMARK  6 active torsions:
REMARK  status: ('A' for Active; 'I' for Inactive)
REMARK    1  A    between atoms: C_2  and  O_7
REMARK    2  A    between atoms: C_3  and  O_9
REMARK    3  A    between atoms: C_4  and  C_15
REMARK    4  A    between atoms: C_5  and  O_11
REMARK    5  A    between atoms: C_6  and  O_13
REMARK    6  A    between atoms: C_15  and  O_16
REMARK                            x       y       z     vdW  Elec       q    Type
REMARK                         _______ _______ _______ _____ _____    ______ ____
ROOT
ATOM      1  O   UNL     1      35.540 -23.413 -14.343  0.00  0.00    -0.326 OA
ATOM      2  C   UNL     1      37.680 -24.313 -15.040  0.00  0.00    +0.169 C 
ATOM      3  C   UNL     1      37.814 -25.049 -13.706  0.00  0.00    +0.172 C 
ATOM      4  C   UNL     1      36.814 -23.060 -14.885  0.00  0.00    +0.176 C 
ATOM      5  C   UNL     1      36.449 -25.258 -13.051  0.00  0.00    +0.196 C 
ATOM      6  C   UNL     1      35.636 -23.963 -13.031  0.00  0.00    +0.266 C 
ENDROOT
BRANCH   2   7
ATOM      7  O   UNL     1      38.975 -23.936 -15.501  0.00  0.00    -0.379 OA
ATOM      8  H   UNL     1      39.468 -24.728 -15.764  0.00  0.00    +0.211 HD
ENDBRANCH   2   7
BRANCH   3   9
ATOM      9  O   UNL     1      38.419 -26.318 -13.960  0.00  0.00    -0.379 OA
ATOM     10  H   UNL     1      38.173 -26.620 -14.848  0.00  0.00    +0.211 HD
ENDBRANCH   3   9
BRANCH   5  11
ATOM     11  O   UNL     1      36.631 -25.691 -11.703  0.00  0.00    -0.378 OA
ATOM     12  H   UNL     1      36.488 -26.649 -11.650  0.00  0.00    +0.211 HD
ENDBRANCH   5  11
BRANCH   6  13
ATOM     13  O   UNL     1      34.332 -24.269 -12.539  0.00  0.00    -0.326 OA
ATOM     14  C   UNL     1      33.371 -24.262 -13.584  0.00  0.00    +0.177 C 
ENDBRANCH   6  13
BRANCH   4  15
ATOM     15  C   UNL     1      36.570 -22.373 -16.225  0.00  0.00    +0.169 C 
BRANCH  15  16
ATOM     16  O   UNL     1      37.492 -21.307 -16.359  0.00  0.00    -0.379 OA
ATOM     17  H   UNL     1      38.319 -21.641 -16.739  0.00  0.00    +0.211 HD
ENDBRANCH  15  16
ENDBRANCH   4  15
TORSDOF 6
ENDMDL
MODEL 9
REMARK VINA RESULT:      -5.9     14.891     15.987
REMARK  Name = 445238
REMARK  6 active torsions:
REMARK  status: ('A' for Active; 'I' for Inactive)
REMARK    1  A    between atoms: C_2  and  O_7
REMARK    2  A    between atoms: C_3  and  O_9
REMARK    3  A    between atoms: C_4  and  C_15
REMARK    4  A    between atoms: C_5  and  O_11
REMARK    5  A    between atoms: C_6  and  O_13
REMARK    6  A    between atoms: C_15  and  O_16
REMARK                            x       y       z     vdW  Elec       q    Type
REMARK                         _______ _______ _______ _____ _____    ______ ____
ROOT
ATOM      1  O   UNL     1      33.143 -13.928 -24.959  0.00  0.00    -0.326 OA
ATOM      2  C   UNL     1      34.213 -14.797 -22.965  0.00  0.00    +0.169 C 
ATOM      3  C   UNL     1      34.543 -16.097 -23.699  0.00  0.00    +0.172 C 
ATOM      4  C   UNL     1      32.963 -14.140 -23.557  0.00  0.00    +0.176 C 
ATOM      5  C   UNL     1      34.552 -15.890 -25.213  0.00  0.00    +0.196 C 
ATOM      6  C   UNL     1      33.301 -15.148 -25.681  0.00  0.00    +0.266 C 
ENDROOT
BRANCH   2   7
ATOM      7  O   UNL     1      33.987 -15.079 -21.585  0.00  0.00    -0.379 OA
ATOM      8  H   UNL     1      33.633 -15.978 -21.493  0.00  0.00    +0.211 HD
ENDBRANCH   2   7
BRANCH   3   9
ATOM      9  O   UNL     1      35.835 -16.530 -23.270  0.00  0.00    -0.379 OA
ATOM     10  H   UNL     1      36.494 -15.855 -23.497  0.00  0.00    +0.211 HD
ENDBRANCH   3   9
BRANCH   5  11
ATOM     11  O   UNL     1      34.589 -17.159 -25.865  0.00  0.00    -0.378 OA
ATOM     12  H   UNL     1      34.700 -17.859 -25.203  0.00  0.00    +0.211 HD
ENDBRANCH   5  11
BRANCH   6  13
ATOM     13  O   UNL     1      33.449 -14.868 -27.073  0.00  0.00    -0.326 OA
ATOM     14  C   UNL     1      33.414 -13.472 -27.325  0.00  0.00    +0.177 C 
ENDBRANCH   6  13
BRANCH   4  15
ATOM     15  C   UNL     1      32.681 -12.784 -22.918  0.00  0.00    +0.169 C 
BRANCH  15  16
ATOM     16  O   UNL     1      31.721 -12.961 -21.892  0.00  0.00    -0.379 OA
ATOM     17  H   UNL     1      31.607 -12.127 -21.411  0.00  0.00    +0.211 HD
ENDBRANCH  15  16
ENDBRANCH   4  15
TORSDOF 6
ENDMDL
