MODEL 1
REMARK VINA RESULT:      -7.2      0.000      0.000
REMARK  Name = 31721
REMARK  4 active torsions:
REMARK  status: ('A' for Active; 'I' for Inactive)
REMARK    1  A    between atoms: C_1  and  C_9
REMARK    2  A    between atoms: C_6  and  O_7
REMARK    3  A    between atoms: C_9  and  C_10
REMARK    4  A    between atoms: C_10  and  N_12
REMARK                            x       y       z     vdW  Elec       q    Type
REMARK                         _______ _______ _______ _____ _____    ______ ____
ROOT
ATOM      1  C   UNL     1      34.987 -19.545 -20.978  0.00  0.00    -0.024 C 
ATOM      2  C   UNL     1      33.603 -19.514 -21.021  0.00  0.00    -0.001 C 
ATOM      3  C   UNL     1      35.663 -20.507 -20.244  0.00  0.00    -0.001 C 
ATOM      4  C   UNL     1      32.875 -20.468 -20.311  0.00  0.00    +0.037 C 
ATOM      5  C   UNL     1      34.935 -21.462 -19.534  0.00  0.00    +0.037 C 
ATOM      6  C   UNL     1      33.541 -21.442 -19.567  0.00  0.00    +0.139 C 
ENDROOT
BRANCH   6   7
ATOM      7  O   UNL     1      32.830 -22.374 -18.874  0.00  0.00    -0.471 OA
ATOM      8  C   UNL     1      33.514 -23.072 -17.836  0.00  0.00    +0.252 C 
ENDBRANCH   6   7
BRANCH   1   9
ATOM      9  C   UNL     1      35.776 -18.512 -21.747  0.00  0.00    +0.005 C 
BRANCH   9  10
ATOM     10  C   UNL     1      34.946 -17.281 -22.153  0.00  0.00    -0.061 C 
ATOM     11  C   UNL     1      34.838 -16.250 -21.028  0.00  0.00    -0.024 C 
BRANCH  10  12
ATOM     12  N   UNL     1      35.566 -16.633 -23.314  0.00  0.00    +0.382 N 
ATOM     13  H   UNL     1      36.337 -17.208 -23.651  0.00  0.00    -0.089 HD
ATOM     14  H   UNL     1      35.919 -15.716 -23.042  0.00  0.00    -0.089 HD
ATOM     15  H   UNL     1      34.872 -16.526 -24.053  0.00  0.00    -0.089 HD
ENDBRANCH  10  12
ENDBRANCH   9  10
ENDBRANCH   1   9
TORSDOF 4
ENDMDL
MODEL 2
REMARK VINA RESULT:      -7.2      1.134      1.551
REMARK  Name = 31721
REMARK  4 active torsions:
REMARK  status: ('A' for Active; 'I' for Inactive)
REMARK    1  A    between atoms: C_1  and  C_9
REMARK    2  A    between atoms: C_6  and  O_7
REMARK    3  A    between atoms: C_9  and  C_10
REMARK    4  A    between atoms: C_10  and  N_12
REMARK                            x       y       z     vdW  Elec       q    Type
REMARK                         _______ _______ _______ _____ _____    ______ ____
ROOT
ATOM      1  C   UNL     1      34.512 -19.462 -20.935  0.00  0.00    -0.024 C 
ATOM      2  C   UNL     1      33.310 -20.013 -20.522  0.00  0.00    -0.001 C 
ATOM      3  C   UNL     1      35.724 -20.050 -20.607  0.00  0.00    -0.001 C 
ATOM      4  C   UNL     1      33.318 -21.181 -19.760  0.00  0.00    +0.037 C 
ATOM      5  C   UNL     1      35.732 -21.220 -19.845  0.00  0.00    +0.037 C 
ATOM      6  C   UNL     1      34.529 -21.784 -19.422  0.00  0.00    +0.139 C 
ENDROOT
BRANCH   6   7
ATOM      7  O   UNL     1      34.537 -22.925 -18.678  0.00  0.00    -0.471 OA
ATOM      8  C   UNL     1      33.438 -23.130 -17.792  0.00  0.00    +0.252 C 
ENDBRANCH   6   7
BRANCH   1   9
ATOM      9  C   UNL     1      34.503 -18.198 -21.760  0.00  0.00    +0.005 C 
BRANCH   9  10
ATOM     10  C   UNL     1      35.412 -18.265 -23.001  0.00  0.00    -0.061 C 
ATOM     11  C   UNL     1      34.808 -19.111 -24.123  0.00  0.00    -0.024 C 
BRANCH  10  12
ATOM     12  N   UNL     1      35.640 -16.911 -23.515  0.00  0.00    +0.382 N 
ATOM     13  H   UNL     1      34.787 -16.361 -23.413  0.00  0.00    -0.089 HD
ATOM     14  H   UNL     1      35.895 -16.961 -24.501  0.00  0.00    -0.089 HD
ATOM     15  H   UNL     1      36.395 -16.471 -22.990  0.00  0.00    -0.089 HD
ENDBRANCH  10  12
ENDBRANCH   9  10
ENDBRANCH   1   9
TORSDOF 4
ENDMDL
MODEL 3
REMARK VINA RESULT:      -6.7      3.704      6.089
REMARK  Name = 31721
REMARK  4 active torsions:
REMARK  status: ('A' for Active; 'I' for Inactive)
REMARK    1  A    between atoms: C_1  and  C_9
REMARK    2  A    between atoms: C_6  and  O_7
REMARK    3  A    between atoms: C_9  and  C_10
REMARK    4  A    between atoms: C_10  and  N_12
REMARK                            x       y       z     vdW  Elec       q    Type
REMARK                         _______ _______ _______ _____ _____    ______ ____
ROOT
ATOM      1  C   UNL     1      35.288 -17.910 -22.588  0.00  0.00    -0.024 C 
ATOM      2  C   UNL     1      35.116 -18.684 -23.724  0.00  0.00    -0.001 C 
ATOM      3  C   UNL     1      35.058 -16.543 -22.606  0.00  0.00    -0.001 C 
ATOM      4  C   UNL     1      34.705 -18.076 -24.909  0.00  0.00    +0.037 C 
ATOM      5  C   UNL     1      34.645 -15.935 -23.792  0.00  0.00    +0.037 C 
ATOM      6  C   UNL     1      34.469 -16.702 -24.944  0.00  0.00    +0.139 C 
ENDROOT
BRANCH   6   7
ATOM      7  O   UNL     1      34.067 -16.109 -26.102  0.00  0.00    -0.471 OA
ATOM      8  C   UNL     1      33.127 -15.042 -25.992  0.00  0.00    +0.252 C 
ENDBRANCH   6   7
BRANCH   1   9
ATOM      9  C   UNL     1      35.734 -18.567 -21.304  0.00  0.00    +0.005 C 
BRANCH   9  10
ATOM     10  C   UNL     1      35.128 -19.965 -21.085  0.00  0.00    -0.061 C 
ATOM     11  C   UNL     1      35.925 -20.797 -20.078  0.00  0.00    -0.024 C 
BRANCH  10  12
ATOM     12  N   UNL     1      33.755 -19.833 -20.589  0.00  0.00    +0.382 N 
ATOM     13  H   UNL     1      33.348 -18.969 -20.945  0.00  0.00    -0.089 HD
ATOM     14  H   UNL     1      33.762 -19.810 -19.570  0.00  0.00    -0.089 HD
ATOM     15  H   UNL     1      33.201 -20.628 -20.908  0.00  0.00    -0.089 HD
ENDBRANCH  10  12
ENDBRANCH   9  10
ENDBRANCH   1   9
TORSDOF 4
ENDMDL
MODEL 4
REMARK VINA RESULT:      -6.4      1.163      1.890
REMARK  Name = 31721
REMARK  4 active torsions:
REMARK  status: ('A' for Active; 'I' for Inactive)
REMARK    1  A    between atoms: C_1  and  C_9
REMARK    2  A    between atoms: C_6  and  O_7
REMARK    3  A    between atoms: C_9  and  C_10
REMARK    4  A    between atoms: C_10  and  N_12
REMARK                            x       y       z     vdW  Elec       q    Type
REMARK                         _______ _______ _______ _____ _____    ______ ____
ROOT
ATOM      1  C   UNL     1      35.537 -19.020 -20.989  0.00  0.00    -0.024 C 
ATOM      2  C   UNL     1      36.629 -19.705 -20.480  0.00  0.00    -0.001 C 
ATOM      3  C   UNL     1      34.248 -19.505 -20.836  0.00  0.00    -0.001 C 
ATOM      4  C   UNL     1      36.427 -20.907 -19.802  0.00  0.00    +0.037 C 
ATOM      5  C   UNL     1      34.046 -20.707 -20.157  0.00  0.00    +0.037 C 
ATOM      6  C   UNL     1      35.136 -21.408 -19.640  0.00  0.00    +0.139 C 
ENDROOT
BRANCH   6   7
ATOM      7  O   UNL     1      34.939 -22.581 -18.978  0.00  0.00    -0.471 OA
ATOM      8  C   UNL     1      33.634 -22.820 -18.454  0.00  0.00    +0.252 C 
ENDBRANCH   6   7
BRANCH   1   9
ATOM      9  C   UNL     1      35.755 -17.719 -21.723  0.00  0.00    +0.005 C 
BRANCH   9  10
ATOM     10  C   UNL     1      34.760 -17.486 -22.874  0.00  0.00    -0.061 C 
ATOM     11  C   UNL     1      34.209 -16.060 -22.892  0.00  0.00    -0.024 C 
BRANCH  10  12
ATOM     12  N   UNL     1      35.425 -17.740 -24.156  0.00  0.00    +0.382 N 
ATOM     13  H   UNL     1      36.038 -18.549 -24.067  0.00  0.00    -0.089 HD
ATOM     14  H   UNL     1      35.976 -16.924 -24.420  0.00  0.00    -0.089 HD
ATOM     15  H   UNL     1      34.722 -17.922 -24.873  0.00  0.00    -0.089 HD
ENDBRANCH  10  12
ENDBRANCH   9  10
ENDBRANCH   1   9
TORSDOF 4
ENDMDL
MODEL 5
REMARK VINA RESULT:      -6.3      1.563      1.872
REMARK  Name = 31721
REMARK  4 active torsions:
REMARK  status: ('A' for Active; 'I' for Inactive)
REMARK    1  A    between atoms: C_1  and  C_9
REMARK    2  A    between atoms: C_6  and  O_7
REMARK    3  A    between atoms: C_9  and  C_10
REMARK    4  A    between atoms: C_10  and  N_12
REMARK                            x       y       z     vdW  Elec       q    Type
REMARK                         _______ _______ _______ _____ _____    ______ ____
ROOT
ATOM      1  C   UNL     1      35.201 -18.640 -21.540  0.00  0.00    -0.024 C 
ATOM      2  C   UNL     1      34.057 -19.338 -21.188  0.00  0.00    -0.001 C 
ATOM      3  C   UNL     1      36.448 -19.019 -21.070  0.00  0.00    -0.001 C 
ATOM      4  C   UNL     1      34.162 -20.442 -20.342  0.00  0.00    +0.037 C 
ATOM      5  C   UNL     1      36.554 -20.124 -20.224  0.00  0.00    +0.037 C 
ATOM      6  C   UNL     1      35.410 -20.835 -19.860  0.00  0.00    +0.139 C 
ENDROOT
BRANCH   6   7
ATOM      7  O   UNL     1      35.512 -21.912 -19.034  0.00  0.00    -0.471 OA
ATOM      8  C   UNL     1      36.498 -21.850 -18.005  0.00  0.00    +0.252 C 
ENDBRANCH   6   7
BRANCH   1   9
ATOM      9  C   UNL     1      35.087 -17.446 -22.456  0.00  0.00    +0.005 C 
BRANCH   9  10
ATOM     10  C   UNL     1      34.099 -16.377 -21.955  0.00  0.00    -0.061 C 
ATOM     11  C   UNL     1      34.603 -15.651 -20.707  0.00  0.00    -0.024 C 
BRANCH  10  12
ATOM     12  N   UNL     1      33.876 -15.383 -23.009  0.00  0.00    +0.382 N 
ATOM     13  H   UNL     1      33.122 -15.698 -23.619  0.00  0.00    -0.089 HD
ATOM     14  H   UNL     1      34.730 -15.269 -23.555  0.00  0.00    -0.089 HD
ATOM     15  H   UNL     1      33.621 -14.490 -22.586  0.00  0.00    -0.089 HD
ENDBRANCH  10  12
ENDBRANCH   9  10
ENDBRANCH   1   9
TORSDOF 4
ENDMDL
MODEL 6
REMARK VINA RESULT:      -6.3      3.391      5.745
REMARK  Name = 31721
REMARK  4 active torsions:
REMARK  status: ('A' for Active; 'I' for Inactive)
REMARK    1  A    between atoms: C_1  and  C_9
REMARK    2  A    between atoms: C_6  and  O_7
REMARK    3  A    between atoms: C_9  and  C_10
REMARK    4  A    between atoms: C_10  and  N_12
REMARK                            x       y       z     vdW  Elec       q    Type
REMARK                         _______ _______ _______ _____ _____    ______ ____
ROOT
ATOM      1  C   UNL     1      34.181 -21.990 -19.286  0.00  0.00    -0.024 C 
ATOM      2  C   UNL     1      35.556 -21.833 -19.354  0.00  0.00    -0.001 C 
ATOM      3  C   UNL     1      33.323 -21.091 -19.898  0.00  0.00    -0.001 C 
ATOM      4  C   UNL     1      36.087 -20.749 -20.051  0.00  0.00    +0.037 C 
ATOM      5  C   UNL     1      33.854 -20.005 -20.596  0.00  0.00    +0.037 C 
ATOM      6  C   UNL     1      35.236 -19.835 -20.672  0.00  0.00    +0.139 C 
ENDROOT
BRANCH   6   7
ATOM      7  O   UNL     1      35.755 -18.775 -21.352  0.00  0.00    -0.471 OA
ATOM      8  C   UNL     1      35.076 -17.527 -21.227  0.00  0.00    +0.252 C 
ENDBRANCH   6   7
BRANCH   1   9
ATOM      9  C   UNL     1      33.606 -23.165 -18.532  0.00  0.00    +0.005 C 
BRANCH   9  10
ATOM     10  C   UNL     1      33.382 -22.886 -17.034  0.00  0.00    -0.061 C 
ATOM     11  C   UNL     1      31.954 -23.202 -16.587  0.00  0.00    -0.024 C 
BRANCH  10  12
ATOM     12  N   UNL     1      34.306 -23.702 -16.240  0.00  0.00    +0.382 N 
ATOM     13  H   UNL     1      34.512 -24.566 -16.741  0.00  0.00    -0.089 HD
ATOM     14  H   UNL     1      33.877 -23.924 -15.342  0.00  0.00    -0.089 HD
ATOM     15  H   UNL     1      35.170 -23.183 -16.086  0.00  0.00    -0.089 HD
ENDBRANCH  10  12
ENDBRANCH   9  10
ENDBRANCH   1   9
TORSDOF 4
ENDMDL
MODEL 7
REMARK VINA RESULT:      -6.3      3.976      6.533
REMARK  Name = 31721
REMARK  4 active torsions:
REMARK  status: ('A' for Active; 'I' for Inactive)
REMARK    1  A    between atoms: C_1  and  C_9
REMARK    2  A    between atoms: C_6  and  O_7
REMARK    3  A    between atoms: C_9  and  C_10
REMARK    4  A    between atoms: C_10  and  N_12
REMARK                            x       y       z     vdW  Elec       q    Type
REMARK                         _______ _______ _______ _____ _____    ______ ____
ROOT
ATOM      1  C   UNL     1      35.007 -17.306 -23.309  0.00  0.00    -0.024 C 
ATOM      2  C   UNL     1      34.807 -16.179 -22.528  0.00  0.00    -0.001 C 
ATOM      3  C   UNL     1      34.635 -17.333 -24.644  0.00  0.00    -0.001 C 
ATOM      4  C   UNL     1      34.218 -15.050 -23.096  0.00  0.00    +0.037 C 
ATOM      5  C   UNL     1      34.046 -16.202 -25.212  0.00  0.00    +0.037 C 
ATOM      6  C   UNL     1      33.838 -15.061 -24.437  0.00  0.00    +0.139 C 
ENDROOT
BRANCH   6   7
ATOM      7  O   UNL     1      33.263 -13.958 -24.991  0.00  0.00    -0.471 OA
ATOM      8  C   UNL     1      33.661 -12.689 -24.474  0.00  0.00    +0.252 C 
ENDBRANCH   6   7
BRANCH   1   9
ATOM      9  C   UNL     1      35.644 -18.529 -22.695  0.00  0.00    +0.005 C 
BRANCH   9  10
ATOM     10  C   UNL     1      35.302 -18.721 -21.206  0.00  0.00    -0.061 C 
ATOM     11  C   UNL     1      34.107 -19.652 -20.996  0.00  0.00    -0.024 C 
BRANCH  10  12
ATOM     12  N   UNL     1      36.459 -19.289 -20.507  0.00  0.00    +0.382 N 
ATOM     13  H   UNL     1      36.138 -19.957 -19.806  0.00  0.00    -0.089 HD
ATOM     14  H   UNL     1      36.980 -18.541 -20.050  0.00  0.00    -0.089 HD
ATOM     15  H   UNL     1      37.063 -19.763 -21.178  0.00  0.00    -0.089 HD
ENDBRANCH  10  12
ENDBRANCH   9  10
ENDBRANCH   1   9
TORSDOF 4
ENDMDL
MODEL 8
REMARK VINA RESULT:      -6.2      1.452      2.264
REMARK  Name = 31721
REMARK  4 active torsions:
REMARK  status: ('A' for Active; 'I' for Inactive)
REMARK    1  A    between atoms: C_1  and  C_9
REMARK    2  A    between atoms: C_6  and  O_7
REMARK    3  A    between atoms: C_9  and  C_10
REMARK    4  A    between atoms: C_10  and  N_12
REMARK                            x       y       z     vdW  Elec       q    Type
REMARK                         _______ _______ _______ _____ _____    ______ ____
ROOT
ATOM      1  C   UNL     1      35.241 -20.599 -20.042  0.00  0.00    -0.024 C 
ATOM      2  C   UNL     1      36.167 -21.166 -19.180  0.00  0.00    -0.001 C 
ATOM      3  C   UNL     1      33.906 -20.969 -20.008  0.00  0.00    -0.001 C 
ATOM      4  C   UNL     1      35.747 -22.127 -18.262  0.00  0.00    +0.037 C 
ATOM      5  C   UNL     1      33.486 -21.931 -19.088  0.00  0.00    +0.037 C 
ATOM      6  C   UNL     1      34.407 -22.510 -18.216  0.00  0.00    +0.139 C 
ENDROOT
BRANCH   6   7
ATOM      7  O   UNL     1      33.998 -23.449 -17.319  0.00  0.00    -0.471 OA
ATOM      8  C   UNL     1      34.632 -23.447 -16.041  0.00  0.00    +0.252 C 
ENDBRANCH   6   7
BRANCH   1   9
ATOM      9  C   UNL     1      35.694 -19.558 -21.036  0.00  0.00    +0.005 C 
BRANCH   9  10
ATOM     10  C   UNL     1      34.539 -18.911 -21.822  0.00  0.00    -0.061 C 
ATOM     11  C   UNL     1      34.319 -17.446 -21.439  0.00  0.00    -0.024 C 
BRANCH  10  12
ATOM     12  N   UNL     1      34.827 -18.974 -23.258  0.00  0.00    +0.382 N 
ATOM     13  H   UNL     1      34.056 -18.554 -23.777  0.00  0.00    -0.089 HD
ATOM     14  H   UNL     1      34.935 -19.948 -23.540  0.00  0.00    -0.089 HD
ATOM     15  H   UNL     1      35.688 -18.465 -23.454  0.00  0.00    -0.089 HD
ENDBRANCH  10  12
ENDBRANCH   9  10
ENDBRANCH   1   9
TORSDOF 4
ENDMDL
MODEL 9
REMARK VINA RESULT:      -6.1      3.121      4.787
REMARK  Name = 31721
REMARK  4 active torsions:
REMARK  status: ('A' for Active; 'I' for Inactive)
REMARK    1  A    between atoms: C_1  and  C_9
REMARK    2  A    between atoms: C_6  and  O_7
REMARK    3  A    between atoms: C_9  and  C_10
REMARK    4  A    between atoms: C_10  and  N_12
REMARK                            x       y       z     vdW  Elec       q    Type
REMARK                         _______ _______ _______ _____ _____    ______ ____
ROOT
ATOM      1  C   UNL     1      34.310 -15.647 -23.066  0.00  0.00    -0.024 C 
ATOM      2  C   UNL     1      34.343 -15.429 -21.697  0.00  0.00    -0.001 C 
ATOM      3  C   UNL     1      34.778 -16.828 -23.618  0.00  0.00    -0.001 C 
ATOM      4  C   UNL     1      34.859 -16.418 -20.860  0.00  0.00    +0.037 C 
ATOM      5  C   UNL     1      35.294 -17.818 -22.780  0.00  0.00    +0.037 C 
ATOM      6  C   UNL     1      35.334 -17.612 -21.401  0.00  0.00    +0.139 C 
ENDROOT
BRANCH   6   7
ATOM      7  O   UNL     1      35.838 -18.577 -20.583  0.00  0.00    -0.471 OA
ATOM      8  C   UNL     1      35.379 -19.911 -20.793  0.00  0.00    +0.252 C 
ENDBRANCH   6   7
BRANCH   1   9
ATOM      9  C   UNL     1      33.751 -14.577 -23.972  0.00  0.00    +0.005 C 
BRANCH   9  10
ATOM     10  C   UNL     1      33.433 -13.258 -23.246  0.00  0.00    -0.061 C 
ATOM     11  C   UNL     1      33.723 -12.029 -24.109  0.00  0.00    -0.024 C 
BRANCH  10  12
ATOM     12  N   UNL     1      32.016 -13.234 -22.871  0.00  0.00    +0.382 N 
ATOM     13  H   UNL     1      31.692 -12.268 -22.825  0.00  0.00    -0.089 HD
ATOM     14  H   UNL     1      31.898 -13.675 -21.959  0.00  0.00    -0.089 HD
ATOM     15  H   UNL     1      31.471 -13.743 -23.568  0.00  0.00    -0.089 HD
ENDBRANCH  10  12
ENDBRANCH   9  10
ENDBRANCH   1   9
TORSDOF 4
ENDMDL
