MODEL 1
REMARK VINA RESULT:      -7.9      0.000      0.000
REMARK  Name = 60786
REMARK  5 active torsions:
REMARK  status: ('A' for Active; 'I' for Inactive)
REMARK    1  A    between atoms: N_2  and  C_16
REMARK    2  A    between atoms: C_15  and  C_19
REMARK    3  A    between atoms: C_17  and  C_22
REMARK    4  A    between atoms: C_19  and  O_20
REMARK    5  A    between atoms: C_22  and  O_23
REMARK                            x       y       z     vdW  Elec       q    Type
REMARK                         _______ _______ _______ _____ _____    ______ ____
ROOT
ATOM      1  O   UNL     1      30.718 -23.152 -14.661  0.00  0.00    -0.208 OA
ATOM      2  N   UNL     1      35.070 -24.271 -14.181  0.00  0.00    -0.233 NA
ATOM      3  N   UNL     1      33.099 -24.001 -13.144  0.00  0.00    -0.241 NA
ATOM      4  N   UNL     1      34.338 -23.674 -16.423  0.00  0.00    -0.279 N 
ATOM      5  N   UNL     1      32.013 -23.095 -16.582  0.00  0.00    -0.301 NA
ATOM      6  N   UNL     1      33.434 -23.076 -18.463  0.00  0.00    -0.320 N 
ATOM      7  C   UNL     1      34.171 -23.882 -15.114  0.00  0.00    +0.189 C 
ATOM      8  C   UNL     1      34.372 -24.330 -12.997  0.00  0.00    +0.203 C 
ATOM      9  C   UNL     1      32.976 -23.720 -14.476  0.00  0.00    +0.183 C 
ATOM     10  C   UNL     1      31.800 -23.302 -15.213  0.00  0.00    +0.224 C 
ATOM     11  C   UNL     1      33.203 -23.274 -17.126  0.00  0.00    +0.245 C 
ATOM     12  H   UNL     1      35.209 -23.797 -16.864  0.00  0.00    +0.152 HD
ATOM     13  H   UNL     1      34.335 -23.219 -18.834  0.00  0.00    +0.146 HD
ATOM     14  H   UNL     1      32.698 -22.791 -19.052  0.00  0.00    +0.146 HD
ENDROOT
BRANCH   2  16
ATOM     15  C   UNL     1      37.137 -25.170 -13.109  0.00  0.00    +0.047 C 
ATOM     16  C   UNL     1      36.466 -24.573 -14.363  0.00  0.00    +0.064 C 
ATOM     17  C   UNL     1      37.887 -26.127 -14.059  0.00  0.00    +0.034 C 
ATOM     18  C   UNL     1      36.723 -25.930 -15.052  0.00  0.00    +0.019 C 
BRANCH  15  19
ATOM     19  C   UNL     1      37.985 -24.180 -12.327  0.00  0.00    +0.139 C 
BRANCH  19  20
ATOM     20  O   UNL     1      37.662 -22.864 -12.746  0.00  0.00    -0.382 OA
ATOM     21  H   UNL     1      37.867 -22.239 -12.034  0.00  0.00    +0.210 HD
ENDBRANCH  19  20
ENDBRANCH  15  19
BRANCH  17  22
ATOM     22  C   UNL     1      39.237 -25.619 -14.588  0.00  0.00    +0.137 C 
BRANCH  22  23
ATOM     23  O   UNL     1      40.131 -26.718 -14.693  0.00  0.00    -0.382 OA
ATOM     24  H   UNL     1      39.884 -27.399 -14.049  0.00  0.00    +0.210 HD
ENDBRANCH  22  23
ENDBRANCH  17  22
ENDBRANCH   2  16
TORSDOF 5
ENDMDL
MODEL 2
REMARK VINA RESULT:      -7.9      1.712      3.135
REMARK  Name = 60786
REMARK  5 active torsions:
REMARK  status: ('A' for Active; 'I' for Inactive)
REMARK    1  A    between atoms: N_2  and  C_16
REMARK    2  A    between atoms: C_15  and  C_19
REMARK    3  A    between atoms: C_17  and  C_22
REMARK    4  A    between atoms: C_19  and  O_20
REMARK    5  A    between atoms: C_22  and  O_23
REMARK                            x       y       z     vdW  Elec       q    Type
REMARK                         _______ _______ _______ _____ _____    ______ ____
ROOT
ATOM      1  O   UNL     1      30.615 -22.645 -17.089  0.00  0.00    -0.208 OA
ATOM      2  N   UNL     1      34.529 -23.947 -15.242  0.00  0.00    -0.233 NA
ATOM      3  N   UNL     1      33.550 -22.901 -16.969  0.00  0.00    -0.241 NA
ATOM      4  N   UNL     1      32.504 -24.513 -14.019  0.00  0.00    -0.279 N 
ATOM      5  N   UNL     1      30.475 -23.782 -15.075  0.00  0.00    -0.301 NA
ATOM      6  N   UNL     1      30.464 -24.947 -13.025  0.00  0.00    -0.320 N 
ATOM      7  C   UNL     1      33.193 -23.981 -15.032  0.00  0.00    +0.189 C 
ATOM      8  C   UNL     1      34.699 -23.280 -16.434  0.00  0.00    +0.203 C 
ATOM      9  C   UNL     1      32.606 -23.344 -16.086  0.00  0.00    +0.183 C 
ATOM     10  C   UNL     1      31.164 -23.213 -16.154  0.00  0.00    +0.224 C 
ATOM     11  C   UNL     1      31.118 -24.383 -14.090  0.00  0.00    +0.245 C 
ATOM     12  H   UNL     1      32.948 -24.968 -13.268  0.00  0.00    +0.152 HD
ATOM     13  H   UNL     1      30.977 -25.386 -12.309  0.00  0.00    +0.146 HD
ATOM     14  H   UNL     1      29.481 -24.911 -12.977  0.00  0.00    +0.146 HD
ENDROOT
BRANCH   2  16
ATOM     15  C   UNL     1      36.661 -25.244 -15.195  0.00  0.00    +0.047 C 
ATOM     16  C   UNL     1      35.574 -24.481 -14.409  0.00  0.00    +0.064 C 
ATOM     17  C   UNL     1      37.694 -24.584 -14.258  0.00  0.00    +0.034 C 
ATOM     18  C   UNL     1      36.667 -23.452 -14.048  0.00  0.00    +0.019 C 
BRANCH  15  19
ATOM     19  C   UNL     1      36.537 -26.757 -15.118  0.00  0.00    +0.139 C 
BRANCH  19  20
ATOM     20  O   UNL     1      36.809 -27.308 -16.396  0.00  0.00    -0.382 OA
ATOM     21  H   UNL     1      36.936 -26.592 -17.037  0.00  0.00    +0.210 HD
ENDBRANCH  19  20
ENDBRANCH  15  19
BRANCH  17  22
ATOM     22  C   UNL     1      38.022 -25.361 -12.974  0.00  0.00    +0.137 C 
BRANCH  22  23
ATOM     23  O   UNL     1      39.288 -25.988 -13.128  0.00  0.00    -0.382 OA
ATOM     24  H   UNL     1      39.166 -26.875 -13.499  0.00  0.00    +0.210 HD
ENDBRANCH  22  23
ENDBRANCH  17  22
ENDBRANCH   2  16
TORSDOF 5
ENDMDL
MODEL 3
REMARK VINA RESULT:      -7.9      3.659      6.292
REMARK  Name = 60786
REMARK  5 active torsions:
REMARK  status: ('A' for Active; 'I' for Inactive)
REMARK    1  A    between atoms: N_2  and  C_16
REMARK    2  A    between atoms: C_15  and  C_19
REMARK    3  A    between atoms: C_17  and  C_22
REMARK    4  A    between atoms: C_19  and  O_20
REMARK    5  A    between atoms: C_22  and  O_23
REMARK                            x       y       z     vdW  Elec       q    Type
REMARK                         _______ _______ _______ _____ _____    ______ ____
ROOT
ATOM      1  O   UNL     1      36.711 -21.820 -18.411  0.00  0.00    -0.208 OA
ATOM      2  N   UNL     1      32.884 -23.428 -16.623  0.00  0.00    -0.233 NA
ATOM      3  N   UNL     1      35.117 -23.310 -16.428  0.00  0.00    -0.241 NA
ATOM      4  N   UNL     1      32.668 -22.107 -18.653  0.00  0.00    -0.279 N 
ATOM      5  N   UNL     1      34.751 -21.294 -19.531  0.00  0.00    -0.301 NA
ATOM      6  N   UNL     1      32.690 -20.828 -20.578  0.00  0.00    -0.320 N 
ATOM      7  C   UNL     1      33.343 -22.691 -17.660  0.00  0.00    +0.189 C 
ATOM      8  C   UNL     1      34.000 -23.784 -15.900  0.00  0.00    +0.203 C 
ATOM      9  C   UNL     1      34.700 -22.624 -17.535  0.00  0.00    +0.183 C 
ATOM     10  C   UNL     1      35.492 -21.894 -18.505  0.00  0.00    +0.224 C 
ATOM     11  C   UNL     1      33.436 -21.406 -19.582  0.00  0.00    +0.245 C 
ATOM     12  H   UNL     1      31.689 -22.167 -18.725  0.00  0.00    +0.152 HD
ATOM     13  H   UNL     1      31.711 -20.932 -20.583  0.00  0.00    +0.146 HD
ATOM     14  H   UNL     1      33.135 -20.309 -21.286  0.00  0.00    +0.146 HD
ENDROOT
BRANCH   2  16
ATOM     15  C   UNL     1      31.199 -23.726 -14.806  0.00  0.00    +0.047 C 
ATOM     16  C   UNL     1      31.523 -23.778 -16.314  0.00  0.00    +0.064 C 
ATOM     17  C   UNL     1      29.843 -23.101 -15.196  0.00  0.00    +0.034 C 
ATOM     18  C   UNL     1      30.528 -22.610 -16.488  0.00  0.00    +0.019 C 
BRANCH  15  19
ATOM     19  C   UNL     1      31.155 -25.088 -14.134  0.00  0.00    +0.139 C 
BRANCH  19  20
ATOM     20  O   UNL     1      32.257 -25.201 -13.248  0.00  0.00    -0.382 OA
ATOM     21  H   UNL     1      32.285 -24.427 -12.665  0.00  0.00    +0.210 HD
ENDBRANCH  19  20
ENDBRANCH  15  19
BRANCH  17  22
ATOM     22  C   UNL     1      28.698 -24.095 -15.448  0.00  0.00    +0.137 C 
BRANCH  22  23
ATOM     23  O   UNL     1      27.514 -23.367 -15.741  0.00  0.00    -0.382 OA
ATOM     24  H   UNL     1      27.279 -22.813 -14.981  0.00  0.00    +0.210 HD
ENDBRANCH  22  23
ENDBRANCH  17  22
ENDBRANCH   2  16
TORSDOF 5
ENDMDL
MODEL 4
REMARK VINA RESULT:      -7.8      2.064      6.317
REMARK  Name = 60786
REMARK  5 active torsions:
REMARK  status: ('A' for Active; 'I' for Inactive)
REMARK    1  A    between atoms: N_2  and  C_16
REMARK    2  A    between atoms: C_15  and  C_19
REMARK    3  A    between atoms: C_17  and  C_22
REMARK    4  A    between atoms: C_19  and  O_20
REMARK    5  A    between atoms: C_22  and  O_23
REMARK                            x       y       z     vdW  Elec       q    Type
REMARK                         _______ _______ _______ _____ _____    ______ ____
ROOT
ATOM      1  O   UNL     1      38.290 -23.232 -15.653  0.00  0.00    -0.208 OA
ATOM      2  N   UNL     1      33.786 -23.543 -15.877  0.00  0.00    -0.233 NA
ATOM      3  N   UNL     1      35.648 -22.804 -16.889  0.00  0.00    -0.241 NA
ATOM      4  N   UNL     1      34.852 -24.519 -13.920  0.00  0.00    -0.279 N 
ATOM      5  N   UNL     1      37.244 -24.307 -13.887  0.00  0.00    -0.301 NA
ATOM      6  N   UNL     1      36.062 -25.380 -12.150  0.00  0.00    -0.320 N 
ATOM      7  C   UNL     1      34.835 -23.875 -15.090  0.00  0.00    +0.189 C 
ATOM      8  C   UNL     1      34.330 -22.891 -16.961  0.00  0.00    +0.203 C 
ATOM      9  C   UNL     1      35.962 -23.423 -15.712  0.00  0.00    +0.183 C 
ATOM     10  C   UNL     1      37.265 -23.628 -15.111  0.00  0.00    +0.224 C 
ATOM     11  C   UNL     1      36.108 -24.714 -13.349  0.00  0.00    +0.245 C 
ATOM     12  H   UNL     1      34.026 -24.838 -13.488  0.00  0.00    +0.152 HD
ATOM     13  H   UNL     1      35.197 -25.669 -11.780  0.00  0.00    +0.146 HD
ATOM     14  H   UNL     1      36.896 -25.570 -11.662  0.00  0.00    +0.146 HD
ENDROOT
BRANCH   2  16
ATOM     15  C   UNL     1      31.740 -22.864 -14.620  0.00  0.00    +0.047 C 
ATOM     16  C   UNL     1      32.389 -23.806 -15.654  0.00  0.00    +0.064 C 
ATOM     17  C   UNL     1      30.506 -22.822 -15.545  0.00  0.00    +0.034 C 
ATOM     18  C   UNL     1      31.461 -23.162 -16.707  0.00  0.00    +0.019 C 
BRANCH  15  19
ATOM     19  C   UNL     1      31.544 -23.489 -13.248  0.00  0.00    +0.139 C 
BRANCH  19  20
ATOM     20  O   UNL     1      32.082 -24.801 -13.257  0.00  0.00    -0.382 OA
ATOM     21  H   UNL     1      31.373 -25.443 -13.098  0.00  0.00    +0.210 HD
ENDBRANCH  19  20
ENDBRANCH  15  19
BRANCH  17  22
ATOM     22  C   UNL     1      29.442 -23.900 -15.289  0.00  0.00    +0.137 C 
BRANCH  22  23
ATOM     23  O   UNL     1      28.164 -23.371 -15.613  0.00  0.00    -0.382 OA
ATOM     24  H   UNL     1      27.625 -23.314 -14.809  0.00  0.00    +0.210 HD
ENDBRANCH  22  23
ENDBRANCH  17  22
ENDBRANCH   2  16
TORSDOF 5
ENDMDL
MODEL 5
REMARK VINA RESULT:      -7.7     10.103     12.344
REMARK  Name = 60786
REMARK  5 active torsions:
REMARK  status: ('A' for Active; 'I' for Inactive)
REMARK    1  A    between atoms: N_2  and  C_16
REMARK    2  A    between atoms: C_15  and  C_19
REMARK    3  A    between atoms: C_17  and  C_22
REMARK    4  A    between atoms: C_19  and  O_20
REMARK    5  A    between atoms: C_22  and  O_23
REMARK                            x       y       z     vdW  Elec       q    Type
REMARK                         _______ _______ _______ _____ _____    ______ ____
ROOT
ATOM      1  O   UNL     1      32.384 -14.042 -26.977  0.00  0.00    -0.208 OA
ATOM      2  N   UNL     1      34.577 -16.850 -24.197  0.00  0.00    -0.233 NA
ATOM      3  N   UNL     1      33.478 -16.650 -26.143  0.00  0.00    -0.241 NA
ATOM      4  N   UNL     1      34.389 -14.533 -23.481  0.00  0.00    -0.279 N 
ATOM      5  N   UNL     1      33.209 -13.116 -25.019  0.00  0.00    -0.301 NA
ATOM      6  N   UNL     1      34.097 -12.293 -22.995  0.00  0.00    -0.320 N 
ATOM      7  C   UNL     1      34.193 -15.559 -24.314  0.00  0.00    +0.189 C 
ATOM      8  C   UNL     1      34.119 -17.477 -25.334  0.00  0.00    +0.203 C 
ATOM      9  C   UNL     1      33.527 -15.445 -25.499  0.00  0.00    +0.183 C 
ATOM     10  C   UNL     1      32.985 -14.167 -25.917  0.00  0.00    +0.224 C 
ATOM     11  C   UNL     1      33.866 -13.308 -23.890  0.00  0.00    +0.245 C 
ATOM     12  H   UNL     1      34.873 -14.637 -22.631  0.00  0.00    +0.152 HD
ATOM     13  H   UNL     1      34.591 -12.474 -22.163  0.00  0.00    +0.146 HD
ATOM     14  H   UNL     1      33.769 -11.385 -23.188  0.00  0.00    +0.146 HD
ENDROOT
BRANCH   2  16
ATOM     15  C   UNL     1      34.496 -17.628 -21.827  0.00  0.00    +0.047 C 
ATOM     16  C   UNL     1      35.314 -17.465 -23.124  0.00  0.00    +0.064 C 
ATOM     17  C   UNL     1      35.160 -19.012 -21.671  0.00  0.00    +0.034 C 
ATOM     18  C   UNL     1      35.352 -19.007 -23.202  0.00  0.00    +0.019 C 
BRANCH  15  19
ATOM     19  C   UNL     1      34.812 -16.595 -20.759  0.00  0.00    +0.139 C 
BRANCH  19  20
ATOM     20  O   UNL     1      33.783 -15.618 -20.741  0.00  0.00    -0.382 OA
ATOM     21  H   UNL     1      32.920 -16.059 -20.736  0.00  0.00    +0.210 HD
ENDBRANCH  19  20
ENDBRANCH  15  19
BRANCH  17  22
ATOM     22  C   UNL     1      36.480 -19.034 -20.887  0.00  0.00    +0.137 C 
BRANCH  22  23
ATOM     23  O   UNL     1      36.367 -19.968 -19.822  0.00  0.00    -0.382 OA
ATOM     24  H   UNL     1      35.613 -20.555 -19.987  0.00  0.00    +0.210 HD
ENDBRANCH  22  23
ENDBRANCH  17  22
ENDBRANCH   2  16
TORSDOF 5
ENDMDL
MODEL 6
REMARK VINA RESULT:      -7.7      2.870      4.171
REMARK  Name = 60786
REMARK  5 active torsions:
REMARK  status: ('A' for Active; 'I' for Inactive)
REMARK    1  A    between atoms: N_2  and  C_16
REMARK    2  A    between atoms: C_15  and  C_19
REMARK    3  A    between atoms: C_17  and  C_22
REMARK    4  A    between atoms: C_19  and  O_20
REMARK    5  A    between atoms: C_22  and  O_23
REMARK                            x       y       z     vdW  Elec       q    Type
REMARK                         _______ _______ _______ _____ _____    ______ ____
ROOT
ATOM      1  O   UNL     1      32.474 -20.744 -20.475  0.00  0.00    -0.208 OA
ATOM      2  N   UNL     1      34.126 -23.168 -17.037  0.00  0.00    -0.233 NA
ATOM      3  N   UNL     1      32.275 -22.498 -18.114  0.00  0.00    -0.241 NA
ATOM      4  N   UNL     1      35.747 -22.022 -18.442  0.00  0.00    -0.279 N 
ATOM      5  N   UNL     1      34.779 -20.760 -20.242  0.00  0.00    -0.301 NA
ATOM      6  N   UNL     1      37.111 -20.857 -19.899  0.00  0.00    -0.320 N 
ATOM      7  C   UNL     1      34.517 -22.382 -18.066  0.00  0.00    +0.189 C 
ATOM      8  C   UNL     1      32.752 -23.209 -17.105  0.00  0.00    +0.203 C 
ATOM      9  C   UNL     1      33.387 -21.979 -18.715  0.00  0.00    +0.183 C 
ATOM     10  C   UNL     1      33.475 -21.116 -19.876  0.00  0.00    +0.224 C 
ATOM     11  C   UNL     1      35.825 -21.193 -19.560  0.00  0.00    +0.245 C 
ATOM     12  H   UNL     1      36.550 -22.324 -17.960  0.00  0.00    +0.152 HD
ATOM     13  H   UNL     1      37.865 -21.199 -19.368  0.00  0.00    +0.146 HD
ATOM     14  H   UNL     1      37.278 -20.274 -20.675  0.00  0.00    +0.146 HD
ENDROOT
BRANCH   2  16
ATOM     15  C   UNL     1      35.572 -22.883 -15.023  0.00  0.00    +0.047 C 
ATOM     16  C   UNL     1      34.950 -23.836 -16.064  0.00  0.00    +0.064 C 
ATOM     17  C   UNL     1      35.275 -23.967 -13.965  0.00  0.00    +0.034 C 
ATOM     18  C   UNL     1      34.152 -24.462 -14.900  0.00  0.00    +0.019 C 
BRANCH  15  19
ATOM     19  C   UNL     1      37.035 -22.558 -15.274  0.00  0.00    +0.139 C 
BRANCH  19  20
ATOM     20  O   UNL     1      37.447 -23.182 -16.480  0.00  0.00    -0.382 OA
ATOM     21  H   UNL     1      36.684 -23.608 -16.900  0.00  0.00    +0.210 HD
ENDBRANCH  19  20
ENDBRANCH  15  19
BRANCH  17  22
ATOM     22  C   UNL     1      36.387 -25.002 -13.740  0.00  0.00    +0.137 C 
BRANCH  22  23
ATOM     23  O   UNL     1      36.162 -25.656 -12.499  0.00  0.00    -0.382 OA
ATOM     24  H   UNL     1      36.493 -26.565 -12.548  0.00  0.00    +0.210 HD
ENDBRANCH  22  23
ENDBRANCH  17  22
ENDBRANCH   2  16
TORSDOF 5
ENDMDL
MODEL 7
REMARK VINA RESULT:      -7.6      1.805      2.362
REMARK  Name = 60786
REMARK  5 active torsions:
REMARK  status: ('A' for Active; 'I' for Inactive)
REMARK    1  A    between atoms: N_2  and  C_16
REMARK    2  A    between atoms: C_15  and  C_19
REMARK    3  A    between atoms: C_17  and  C_22
REMARK    4  A    between atoms: C_19  and  O_20
REMARK    5  A    between atoms: C_22  and  O_23
REMARK                            x       y       z     vdW  Elec       q    Type
REMARK                         _______ _______ _______ _____ _____    ______ ____
ROOT
ATOM      1  O   UNL     1      30.177 -22.896 -16.884  0.00  0.00    -0.208 OA
ATOM      2  N   UNL     1      33.786 -23.982 -14.388  0.00  0.00    -0.233 NA
ATOM      3  N   UNL     1      31.548 -23.830 -14.446  0.00  0.00    -0.241 NA
ATOM      4  N   UNL     1      34.218 -23.211 -16.655  0.00  0.00    -0.279 N 
ATOM      5  N   UNL     1      32.244 -22.658 -17.905  0.00  0.00    -0.301 NA
ATOM      6  N   UNL     1      34.403 -22.459 -18.832  0.00  0.00    -0.320 N 
ATOM      7  C   UNL     1      33.442 -23.530 -15.616  0.00  0.00    +0.189 C 
ATOM      8  C   UNL     1      32.600 -24.150 -13.710  0.00  0.00    +0.203 C 
ATOM      9  C   UNL     1      32.081 -23.441 -15.643  0.00  0.00    +0.183 C 
ATOM     10  C   UNL     1      31.398 -22.982 -16.837  0.00  0.00    +0.224 C 
ATOM     11  C   UNL     1      33.556 -22.772 -17.799  0.00  0.00    +0.245 C 
ATOM     12  H   UNL     1      35.199 -23.283 -16.614  0.00  0.00    +0.152 HD
ATOM     13  H   UNL     1      35.376 -22.557 -18.717  0.00  0.00    +0.146 HD
ATOM     14  H   UNL     1      34.037 -22.138 -19.687  0.00  0.00    +0.146 HD
ENDROOT
BRANCH   2  16
ATOM     15  C   UNL     1      36.037 -23.016 -13.908  0.00  0.00    +0.047 C 
ATOM     16  C   UNL     1      35.105 -24.244 -13.875  0.00  0.00    +0.064 C 
ATOM     17  C   UNL     1      36.552 -23.463 -12.524  0.00  0.00    +0.034 C 
ATOM     18  C   UNL     1      35.196 -24.175 -12.335  0.00  0.00    +0.019 C 
BRANCH  15  19
ATOM     19  C   UNL     1      37.042 -23.029 -15.048  0.00  0.00    +0.139 C 
BRANCH  19  20
ATOM     20  O   UNL     1      36.824 -24.184 -15.842  0.00  0.00    -0.382 OA
ATOM     21  H   UNL     1      37.062 -23.993 -16.762  0.00  0.00    +0.210 HD
ENDBRANCH  19  20
ENDBRANCH  15  19
BRANCH  17  22
ATOM     22  C   UNL     1      37.752 -24.422 -12.537  0.00  0.00    +0.137 C 
BRANCH  22  23
ATOM     23  O   UNL     1      38.823 -23.826 -11.820  0.00  0.00    -0.382 OA
ATOM     24  H   UNL     1      39.068 -24.395 -11.074  0.00  0.00    +0.210 HD
ENDBRANCH  22  23
ENDBRANCH  17  22
ENDBRANCH   2  16
TORSDOF 5
ENDMDL
MODEL 8
REMARK VINA RESULT:      -7.5      2.638      3.827
REMARK  Name = 60786
REMARK  5 active torsions:
REMARK  status: ('A' for Active; 'I' for Inactive)
REMARK    1  A    between atoms: N_2  and  C_16
REMARK    2  A    between atoms: C_15  and  C_19
REMARK    3  A    between atoms: C_17  and  C_22
REMARK    4  A    between atoms: C_19  and  O_20
REMARK    5  A    between atoms: C_22  and  O_23
REMARK                            x       y       z     vdW  Elec       q    Type
REMARK                         _______ _______ _______ _____ _____    ______ ____
ROOT
ATOM      1  O   UNL     1      34.717 -21.088 -20.009  0.00  0.00    -0.208 OA
ATOM      2  N   UNL     1      36.122 -23.021 -16.172  0.00  0.00    -0.233 NA
ATOM      3  N   UNL     1      36.719 -21.820 -17.972  0.00  0.00    -0.241 NA
ATOM      4  N   UNL     1      33.762 -23.256 -16.712  0.00  0.00    -0.279 N 
ATOM      5  N   UNL     1      33.107 -22.198 -18.766  0.00  0.00    -0.301 NA
ATOM      6  N   UNL     1      31.563 -23.357 -17.413  0.00  0.00    -0.320 N 
ATOM      7  C   UNL     1      35.013 -22.838 -16.924  0.00  0.00    +0.189 C 
ATOM      8  C   UNL     1      37.137 -22.384 -16.850  0.00  0.00    +0.203 C 
ATOM      9  C   UNL     1      35.384 -22.108 -18.015  0.00  0.00    +0.183 C 
ATOM     10  C   UNL     1      34.407 -21.744 -19.022  0.00  0.00    +0.224 C 
ATOM     11  C   UNL     1      32.828 -22.901 -17.683  0.00  0.00    +0.245 C 
ATOM     12  H   UNL     1      33.515 -23.782 -15.918  0.00  0.00    +0.152 HD
ATOM     13  H   UNL     1      31.391 -23.879 -16.596  0.00  0.00    +0.146 HD
ATOM     14  H   UNL     1      30.826 -23.161 -18.036  0.00  0.00    +0.146 HD
ENDROOT
BRANCH   2  16
ATOM     15  C   UNL     1      37.124 -24.987 -15.006  0.00  0.00    +0.047 C 
ATOM     16  C   UNL     1      36.243 -23.724 -14.922  0.00  0.00    +0.064 C 
ATOM     17  C   UNL     1      37.698 -24.587 -13.631  0.00  0.00    +0.034 C 
ATOM     18  C   UNL     1      37.315 -23.134 -13.981  0.00  0.00    +0.019 C 
BRANCH  15  19
ATOM     19  C   UNL     1      36.340 -26.288 -15.067  0.00  0.00    +0.139 C 
BRANCH  19  20
ATOM     20  O   UNL     1      36.845 -27.083 -16.127  0.00  0.00    -0.382 OA
ATOM     21  H   UNL     1      36.403 -27.946 -16.123  0.00  0.00    +0.210 HD
ENDBRANCH  19  20
ENDBRANCH  15  19
BRANCH  17  22
ATOM     22  C   UNL     1      36.951 -25.142 -12.409  0.00  0.00    +0.137 C 
BRANCH  22  23
ATOM     23  O   UNL     1      37.683 -24.815 -11.236  0.00  0.00    -0.382 OA
ATOM     24  H   UNL     1      38.558 -24.479 -11.485  0.00  0.00    +0.210 HD
ENDBRANCH  22  23
ENDBRANCH  17  22
ENDBRANCH   2  16
TORSDOF 5
ENDMDL
MODEL 9
REMARK VINA RESULT:      -7.5      7.611     10.364
REMARK  Name = 60786
REMARK  5 active torsions:
REMARK  status: ('A' for Active; 'I' for Inactive)
REMARK    1  A    between atoms: N_2  and  C_16
REMARK    2  A    between atoms: C_15  and  C_19
REMARK    3  A    between atoms: C_17  and  C_22
REMARK    4  A    between atoms: C_19  and  O_20
REMARK    5  A    between atoms: C_22  and  O_23
REMARK                            x       y       z     vdW  Elec       q    Type
REMARK                         _______ _______ _______ _____ _____    ______ ____
ROOT
ATOM      1  O   UNL     1      36.956 -21.679 -18.692  0.00  0.00    -0.208 OA
ATOM      2  N   UNL     1      35.537 -18.762 -21.839  0.00  0.00    -0.233 NA
ATOM      3  N   UNL     1      37.308 -19.571 -20.723  0.00  0.00    -0.241 NA
ATOM      4  N   UNL     1      33.833 -20.133 -20.775  0.00  0.00    -0.279 N 
ATOM      5  N   UNL     1      34.679 -21.652 -19.118  0.00  0.00    -0.301 NA
ATOM      6  N   UNL     1      32.383 -21.531 -19.643  0.00  0.00    -0.320 N 
ATOM      7  C   UNL     1      35.081 -19.704 -20.982  0.00  0.00    +0.189 C 
ATOM      8  C   UNL     1      36.899 -18.715 -21.645  0.00  0.00    +0.203 C 
ATOM      9  C   UNL     1      36.162 -20.191 -20.309  0.00  0.00    +0.183 C 
ATOM     10  C   UNL     1      35.999 -21.227 -19.308  0.00  0.00    +0.224 C 
ATOM     11  C   UNL     1      33.684 -21.130 -19.813  0.00  0.00    +0.245 C 
ATOM     12  H   UNL     1      33.066 -19.769 -21.273  0.00  0.00    +0.152 HD
ATOM     13  H   UNL     1      31.667 -21.119 -20.179  0.00  0.00    +0.146 HD
ATOM     14  H   UNL     1      32.166 -22.231 -18.986  0.00  0.00    +0.146 HD
ENDROOT
BRANCH   2  16
ATOM     15  C   UNL     1      35.358 -16.551 -22.983  0.00  0.00    +0.047 C 
ATOM     16  C   UNL     1      34.782 -17.965 -22.770  0.00  0.00    +0.064 C 
ATOM     17  C   UNL     1      35.027 -16.723 -24.480  0.00  0.00    +0.034 C 
ATOM     18  C   UNL     1      35.129 -18.244 -24.248  0.00  0.00    +0.019 C 
BRANCH  15  19
ATOM     19  C   UNL     1      34.610 -15.457 -22.239  0.00  0.00    +0.139 C 
BRANCH  19  20
ATOM     20  O   UNL     1      34.546 -15.795 -20.863  0.00  0.00    -0.382 OA
ATOM     21  H   UNL     1      35.296 -16.365 -20.634  0.00  0.00    +0.210 HD
ENDBRANCH  19  20
ENDBRANCH  15  19
BRANCH  17  22
ATOM     22  C   UNL     1      33.627 -16.259 -24.911  0.00  0.00    +0.137 C 
BRANCH  22  23
ATOM     23  O   UNL     1      33.681 -15.834 -26.265  0.00  0.00    -0.382 OA
ATOM     24  H   UNL     1      34.319 -15.109 -26.351  0.00  0.00    +0.210 HD
ENDBRANCH  22  23
ENDBRANCH  17  22
ENDBRANCH   2  16
TORSDOF 5
ENDMDL
