MODEL 1
REMARK VINA RESULT:      -5.4      0.000      0.000
REMARK  Name = 16124
REMARK  6 active torsions:
REMARK  status: ('A' for Active; 'I' for Inactive)
REMARK    1  A    between atoms: C_1  and  P_2
REMARK    2  A    between atoms: C_1  and  P_8
REMARK    3  A    between atoms: P_2  and  O_4
REMARK    4  A    between atoms: P_2  and  O_6
REMARK    5  A    between atoms: P_8  and  O_10
REMARK    6  A    between atoms: P_8  and  O_12
REMARK                            x       y       z     vdW  Elec       q    Type
REMARK                         _______ _______ _______ _____ _____    ______ ____
ROOT
ATOM      1  C   UNL     1      38.793 -25.831 -13.842  0.00  0.00    +0.230 C 
ENDROOT
BRANCH   1   2
ATOM      2  P   UNL     1      40.458 -25.872 -14.544  0.00  0.00    +0.349 P 
ATOM      3  O   UNL     1      41.312 -27.001 -14.048  0.00  0.00    -0.258 OA
BRANCH   2   4
ATOM      4  O   UNL     1      41.024 -24.390 -14.244  0.00  0.00    -0.323 OA
ATOM      5  H   UNL     1      41.770 -24.203 -14.834  0.00  0.00    +0.220 HD
ENDBRANCH   2   4
BRANCH   2   6
ATOM      6  O   UNL     1      40.185 -25.859 -16.136  0.00  0.00    -0.323 OA
ATOM      7  H   UNL     1      39.437 -25.273 -16.331  0.00  0.00    +0.220 HD
ENDBRANCH   2   6
ENDBRANCH   1   2
BRANCH   1   8
ATOM      8  P   UNL     1      37.291 -25.502 -14.792  0.00  0.00    +0.349 P 
ATOM      9  O   UNL     1      36.058 -25.320 -13.958  0.00  0.00    -0.258 OA
BRANCH   8  10
ATOM     10  O   UNL     1      37.702 -24.235 -15.707  0.00  0.00    -0.323 OA
ATOM     11  H   UNL     1      37.056 -24.130 -16.423  0.00  0.00    +0.220 HD
ENDBRANCH   8  10
BRANCH   8  12
ATOM     12  O   UNL     1      37.241 -26.727 -15.844  0.00  0.00    -0.323 OA
ATOM     13  H   UNL     1      38.145 -27.016 -16.048  0.00  0.00    +0.220 HD
ENDBRANCH   8  12
ENDBRANCH   1   8
TORSDOF 6
ENDMDL
MODEL 2
REMARK VINA RESULT:      -5.3      1.782      2.251
REMARK  Name = 16124
REMARK  6 active torsions:
REMARK  status: ('A' for Active; 'I' for Inactive)
REMARK    1  A    between atoms: C_1  and  P_2
REMARK    2  A    between atoms: C_1  and  P_8
REMARK    3  A    between atoms: P_2  and  O_4
REMARK    4  A    between atoms: P_2  and  O_6
REMARK    5  A    between atoms: P_8  and  O_10
REMARK    6  A    between atoms: P_8  and  O_12
REMARK                            x       y       z     vdW  Elec       q    Type
REMARK                         _______ _______ _______ _____ _____    ______ ____
ROOT
ATOM      1  C   UNL     1      39.040 -25.117 -13.106  0.00  0.00    +0.230 C 
ENDROOT
BRANCH   1   2
ATOM      2  P   UNL     1      39.506 -25.388 -14.830  0.00  0.00    +0.349 P 
ATOM      3  O   UNL     1      40.916 -25.859 -15.025  0.00  0.00    -0.258 OA
BRANCH   2   4
ATOM      4  O   UNL     1      39.140 -23.983 -15.538  0.00  0.00    -0.323 OA
ATOM      5  H   UNL     1      39.866 -23.355 -15.404  0.00  0.00    +0.220 HD
ENDBRANCH   2   4
BRANCH   2   6
ATOM      6  O   UNL     1      38.360 -26.392 -15.366  0.00  0.00    -0.323 OA
ATOM      7  H   UNL     1      38.361 -26.396 -16.336  0.00  0.00    +0.220 HD
ENDBRANCH   2   6
ENDBRANCH   1   2
BRANCH   1   8
ATOM      8  P   UNL     1      37.338 -25.085 -12.500  0.00  0.00    +0.349 P 
ATOM      9  O   UNL     1      37.177 -24.481 -11.136  0.00  0.00    -0.258 OA
BRANCH   8  10
ATOM     10  O   UNL     1      36.536 -24.338 -13.687  0.00  0.00    -0.323 OA
ATOM     11  H   UNL     1      35.650 -24.723 -13.771  0.00  0.00    +0.220 HD
ENDBRANCH   8  10
BRANCH   8  12
ATOM     12  O   UNL     1      36.867 -26.624 -12.635  0.00  0.00    -0.323 OA
ATOM     13  H   UNL     1      37.647 -27.200 -12.667  0.00  0.00    +0.220 HD
ENDBRANCH   8  12
ENDBRANCH   1   8
TORSDOF 6
ENDMDL
MODEL 3
REMARK VINA RESULT:      -5.3      1.784      3.949
REMARK  Name = 16124
REMARK  6 active torsions:
REMARK  status: ('A' for Active; 'I' for Inactive)
REMARK    1  A    between atoms: C_1  and  P_2
REMARK    2  A    between atoms: C_1  and  P_8
REMARK    3  A    between atoms: P_2  and  O_4
REMARK    4  A    between atoms: P_2  and  O_6
REMARK    5  A    between atoms: P_8  and  O_10
REMARK    6  A    between atoms: P_8  and  O_12
REMARK                            x       y       z     vdW  Elec       q    Type
REMARK                         _______ _______ _______ _____ _____    ______ ____
ROOT
ATOM      1  C   UNL     1      39.049 -25.144 -13.103  0.00  0.00    +0.230 C 
ENDROOT
BRANCH   1   2
ATOM      2  P   UNL     1      37.350 -25.073 -12.494  0.00  0.00    +0.349 P 
ATOM      3  O   UNL     1      37.203 -24.446 -11.139  0.00  0.00    -0.258 OA
BRANCH   2   4
ATOM      4  O   UNL     1      36.851 -26.604 -12.607  0.00  0.00    -0.323 OA
ATOM      5  H   UNL     1      37.618 -27.186 -12.723  0.00  0.00    +0.220 HD
ENDBRANCH   2   4
BRANCH   2   6
ATOM      6  O   UNL     1      36.562 -24.327 -13.691  0.00  0.00    -0.323 OA
ATOM      7  H   UNL     1      37.202 -23.976 -14.329  0.00  0.00    +0.220 HD
ENDBRANCH   2   6
ENDBRANCH   1   2
BRANCH   1   8
ATOM      8  P   UNL     1      39.505 -25.387 -14.835  0.00  0.00    +0.349 P 
ATOM      9  O   UNL     1      40.918 -25.844 -15.046  0.00  0.00    -0.258 OA
BRANCH   8  10
ATOM     10  O   UNL     1      38.364 -26.392 -15.380  0.00  0.00    -0.323 OA
ATOM     11  H   UNL     1      38.259 -26.275 -16.337  0.00  0.00    +0.220 HD
ENDBRANCH   8  10
BRANCH   8  12
ATOM     12  O   UNL     1      39.124 -23.975 -15.521  0.00  0.00    -0.323 OA
ATOM     13  H   UNL     1      39.357 -23.998 -16.462  0.00  0.00    +0.220 HD
ENDBRANCH   8  12
ENDBRANCH   1   8
TORSDOF 6
ENDMDL
MODEL 4
REMARK VINA RESULT:      -5.1      2.343      3.550
REMARK  Name = 16124
REMARK  6 active torsions:
REMARK  status: ('A' for Active; 'I' for Inactive)
REMARK    1  A    between atoms: C_1  and  P_2
REMARK    2  A    between atoms: C_1  and  P_8
REMARK    3  A    between atoms: P_2  and  O_4
REMARK    4  A    between atoms: P_2  and  O_6
REMARK    5  A    between atoms: P_8  and  O_10
REMARK    6  A    between atoms: P_8  and  O_12
REMARK                            x       y       z     vdW  Elec       q    Type
REMARK                         _______ _______ _______ _____ _____    ______ ____
ROOT
ATOM      1  C   UNL     1      38.148 -24.657 -13.000  0.00  0.00    +0.230 C 
ENDROOT
BRANCH   1   2
ATOM      2  P   UNL     1      37.861 -25.914 -14.266  0.00  0.00    +0.349 P 
ATOM      3  O   UNL     1      39.098 -26.628 -14.722  0.00  0.00    -0.258 OA
BRANCH   2   4
ATOM      4  O   UNL     1      37.062 -25.107 -15.415  0.00  0.00    -0.323 OA
ATOM      5  H   UNL     1      37.682 -24.547 -15.907  0.00  0.00    +0.220 HD
ENDBRANCH   2   4
BRANCH   2   6
ATOM      6  O   UNL     1      36.726 -26.851 -13.602  0.00  0.00    -0.323 OA
ATOM      7  H   UNL     1      36.021 -27.013 -14.248  0.00  0.00    +0.220 HD
ENDBRANCH   2   6
ENDBRANCH   1   2
BRANCH   1   8
ATOM      8  P   UNL     1      36.846 -23.884 -12.013  0.00  0.00    +0.349 P 
ATOM      9  O   UNL     1      37.336 -22.865 -11.029  0.00  0.00    -0.258 OA
BRANCH   8  10
ATOM     10  O   UNL     1      35.815 -23.331 -13.128  0.00  0.00    -0.323 OA
ATOM     11  H   UNL     1      36.035 -23.714 -13.991  0.00  0.00    +0.220 HD
ENDBRANCH   8  10
BRANCH   8  12
ATOM     12  O   UNL     1      36.067 -25.147 -11.373  0.00  0.00    -0.323 OA
ATOM     13  H   UNL     1      36.436 -25.970 -11.730  0.00  0.00    +0.220 HD
ENDBRANCH   8  12
ENDBRANCH   1   8
TORSDOF 6
ENDMDL
MODEL 5
REMARK VINA RESULT:      -5.1      2.344      4.259
REMARK  Name = 16124
REMARK  6 active torsions:
REMARK  status: ('A' for Active; 'I' for Inactive)
REMARK    1  A    between atoms: C_1  and  P_2
REMARK    2  A    between atoms: C_1  and  P_8
REMARK    3  A    between atoms: P_2  and  O_4
REMARK    4  A    between atoms: P_2  and  O_6
REMARK    5  A    between atoms: P_8  and  O_10
REMARK    6  A    between atoms: P_8  and  O_12
REMARK                            x       y       z     vdW  Elec       q    Type
REMARK                         _______ _______ _______ _____ _____    ______ ____
ROOT
ATOM      1  C   UNL     1      38.148 -24.665 -12.994  0.00  0.00    +0.230 C 
ENDROOT
BRANCH   1   2
ATOM      2  P   UNL     1      36.846 -23.887 -12.011  0.00  0.00    +0.349 P 
ATOM      3  O   UNL     1      37.337 -22.867 -11.027  0.00  0.00    -0.258 OA
BRANCH   2   4
ATOM      4  O   UNL     1      36.062 -25.146 -11.371  0.00  0.00    -0.323 OA
ATOM      5  H   UNL     1      35.260 -24.835 -10.926  0.00  0.00    +0.220 HD
ENDBRANCH   2   4
BRANCH   2   6
ATOM      6  O   UNL     1      35.822 -23.333 -13.130  0.00  0.00    -0.323 OA
ATOM      7  H   UNL     1      35.997 -22.393 -13.291  0.00  0.00    +0.220 HD
ENDBRANCH   2   6
ENDBRANCH   1   2
BRANCH   1   8
ATOM      8  P   UNL     1      37.859 -25.917 -14.265  0.00  0.00    +0.349 P 
ATOM      9  O   UNL     1      39.096 -26.626 -14.728  0.00  0.00    -0.258 OA
BRANCH   8  10
ATOM     10  O   UNL     1      36.726 -26.860 -13.605  0.00  0.00    -0.323 OA
ATOM     11  H   UNL     1      37.093 -27.314 -12.831  0.00  0.00    +0.220 HD
ENDBRANCH   8  10
BRANCH   8  12
ATOM     12  O   UNL     1      37.056 -25.106 -15.409  0.00  0.00    -0.323 OA
ATOM     13  H   UNL     1      36.287 -25.623 -15.693  0.00  0.00    +0.220 HD
ENDBRANCH   8  12
ENDBRANCH   1   8
TORSDOF 6
ENDMDL
MODEL 6
REMARK VINA RESULT:      -5.1      2.663      4.325
REMARK  Name = 16124
REMARK  6 active torsions:
REMARK  status: ('A' for Active; 'I' for Inactive)
REMARK    1  A    between atoms: C_1  and  P_2
REMARK    2  A    between atoms: C_1  and  P_8
REMARK    3  A    between atoms: P_2  and  O_4
REMARK    4  A    between atoms: P_2  and  O_6
REMARK    5  A    between atoms: P_8  and  O_10
REMARK    6  A    between atoms: P_8  and  O_12
REMARK                            x       y       z     vdW  Elec       q    Type
REMARK                         _______ _______ _______ _____ _____    ______ ____
ROOT
ATOM      1  C   UNL     1      37.956 -24.491 -13.140  0.00  0.00    +0.230 C 
ENDROOT
BRANCH   1   2
ATOM      2  P   UNL     1      37.072 -23.479 -11.931  0.00  0.00    +0.349 P 
ATOM      3  O   UNL     1      36.877 -24.136 -10.598  0.00  0.00    -0.258 OA
BRANCH   2   4
ATOM      4  O   UNL     1      35.717 -23.072 -12.709  0.00  0.00    -0.323 OA
ATOM      5  H   UNL     1      35.158 -23.856 -12.816  0.00  0.00    +0.220 HD
ENDBRANCH   2   4
BRANCH   2   6
ATOM      6  O   UNL     1      37.924 -22.107 -11.909  0.00  0.00    -0.323 OA
ATOM      7  H   UNL     1      38.769 -22.258 -11.458  0.00  0.00    +0.220 HD
ENDBRANCH   2   6
ENDBRANCH   1   2
BRANCH   1   8
ATOM      8  P   UNL     1      37.386 -26.098 -13.740  0.00  0.00    +0.349 P 
ATOM      9  O   UNL     1      38.404 -26.859 -14.536  0.00  0.00    -0.258 OA
BRANCH   8  10
ATOM     10  O   UNL     1      36.867 -26.832 -12.397  0.00  0.00    -0.323 OA
ATOM     11  H   UNL     1      35.948 -26.576 -12.223  0.00  0.00    +0.220 HD
ENDBRANCH   8  10
BRANCH   8  12
ATOM     12  O   UNL     1      36.021 -25.738 -14.525  0.00  0.00    -0.323 OA
ATOM     13  H   UNL     1      35.792 -24.808 -14.368  0.00  0.00    +0.220 HD
ENDBRANCH   8  12
ENDBRANCH   1   8
TORSDOF 6
ENDMDL
MODEL 7
REMARK VINA RESULT:      -5.0      2.486      3.955
REMARK  Name = 16124
REMARK  6 active torsions:
REMARK  status: ('A' for Active; 'I' for Inactive)
REMARK    1  A    between atoms: C_1  and  P_2
REMARK    2  A    between atoms: C_1  and  P_8
REMARK    3  A    between atoms: P_2  and  O_4
REMARK    4  A    between atoms: P_2  and  O_6
REMARK    5  A    between atoms: P_8  and  O_10
REMARK    6  A    between atoms: P_8  and  O_12
REMARK                            x       y       z     vdW  Elec       q    Type
REMARK                         _______ _______ _______ _____ _____    ______ ____
ROOT
ATOM      1  C   UNL     1      37.806 -24.353 -13.817  0.00  0.00    +0.230 C 
ENDROOT
BRANCH   1   2
ATOM      2  P   UNL     1      37.298 -26.002 -14.355  0.00  0.00    +0.349 P 
ATOM      3  O   UNL     1      36.352 -26.009 -15.518  0.00  0.00    -0.258 OA
BRANCH   2   4
ATOM      4  O   UNL     1      36.738 -26.678 -13.001  0.00  0.00    -0.323 OA
ATOM      5  H   UNL     1      37.261 -27.467 -12.793  0.00  0.00    +0.220 HD
ENDBRANCH   2   4
BRANCH   2   6
ATOM      6  O   UNL     1      38.705 -26.756 -14.603  0.00  0.00    -0.323 OA
ATOM      7  H   UNL     1      39.087 -27.015 -13.750  0.00  0.00    +0.220 HD
ENDBRANCH   2   6
ENDBRANCH   1   2
BRANCH   1   8
ATOM      8  P   UNL     1      37.340 -23.604 -12.239  0.00  0.00    +0.349 P 
ATOM      9  O   UNL     1      37.900 -22.232 -12.015  0.00  0.00    -0.258 OA
BRANCH   8  10
ATOM     10  O   UNL     1      35.728 -23.703 -12.244  0.00  0.00    -0.323 OA
ATOM     11  H   UNL     1      35.393 -23.591 -11.341  0.00  0.00    +0.220 HD
ENDBRANCH   8  10
BRANCH   8  12
ATOM     12  O   UNL     1      37.783 -24.718 -11.155  0.00  0.00    -0.323 OA
ATOM     13  H   UNL     1      37.177 -25.474 -11.201  0.00  0.00    +0.220 HD
ENDBRANCH   8  12
ENDBRANCH   1   8
TORSDOF 6
ENDMDL
MODEL 8
REMARK VINA RESULT:      -5.0      2.506      3.984
REMARK  Name = 16124
REMARK  6 active torsions:
REMARK  status: ('A' for Active; 'I' for Inactive)
REMARK    1  A    between atoms: C_1  and  P_2
REMARK    2  A    between atoms: C_1  and  P_8
REMARK    3  A    between atoms: P_2  and  O_4
REMARK    4  A    between atoms: P_2  and  O_6
REMARK    5  A    between atoms: P_8  and  O_10
REMARK    6  A    between atoms: P_8  and  O_12
REMARK                            x       y       z     vdW  Elec       q    Type
REMARK                         _______ _______ _______ _____ _____    ______ ____
ROOT
ATOM      1  C   UNL     1      36.375 -23.766 -13.440  0.00  0.00    +0.230 C 
ENDROOT
BRANCH   1   2
ATOM      2  P   UNL     1      37.564 -23.964 -14.787  0.00  0.00    +0.349 P 
ATOM      3  O   UNL     1      37.765 -22.734 -15.621  0.00  0.00    -0.258 OA
BRANCH   2   4
ATOM      4  O   UNL     1      37.014 -25.259 -15.580  0.00  0.00    -0.323 OA
ATOM      5  H   UNL     1      36.952 -25.056 -16.526  0.00  0.00    +0.220 HD
ENDBRANCH   2   4
BRANCH   2   6
ATOM      6  O   UNL     1      38.883 -24.512 -14.033  0.00  0.00    -0.323 OA
ATOM      7  H   UNL     1      38.633 -25.217 -13.416  0.00  0.00    +0.220 HD
ENDBRANCH   2   6
ENDBRANCH   1   2
BRANCH   1   8
ATOM      8  P   UNL     1      36.276 -24.850 -11.997  0.00  0.00    +0.349 P 
ATOM      9  O   UNL     1      34.958 -24.810 -11.282  0.00  0.00    -0.258 OA
BRANCH   8  10
ATOM     10  O   UNL     1      36.700 -26.293 -12.587  0.00  0.00    -0.323 OA
ATOM     11  H   UNL     1      37.562 -26.223 -13.025  0.00  0.00    +0.220 HD
ENDBRANCH   8  10
BRANCH   8  12
ATOM     12  O   UNL     1      37.556 -24.411 -11.115  0.00  0.00    -0.323 OA
ATOM     13  H   UNL     1      37.255 -24.020 -10.280  0.00  0.00    +0.220 HD
ENDBRANCH   8  12
ENDBRANCH   1   8
TORSDOF 6
ENDMDL
MODEL 9
REMARK VINA RESULT:      -4.9      2.769      3.448
REMARK  Name = 16124
REMARK  6 active torsions:
REMARK  status: ('A' for Active; 'I' for Inactive)
REMARK    1  A    between atoms: C_1  and  P_2
REMARK    2  A    between atoms: C_1  and  P_8
REMARK    3  A    between atoms: P_2  and  O_4
REMARK    4  A    between atoms: P_2  and  O_6
REMARK    5  A    between atoms: P_8  and  O_10
REMARK    6  A    between atoms: P_8  and  O_12
REMARK                            x       y       z     vdW  Elec       q    Type
REMARK                         _______ _______ _______ _____ _____    ______ ____
ROOT
ATOM      1  C   UNL     1      36.808 -25.527 -12.620  0.00  0.00    +0.230 C 
ENDROOT
BRANCH   1   2
ATOM      2  P   UNL     1      38.442 -24.912 -13.085  0.00  0.00    +0.349 P 
ATOM      3  O   UNL     1      39.449 -25.986 -13.371  0.00  0.00    -0.258 OA
BRANCH   2   4
ATOM      4  O   UNL     1      38.820 -23.911 -11.876  0.00  0.00    -0.323 OA
ATOM      5  H   UNL     1      38.512 -23.017 -12.088  0.00  0.00    +0.220 HD
ENDBRANCH   2   4
BRANCH   2   6
ATOM      6  O   UNL     1      38.123 -23.917 -14.316  0.00  0.00    -0.323 OA
ATOM      7  H   UNL     1      37.643 -23.141 -13.989  0.00  0.00    +0.220 HD
ENDBRANCH   2   6
ENDBRANCH   1   2
BRANCH   1   8
ATOM      8  P   UNL     1      35.550 -24.545 -11.771  0.00  0.00    +0.349 P 
ATOM      9  O   UNL     1      35.383 -24.876 -10.318  0.00  0.00    -0.258 OA
BRANCH   8  10
ATOM     10  O   UNL     1      35.991 -23.023 -12.088  0.00  0.00    -0.323 OA
ATOM     11  H   UNL     1      36.702 -22.759 -11.483  0.00  0.00    +0.220 HD
ENDBRANCH   8  10
BRANCH   8  12
ATOM     12  O   UNL     1      34.235 -24.756 -12.685  0.00  0.00    -0.323 OA
ATOM     13  H   UNL     1      34.266 -24.149 -13.442  0.00  0.00    +0.220 HD
ENDBRANCH   8  12
ENDBRANCH   1   8
TORSDOF 6
ENDMDL
