MODEL 1
REMARK VINA RESULT:     -13.3      0.000      0.000
REMARK  Name = 10389239
REMARK  2 active torsions:
REMARK  status: ('A' for Active; 'I' for Inactive)
REMARK    1  A    between atoms: C_2  and  C_14
REMARK    2  A    between atoms: C_4  and  C_20
REMARK                            x       y       z     vdW  Elec       q    Type
REMARK                         _______ _______ _______ _____ _____    ______ ____
ROOT
ATOM      1  N   UNL     1      34.847 -17.901 -24.338  0.00  0.00    -0.244 NA
ATOM      2  C   UNL     1      33.911 -15.338 -23.734  0.00  0.00    +0.016 C 
ATOM      3  C   UNL     1      34.194 -16.236 -22.711  0.00  0.00    +0.020 C 
ATOM      4  C   UNL     1      34.655 -17.494 -23.063  0.00  0.00    +0.083 C 
ATOM      5  C   UNL     1      34.094 -15.719 -25.058  0.00  0.00    +0.022 C 
ATOM      6  C   UNL     1      34.561 -17.000 -25.305  0.00  0.00    +0.099 C 
ENDROOT
BRANCH   2  14
ATOM      7  O   UNL     1      30.581 -11.600 -21.205  0.00  0.00    -0.270 OA
ATOM      8  N   UNL     1      33.927 -12.894 -24.042  0.00  0.00    -0.316 N 
ATOM      9  N   UNL     1      31.845  -9.917 -22.159  0.00  0.00    -0.300 N 
ATOM     10  C   UNL     1      33.282 -11.795 -23.553  0.00  0.00    +0.031 C 
ATOM     11  C   UNL     1      33.501 -10.392 -23.976  0.00  0.00    +0.063 C 
ATOM     12  C   UNL     1      32.364 -12.204 -22.608  0.00  0.00    +0.064 C 
ATOM     13  C   UNL     1      33.083  -9.481 -22.816  0.00  0.00    +0.096 C 
ATOM     14  C   UNL     1      33.428 -14.014 -23.423  0.00  0.00    +0.048 C 
ATOM     15  C   UNL     1      32.452 -13.615 -22.531  0.00  0.00    +0.020 C 
ATOM     16  C   UNL     1      31.516 -11.250 -21.919  0.00  0.00    +0.247 C 
ATOM     17  H   UNL     1      34.634 -12.886 -24.726  0.00  0.00    +0.152 HD
ATOM     18  H   UNL     1      31.208  -9.224 -21.869  0.00  0.00    +0.150 HD
ENDBRANCH   2  14
BRANCH   4  20
ATOM     19  N   UNL     1      36.614 -19.522 -20.627  0.00  0.00    -0.244 NA
ATOM     20  C   UNL     1      34.970 -18.479 -22.056  0.00  0.00    +0.037 C 
ATOM     21  C   UNL     1      33.994 -19.319 -21.542  0.00  0.00    +0.005 C 
ATOM     22  C   UNL     1      34.324 -20.268 -20.564  0.00  0.00    +0.018 C 
ATOM     23  C   UNL     1      35.665 -20.336 -20.130  0.00  0.00    +0.081 C 
ATOM     24  C   UNL     1      36.255 -18.620 -21.570  0.00  0.00    +0.100 C 
ATOM     25  C   UNL     1      33.358 -21.133 -20.022  0.00  0.00    +0.001 C 
ATOM     26  C   UNL     1      35.992 -21.278 -19.159  0.00  0.00    +0.019 C 
ATOM     27  C   UNL     1      33.714 -22.067 -19.052  0.00  0.00    +0.000 C 
ATOM     28  C   UNL     1      35.032 -22.139 -18.621  0.00  0.00    +0.002 C 
ENDBRANCH   4  20
TORSDOF 2
ENDMDL
MODEL 2
REMARK VINA RESULT:     -13.3      1.167      1.577
REMARK  Name = 10389239
REMARK  2 active torsions:
REMARK  status: ('A' for Active; 'I' for Inactive)
REMARK    1  A    between atoms: C_2  and  C_14
REMARK    2  A    between atoms: C_4  and  C_20
REMARK                            x       y       z     vdW  Elec       q    Type
REMARK                         _______ _______ _______ _____ _____    ______ ____
ROOT
ATOM      1  N   UNL     1      34.900 -18.258 -24.141  0.00  0.00    -0.244 NA
ATOM      2  C   UNL     1      33.993 -15.668 -23.615  0.00  0.00    +0.016 C 
ATOM      3  C   UNL     1      34.268 -16.536 -22.565  0.00  0.00    +0.020 C 
ATOM      4  C   UNL     1      34.715 -17.810 -22.879  0.00  0.00    +0.083 C 
ATOM      5  C   UNL     1      34.169 -16.092 -24.928  0.00  0.00    +0.022 C 
ATOM      6  C   UNL     1      34.621 -17.385 -25.135  0.00  0.00    +0.099 C 
ENDROOT
BRANCH   2  14
ATOM      7  O   UNL     1      33.813 -10.104 -24.304  0.00  0.00    -0.270 OA
ATOM      8  N   UNL     1      32.632 -14.061 -22.337  0.00  0.00    -0.316 N 
ATOM      9  N   UNL     1      32.075 -10.032 -22.783  0.00  0.00    -0.300 N 
ATOM     10  C   UNL     1      32.379 -12.720 -22.317  0.00  0.00    +0.031 C 
ATOM     11  C   UNL     1      31.491 -12.012 -21.365  0.00  0.00    +0.063 C 
ATOM     12  C   UNL     1      33.108 -12.117 -23.320  0.00  0.00    +0.064 C 
ATOM     13  C   UNL     1      31.013 -10.721 -22.040  0.00  0.00    +0.096 C 
ATOM     14  C   UNL     1      33.526 -14.329 -23.345  0.00  0.00    +0.048 C 
ATOM     15  C   UNL     1      33.843 -13.138 -23.968  0.00  0.00    +0.020 C 
ATOM     16  C   UNL     1      33.050 -10.683 -23.536  0.00  0.00    +0.247 C 
ATOM     17  H   UNL     1      32.237 -14.728 -21.730  0.00  0.00    +0.152 HD
ATOM     18  H   UNL     1      32.099  -9.048 -22.747  0.00  0.00    +0.150 HD
ENDBRANCH   2  14
BRANCH   4  20
ATOM     19  N   UNL     1      36.651 -19.764 -20.366  0.00  0.00    -0.244 NA
ATOM     20  C   UNL     1      35.021 -18.766 -21.842  0.00  0.00    +0.037 C 
ATOM     21  C   UNL     1      34.042 -19.597 -21.318  0.00  0.00    +0.005 C 
ATOM     22  C   UNL     1      34.363 -20.518 -20.311  0.00  0.00    +0.018 C 
ATOM     23  C   UNL     1      35.699 -20.569 -19.859  0.00  0.00    +0.081 C 
ATOM     24  C   UNL     1      36.300 -18.889 -21.336  0.00  0.00    +0.100 C 
ATOM     25  C   UNL     1      33.394 -21.373 -19.759  0.00  0.00    +0.001 C 
ATOM     26  C   UNL     1      36.017 -21.483 -18.859  0.00  0.00    +0.019 C 
ATOM     27  C   UNL     1      33.741 -22.279 -18.760  0.00  0.00    +0.000 C 
ATOM     28  C   UNL     1      35.054 -22.334 -18.310  0.00  0.00    +0.002 C 
ENDBRANCH   4  20
TORSDOF 2
ENDMDL
MODEL 3
REMARK VINA RESULT:     -12.4      2.342      8.477
REMARK  Name = 10389239
REMARK  2 active torsions:
REMARK  status: ('A' for Active; 'I' for Inactive)
REMARK    1  A    between atoms: C_2  and  C_14
REMARK    2  A    between atoms: C_4  and  C_20
REMARK                            x       y       z     vdW  Elec       q    Type
REMARK                         _______ _______ _______ _____ _____    ______ ____
ROOT
ATOM      1  N   UNL     1      34.120 -15.606 -25.051  0.00  0.00    -0.244 NA
ATOM      2  C   UNL     1      34.462 -17.564 -23.087  0.00  0.00    +0.016 C 
ATOM      3  C   UNL     1      34.052 -16.284 -22.730  0.00  0.00    +0.020 C 
ATOM      4  C   UNL     1      33.898 -15.349 -23.742  0.00  0.00    +0.083 C 
ATOM      5  C   UNL     1      34.702 -17.867 -24.422  0.00  0.00    +0.022 C 
ATOM      6  C   UNL     1      34.516 -16.861 -25.357  0.00  0.00    +0.099 C 
ENDROOT
BRANCH   2  14
ATOM      7  O   UNL     1      32.767 -21.568 -19.544  0.00  0.00    -0.270 OA
ATOM      8  N   UNL     1      35.857 -18.809 -21.483  0.00  0.00    -0.316 N 
ATOM      9  N   UNL     1      34.982 -21.941 -19.000  0.00  0.00    -0.300 N 
ATOM     10  C   UNL     1      35.719 -19.813 -20.568  0.00  0.00    +0.031 C 
ATOM     11  C   UNL     1      36.788 -20.351 -19.693  0.00  0.00    +0.063 C 
ATOM     12  C   UNL     1      34.407 -20.236 -20.569  0.00  0.00    +0.064 C 
ATOM     13  C   UNL     1      36.407 -21.787 -19.317  0.00  0.00    +0.096 C 
ATOM     14  C   UNL     1      34.639 -18.576 -22.073  0.00  0.00    +0.048 C 
ATOM     15  C   UNL     1      33.719 -19.445 -21.520  0.00  0.00    +0.020 C 
ATOM     16  C   UNL     1      33.955 -21.293 -19.684  0.00  0.00    +0.247 C 
ATOM     17  H   UNL     1      36.693 -18.331 -21.688  0.00  0.00    +0.152 HD
ATOM     18  H   UNL     1      34.737 -22.541 -18.258  0.00  0.00    +0.150 HD
ENDBRANCH   2  14
BRANCH   4  20
ATOM     19  N   UNL     1      33.490 -11.657 -24.031  0.00  0.00    -0.244 NA
ATOM     20  C   UNL     1      33.475 -14.001 -23.448  0.00  0.00    +0.037 C 
ATOM     21  C   UNL     1      32.677 -13.720 -22.349  0.00  0.00    +0.005 C 
ATOM     22  C   UNL     1      32.279 -12.402 -22.085  0.00  0.00    +0.018 C 
ATOM     23  C   UNL     1      32.715 -11.387 -22.963  0.00  0.00    +0.081 C 
ATOM     24  C   UNL     1      33.852 -12.941 -24.250  0.00  0.00    +0.100 C 
ATOM     25  C   UNL     1      31.470 -12.085 -20.980  0.00  0.00    +0.001 C 
ATOM     26  C   UNL     1      32.320 -10.079 -22.700  0.00  0.00    +0.019 C 
ATOM     27  C   UNL     1      31.090 -10.767 -20.741  0.00  0.00    +0.000 C 
ATOM     28  C   UNL     1      31.515  -9.763 -21.602  0.00  0.00    +0.002 C 
ENDBRANCH   4  20
TORSDOF 2
ENDMDL
MODEL 4
REMARK VINA RESULT:     -12.2      2.350      8.781
REMARK  Name = 10389239
REMARK  2 active torsions:
REMARK  status: ('A' for Active; 'I' for Inactive)
REMARK    1  A    between atoms: C_2  and  C_14
REMARK    2  A    between atoms: C_4  and  C_20
REMARK                            x       y       z     vdW  Elec       q    Type
REMARK                         _______ _______ _______ _____ _____    ______ ____
ROOT
ATOM      1  N   UNL     1      34.085 -15.394 -24.897  0.00  0.00    -0.244 NA
ATOM      2  C   UNL     1      34.441 -17.427 -23.013  0.00  0.00    +0.016 C 
ATOM      3  C   UNL     1      33.963 -16.184 -22.615  0.00  0.00    +0.020 C 
ATOM      4  C   UNL     1      33.805 -15.210 -23.587  0.00  0.00    +0.083 C 
ATOM      5  C   UNL     1      34.742 -17.656 -24.351  0.00  0.00    +0.022 C 
ATOM      6  C   UNL     1      34.547 -16.616 -25.246  0.00  0.00    +0.099 C 
ENDROOT
BRANCH   2  14
ATOM      7  O   UNL     1      32.771 -21.556 -19.605  0.00  0.00    -0.270 OA
ATOM      8  N   UNL     1      35.850 -18.738 -21.475  0.00  0.00    -0.316 N 
ATOM      9  N   UNL     1      34.990 -21.958 -19.101  0.00  0.00    -0.300 N 
ATOM     10  C   UNL     1      35.718 -19.775 -20.597  0.00  0.00    +0.031 C 
ATOM     11  C   UNL     1      36.795 -20.350 -19.756  0.00  0.00    +0.063 C 
ATOM     12  C   UNL     1      34.404 -20.192 -20.599  0.00  0.00    +0.064 C 
ATOM     13  C   UNL     1      36.412 -21.797 -19.429  0.00  0.00    +0.096 C 
ATOM     14  C   UNL     1      34.625 -18.478 -22.041  0.00  0.00    +0.048 C 
ATOM     15  C   UNL     1      33.708 -19.363 -21.510  0.00  0.00    +0.020 C 
ATOM     16  C   UNL     1      33.958 -21.280 -19.748  0.00  0.00    +0.247 C 
ATOM     17  H   UNL     1      36.685 -18.256 -21.671  0.00  0.00    +0.152 HD
ATOM     18  H   UNL     1      34.751 -22.584 -18.380  0.00  0.00    +0.150 HD
ENDBRANCH   2  14
BRANCH   4  20
ATOM     19  N   UNL     1      31.835 -12.518 -21.926  0.00  0.00    -0.244 NA
ATOM     20  C   UNL     1      33.313 -13.895 -23.249  0.00  0.00    +0.037 C 
ATOM     21  C   UNL     1      33.803 -12.760 -23.878  0.00  0.00    +0.005 C 
ATOM     22  C   UNL     1      33.310 -11.495 -23.533  0.00  0.00    +0.018 C 
ATOM     23  C   UNL     1      32.312 -11.418 -22.538  0.00  0.00    +0.081 C 
ATOM     24  C   UNL     1      32.337 -13.721 -22.288  0.00  0.00    +0.100 C 
ATOM     25  C   UNL     1      33.786 -10.325 -24.151  0.00  0.00    +0.001 C 
ATOM     26  C   UNL     1      31.823 -10.161 -22.195  0.00  0.00    +0.019 C 
ATOM     27  C   UNL     1      33.278  -9.080 -23.789  0.00  0.00    +0.000 C 
ATOM     28  C   UNL     1      32.296  -8.999 -22.810  0.00  0.00    +0.002 C 
ENDBRANCH   4  20
TORSDOF 2
ENDMDL
MODEL 5
REMARK VINA RESULT:     -11.8      6.062     11.688
REMARK  Name = 10389239
REMARK  2 active torsions:
REMARK  status: ('A' for Active; 'I' for Inactive)
REMARK    1  A    between atoms: C_2  and  C_14
REMARK    2  A    between atoms: C_4  and  C_20
REMARK                            x       y       z     vdW  Elec       q    Type
REMARK                         _______ _______ _______ _____ _____    ______ ____
ROOT
ATOM      1  N   UNL     1      32.367 -22.478 -17.963  0.00  0.00    -0.244 NA
ATOM      2  C   UNL     1      34.389 -23.497 -16.325  0.00  0.00    +0.016 C 
ATOM      3  C   UNL     1      34.709 -22.662 -17.389  0.00  0.00    +0.020 C 
ATOM      4  C   UNL     1      33.670 -22.183 -18.172  0.00  0.00    +0.083 C 
ATOM      5  C   UNL     1      33.061 -23.825 -16.078  0.00  0.00    +0.022 C 
ATOM      6  C   UNL     1      32.096 -23.293 -16.919  0.00  0.00    +0.099 C 
ENDROOT
BRANCH   2  14
ATOM      7  O   UNL     1      36.462 -25.895 -11.698  0.00  0.00    -0.270 OA
ATOM      8  N   UNL     1      36.760 -23.939 -15.822  0.00  0.00    -0.316 N 
ATOM      9  N   UNL     1      38.542 -25.901 -12.705  0.00  0.00    -0.300 N 
ATOM     10  C   UNL     1      37.509 -24.513 -14.835  0.00  0.00    +0.031 C 
ATOM     11  C   UNL     1      38.987 -24.607 -14.802  0.00  0.00    +0.063 C 
ATOM     12  C   UNL     1      36.662 -24.977 -13.851  0.00  0.00    +0.064 C 
ATOM     13  C   UNL     1      39.362 -25.802 -13.919  0.00  0.00    +0.096 C 
ATOM     14  C   UNL     1      35.433 -24.023 -15.478  0.00  0.00    +0.048 C 
ATOM     15  C   UNL     1      35.344 -24.658 -14.255  0.00  0.00    +0.020 C 
ATOM     16  C   UNL     1      37.176 -25.629 -12.661  0.00  0.00    +0.247 C 
ATOM     17  H   UNL     1      37.113 -23.532 -16.646  0.00  0.00    +0.152 HD
ATOM     18  H   UNL     1      38.986 -26.178 -11.870  0.00  0.00    +0.150 HD
ENDBRANCH   2  14
BRANCH   4  20
ATOM     19  N   UNL     1      33.078 -20.089 -21.196  0.00  0.00    -0.244 NA
ATOM     20  C   UNL     1      33.925 -21.311 -19.293  0.00  0.00    +0.037 C 
ATOM     21  C   UNL     1      35.204 -20.852 -19.571  0.00  0.00    +0.005 C 
ATOM     22  C   UNL     1      35.427 -20.006 -20.666  0.00  0.00    +0.018 C 
ATOM     23  C   UNL     1      34.320 -19.645 -21.464  0.00  0.00    +0.081 C 
ATOM     24  C   UNL     1      32.905 -20.904 -20.131  0.00  0.00    +0.100 C 
ATOM     25  C   UNL     1      36.711 -19.523 -20.974  0.00  0.00    +0.001 C 
ATOM     26  C   UNL     1      34.542 -18.805 -22.551  0.00  0.00    +0.019 C 
ATOM     27  C   UNL     1      36.904 -18.684 -22.068  0.00  0.00    +0.000 C 
ATOM     28  C   UNL     1      35.818 -18.325 -22.857  0.00  0.00    +0.002 C 
ENDBRANCH   4  20
TORSDOF 2
ENDMDL
MODEL 6
REMARK VINA RESULT:     -11.7      2.727      8.866
REMARK  Name = 10389239
REMARK  2 active torsions:
REMARK  status: ('A' for Active; 'I' for Inactive)
REMARK    1  A    between atoms: C_2  and  C_14
REMARK    2  A    between atoms: C_4  and  C_20
REMARK                            x       y       z     vdW  Elec       q    Type
REMARK                         _______ _______ _______ _____ _____    ______ ____
ROOT
ATOM      1  N   UNL     1      34.416 -15.864 -24.593  0.00  0.00    -0.244 NA
ATOM      2  C   UNL     1      34.544 -17.928 -22.714  0.00  0.00    +0.016 C 
ATOM      3  C   UNL     1      34.007 -16.696 -22.360  0.00  0.00    +0.020 C 
ATOM      4  C   UNL     1      33.966 -15.705 -23.328  0.00  0.00    +0.083 C 
ATOM      5  C   UNL     1      35.019 -18.130 -24.005  0.00  0.00    +0.022 C 
ATOM      6  C   UNL     1      34.932 -17.075 -24.900  0.00  0.00    +0.099 C 
ENDROOT
BRANCH   2  14
ATOM      7  O   UNL     1      37.129 -21.504 -19.252  0.00  0.00    -0.270 OA
ATOM      8  N   UNL     1      33.492 -19.685 -21.346  0.00  0.00    -0.316 N 
ATOM      9  N   UNL     1      35.052 -22.231 -18.547  0.00  0.00    -0.300 N 
ATOM     10  C   UNL     1      33.859 -20.631 -20.432  0.00  0.00    +0.031 C 
ATOM     11  C   UNL     1      32.959 -21.607 -19.774  0.00  0.00    +0.063 C 
ATOM     12  C   UNL     1      35.222 -20.548 -20.234  0.00  0.00    +0.064 C 
ATOM     13  C   UNL     1      33.603 -22.016 -18.445  0.00  0.00    +0.096 C 
ATOM     14  C   UNL     1      34.611 -18.995 -21.745  0.00  0.00    +0.048 C 
ATOM     15  C   UNL     1      35.700 -19.515 -21.074  0.00  0.00    +0.020 C 
ATOM     16  C   UNL     1      35.905 -21.443 -19.318  0.00  0.00    +0.247 C 
ATOM     17  H   UNL     1      32.575 -19.524 -21.666  0.00  0.00    +0.152 HD
ATOM     18  H   UNL     1      35.445 -22.977 -18.040  0.00  0.00    +0.150 HD
ENDBRANCH   2  14
BRANCH   4  20
ATOM     19  N   UNL     1      31.951 -13.027 -21.700  0.00  0.00    -0.244 NA
ATOM     20  C   UNL     1      33.422 -14.401 -23.034  0.00  0.00    +0.037 C 
ATOM     21  C   UNL     1      33.808 -13.281 -23.757  0.00  0.00    +0.005 C 
ATOM     22  C   UNL     1      33.266 -12.025 -23.453  0.00  0.00    +0.018 C 
ATOM     23  C   UNL     1      32.327 -11.943 -22.403  0.00  0.00    +0.081 C 
ATOM     24  C   UNL     1      32.497 -14.221 -22.025  0.00  0.00    +0.100 C 
ATOM     25  C   UNL     1      33.637 -10.871 -24.165  0.00  0.00    +0.001 C 
ATOM     26  C   UNL     1      31.789 -10.695 -22.101  0.00  0.00    +0.019 C 
ATOM     27  C   UNL     1      33.082  -9.636 -23.842  0.00  0.00    +0.000 C 
ATOM     28  C   UNL     1      32.157  -9.548 -22.809  0.00  0.00    +0.002 C 
ENDBRANCH   4  20
TORSDOF 2
ENDMDL
MODEL 7
REMARK VINA RESULT:     -11.6      2.670      8.553
REMARK  Name = 10389239
REMARK  2 active torsions:
REMARK  status: ('A' for Active; 'I' for Inactive)
REMARK    1  A    between atoms: C_2  and  C_14
REMARK    2  A    between atoms: C_4  and  C_20
REMARK                            x       y       z     vdW  Elec       q    Type
REMARK                         _______ _______ _______ _____ _____    ______ ____
ROOT
ATOM      1  N   UNL     1      34.262 -15.728 -24.879  0.00  0.00    -0.244 NA
ATOM      2  C   UNL     1      34.480 -17.767 -22.980  0.00  0.00    +0.016 C 
ATOM      3  C   UNL     1      34.030 -16.508 -22.602  0.00  0.00    +0.020 C 
ATOM      4  C   UNL     1      33.940 -15.531 -23.580  0.00  0.00    +0.083 C 
ATOM      5  C   UNL     1      34.823 -18.009 -24.306  0.00  0.00    +0.022 C 
ATOM      6  C   UNL     1      34.696 -16.965 -25.208  0.00  0.00    +0.099 C 
ENDROOT
BRANCH   2  14
ATOM      7  O   UNL     1      37.224 -21.257 -19.553  0.00  0.00    -0.270 OA
ATOM      8  N   UNL     1      33.498 -19.526 -21.562  0.00  0.00    -0.316 N 
ATOM      9  N   UNL     1      35.181 -22.011 -18.781  0.00  0.00    -0.300 N 
ATOM     10  C   UNL     1      33.907 -20.454 -20.649  0.00  0.00    +0.031 C 
ATOM     11  C   UNL     1      33.043 -21.437 -19.954  0.00  0.00    +0.063 C 
ATOM     12  C   UNL     1      35.273 -20.346 -20.491  0.00  0.00    +0.064 C 
ATOM     13  C   UNL     1      33.732 -21.820 -18.639  0.00  0.00    +0.096 C 
ATOM     14  C   UNL     1      34.592 -18.821 -22.001  0.00  0.00    +0.048 C 
ATOM     15  C   UNL     1      35.709 -19.314 -21.356  0.00  0.00    +0.020 C 
ATOM     16  C   UNL     1      35.998 -21.217 -19.585  0.00  0.00    +0.247 C 
ATOM     17  H   UNL     1      32.569 -19.384 -21.858  0.00  0.00    +0.152 HD
ATOM     18  H   UNL     1      35.601 -22.744 -18.276  0.00  0.00    +0.150 HD
ENDBRANCH   2  14
BRANCH   4  20
ATOM     19  N   UNL     1      33.335 -11.865 -23.861  0.00  0.00    -0.244 NA
ATOM     20  C   UNL     1      33.480 -14.200 -23.262  0.00  0.00    +0.037 C 
ATOM     21  C   UNL     1      32.765 -13.944 -22.101  0.00  0.00    +0.005 C 
ATOM     22  C   UNL     1      32.330 -12.643 -21.814  0.00  0.00    +0.018 C 
ATOM     23  C   UNL     1      32.642 -11.620 -22.733  0.00  0.00    +0.081 C 
ATOM     24  C   UNL     1      33.738 -13.134 -24.101  0.00  0.00    +0.100 C 
ATOM     25  C   UNL     1      31.603 -12.351 -20.647  0.00  0.00    +0.001 C 
ATOM     26  C   UNL     1      32.209 -10.328 -22.448  0.00  0.00    +0.019 C 
ATOM     27  C   UNL     1      31.183 -11.050 -20.386  0.00  0.00    +0.000 C 
ATOM     28  C   UNL     1      31.486 -10.037 -21.288  0.00  0.00    +0.002 C 
ENDBRANCH   4  20
TORSDOF 2
ENDMDL
MODEL 8
REMARK VINA RESULT:     -11.5      2.385      9.011
REMARK  Name = 10389239
REMARK  2 active torsions:
REMARK  status: ('A' for Active; 'I' for Inactive)
REMARK    1  A    between atoms: C_2  and  C_14
REMARK    2  A    between atoms: C_4  and  C_20
REMARK                            x       y       z     vdW  Elec       q    Type
REMARK                         _______ _______ _______ _____ _____    ______ ____
ROOT
ATOM      1  N   UNL     1      33.259 -14.029 -25.572  0.00  0.00    -0.244 NA
ATOM      2  C   UNL     1      34.141 -16.085 -23.897  0.00  0.00    +0.016 C 
ATOM      3  C   UNL     1      33.998 -14.794 -23.400  0.00  0.00    +0.020 C 
ATOM      4  C   UNL     1      33.558 -13.810 -24.271  0.00  0.00    +0.083 C 
ATOM      5  C   UNL     1      33.845 -16.349 -25.230  0.00  0.00    +0.022 C 
ATOM      6  C   UNL     1      33.411 -15.295 -26.018  0.00  0.00    +0.099 C 
ENDROOT
BRANCH   2  14
ATOM      7  O   UNL     1      37.969 -19.093 -21.112  0.00  0.00    -0.270 OA
ATOM      8  N   UNL     1      33.739 -18.103 -22.543  0.00  0.00    -0.316 N 
ATOM      9  N   UNL     1      36.244 -20.325 -20.192  0.00  0.00    -0.300 N 
ATOM     10  C   UNL     1      34.446 -18.973 -21.765  0.00  0.00    +0.031 C 
ATOM     11  C   UNL     1      33.904 -20.164 -21.070  0.00  0.00    +0.063 C 
ATOM     12  C   UNL     1      35.767 -18.577 -21.747  0.00  0.00    +0.064 C 
ATOM     13  C   UNL     1      34.817 -20.468 -19.877  0.00  0.00    +0.096 C 
ATOM     14  C   UNL     1      34.596 -17.148 -23.033  0.00  0.00    +0.048 C 
ATOM     15  C   UNL     1      35.863 -17.422 -22.560  0.00  0.00    +0.020 C 
ATOM     16  C   UNL     1      36.768 -19.322 -21.007  0.00  0.00    +0.247 C 
ATOM     17  H   UNL     1      32.772 -18.150 -22.722  0.00  0.00    +0.152 HD
ATOM     18  H   UNL     1      36.870 -20.979 -19.803  0.00  0.00    +0.150 HD
ENDBRANCH   2  14
BRANCH   4  20
ATOM     19  N   UNL     1      32.176 -10.851 -22.478  0.00  0.00    -0.244 NA
ATOM     20  C   UNL     1      33.385 -12.448 -23.827  0.00  0.00    +0.037 C 
ATOM     21  C   UNL     1      34.212 -11.432 -24.284  0.00  0.00    +0.005 C 
ATOM     22  C   UNL     1      34.025 -10.117 -23.838  0.00  0.00    +0.018 C 
ATOM     23  C   UNL     1      32.980  -9.867 -22.923  0.00  0.00    +0.081 C 
ATOM     24  C   UNL     1      32.390 -12.107 -22.933  0.00  0.00    +0.100 C 
ATOM     25  C   UNL     1      34.846  -9.065 -24.281  0.00  0.00    +0.001 C 
ATOM     26  C   UNL     1      32.795  -8.561 -22.480  0.00  0.00    +0.019 C 
ATOM     27  C   UNL     1      34.637  -7.767 -23.822  0.00  0.00    +0.000 C 
ATOM     28  C   UNL     1      33.610  -7.515 -22.920  0.00  0.00    +0.002 C 
ENDBRANCH   4  20
TORSDOF 2
ENDMDL
MODEL 9
REMARK VINA RESULT:     -11.3      3.033     10.287
REMARK  Name = 10389239
REMARK  2 active torsions:
REMARK  status: ('A' for Active; 'I' for Inactive)
REMARK    1  A    between atoms: C_2  and  C_14
REMARK    2  A    between atoms: C_4  and  C_20
REMARK                            x       y       z     vdW  Elec       q    Type
REMARK                         _______ _______ _______ _____ _____    ______ ____
ROOT
ATOM      1  N   UNL     1      31.451 -10.382 -21.450  0.00  0.00    -0.244 NA
ATOM      2  C   UNL     1      32.646 -12.786 -22.227  0.00  0.00    +0.016 C 
ATOM      3  C   UNL     1      32.917 -11.615 -22.926  0.00  0.00    +0.020 C 
ATOM      4  C   UNL     1      32.299 -10.450 -22.501  0.00  0.00    +0.083 C 
ATOM      5  C   UNL     1      31.778 -12.758 -21.141  0.00  0.00    +0.022 C 
ATOM      6  C   UNL     1      31.212 -11.541 -20.796  0.00  0.00    +0.099 C 
ENDROOT
BRANCH   2  14
ATOM      7  O   UNL     1      34.589 -16.551 -25.903  0.00  0.00    -0.270 OA
ATOM      8  N   UNL     1      33.605 -14.997 -21.715  0.00  0.00    -0.316 N 
ATOM      9  N   UNL     1      35.345 -17.813 -24.121  0.00  0.00    -0.300 N 
ATOM     10  C   UNL     1      34.161 -16.052 -22.379  0.00  0.00    +0.031 C 
ATOM     11  C   UNL     1      34.640 -17.314 -21.769  0.00  0.00    +0.063 C 
ATOM     12  C   UNL     1      34.184 -15.763 -23.728  0.00  0.00    +0.064 C 
ATOM     13  C   UNL     1      35.702 -17.911 -22.700  0.00  0.00    +0.096 C 
ATOM     14  C   UNL     1      33.263 -14.028 -22.627  0.00  0.00    +0.048 C 
ATOM     15  C   UNL     1      33.606 -14.481 -23.886  0.00  0.00    +0.020 C 
ATOM     16  C   UNL     1      34.712 -16.710 -24.692  0.00  0.00    +0.247 C 
ATOM     17  H   UNL     1      33.472 -14.938 -20.742  0.00  0.00    +0.152 HD
ATOM     18  H   UNL     1      35.566 -18.573 -24.705  0.00  0.00    +0.150 HD
ENDBRANCH   2  14
BRANCH   4  20
ATOM     19  N   UNL     1      34.063  -7.714 -24.314  0.00  0.00    -0.244 NA
ATOM     20  C   UNL     1      32.533  -9.196 -23.177  0.00  0.00    +0.037 C 
ATOM     21  C   UNL     1      31.512  -8.273 -23.353  0.00  0.00    +0.005 C 
ATOM     22  C   UNL     1      31.763  -7.062 -24.012  0.00  0.00    +0.018 C 
ATOM     23  C   UNL     1      33.071  -6.820 -24.483  0.00  0.00    +0.081 C 
ATOM     24  C   UNL     1      33.780  -8.870 -23.672  0.00  0.00    +0.100 C 
ATOM     25  C   UNL     1      30.751  -6.106 -24.207  0.00  0.00    +0.001 C 
ATOM     26  C   UNL     1      33.320  -5.618 -25.138  0.00  0.00    +0.019 C 
ATOM     27  C   UNL     1      31.028  -4.911 -24.866  0.00  0.00    +0.000 C 
ATOM     28  C   UNL     1      32.314  -4.667 -25.332  0.00  0.00    +0.002 C 
ENDBRANCH   4  20
TORSDOF 2
ENDMDL
