MODEL 1
REMARK VINA RESULT:      -6.2      0.000      0.000
REMARK  Name = 998
REMARK  2 active torsions:
REMARK  status: ('A' for Active; 'I' for Inactive)
REMARK    1  A    between atoms: C_1  and  C_7
REMARK    2  A    between atoms: C_7  and  C_9
REMARK                            x       y       z     vdW  Elec       q    Type
REMARK                         _______ _______ _______ _____ _____    ______ ____
ROOT
ATOM      1  C   UNL     1      35.045 -19.665 -20.948  0.00  0.00    -0.014 C 
ATOM      2  C   UNL     1      33.659 -19.764 -20.829  0.00  0.00    -0.004 C 
ATOM      3  C   UNL     1      35.869 -20.561 -20.268  0.00  0.00    -0.004 C 
ATOM      4  C   UNL     1      33.096 -20.760 -20.031  0.00  0.00    -0.000 C 
ATOM      5  C   UNL     1      35.307 -21.558 -19.470  0.00  0.00    -0.000 C 
ATOM      6  C   UNL     1      33.920 -21.657 -19.352  0.00  0.00    -0.000 C 
ENDROOT
BRANCH   1   7
ATOM      7  C   UNL     1      35.647 -18.600 -21.801  0.00  0.00    +0.098 C 
BRANCH   7   9
ATOM      8  O   UNL     1      35.228 -16.695 -20.349  0.00  0.00    -0.288 OA
ATOM      9  C   UNL     1      35.146 -17.218 -21.456  0.00  0.00    +0.212 C 
ENDBRANCH   7   9
ENDBRANCH   1   7
TORSDOF 2
ENDMDL
MODEL 2
REMARK VINA RESULT:      -6.2      0.025      1.611
REMARK  Name = 998
REMARK  2 active torsions:
REMARK  status: ('A' for Active; 'I' for Inactive)
REMARK    1  A    between atoms: C_1  and  C_7
REMARK    2  A    between atoms: C_7  and  C_9
REMARK                            x       y       z     vdW  Elec       q    Type
REMARK                         _______ _______ _______ _____ _____    ______ ____
ROOT
ATOM      1  C   UNL     1      35.034 -19.646 -20.956  0.00  0.00    -0.014 C 
ATOM      2  C   UNL     1      35.867 -20.541 -20.285  0.00  0.00    -0.004 C 
ATOM      3  C   UNL     1      33.649 -19.751 -20.825  0.00  0.00    -0.004 C 
ATOM      4  C   UNL     1      35.318 -21.540 -19.482  0.00  0.00    -0.000 C 
ATOM      5  C   UNL     1      33.098 -20.750 -20.021  0.00  0.00    -0.000 C 
ATOM      6  C   UNL     1      33.933 -21.644 -19.350  0.00  0.00    -0.000 C 
ENDROOT
BRANCH   1   7
ATOM      7  C   UNL     1      35.622 -18.578 -21.815  0.00  0.00    +0.098 C 
BRANCH   7   9
ATOM      8  O   UNL     1      35.214 -16.677 -20.353  0.00  0.00    -0.288 OA
ATOM      9  C   UNL     1      35.121 -17.199 -21.460  0.00  0.00    +0.212 C 
ENDBRANCH   7   9
ENDBRANCH   1   7
TORSDOF 2
ENDMDL
MODEL 3
REMARK VINA RESULT:      -6.0      2.566      4.290
REMARK  Name = 998
REMARK  2 active torsions:
REMARK  status: ('A' for Active; 'I' for Inactive)
REMARK    1  A    between atoms: C_1  and  C_7
REMARK    2  A    between atoms: C_7  and  C_9
REMARK                            x       y       z     vdW  Elec       q    Type
REMARK                         _______ _______ _______ _____ _____    ______ ____
ROOT
ATOM      1  C   UNL     1      34.360 -20.498 -20.214  0.00  0.00    -0.014 C 
ATOM      2  C   UNL     1      35.716 -20.734 -19.984  0.00  0.00    -0.004 C 
ATOM      3  C   UNL     1      33.963 -19.384 -20.955  0.00  0.00    -0.004 C 
ATOM      4  C   UNL     1      36.674 -19.858 -20.494  0.00  0.00    -0.000 C 
ATOM      5  C   UNL     1      34.921 -18.508 -21.466  0.00  0.00    -0.000 C 
ATOM      6  C   UNL     1      36.276 -18.745 -21.235  0.00  0.00    -0.000 C 
ENDROOT
BRANCH   1   7
ATOM      7  C   UNL     1      33.336 -21.434 -19.669  0.00  0.00    +0.098 C 
BRANCH   7   9
ATOM      8  O   UNL     1      33.883 -23.762 -19.222  0.00  0.00    -0.288 OA
ATOM      9  C   UNL     1      33.942 -22.580 -18.895  0.00  0.00    +0.212 C 
ENDBRANCH   7   9
ENDBRANCH   1   7
TORSDOF 2
ENDMDL
MODEL 4
REMARK VINA RESULT:      -6.0      1.242      2.043
REMARK  Name = 998
REMARK  2 active torsions:
REMARK  status: ('A' for Active; 'I' for Inactive)
REMARK    1  A    between atoms: C_1  and  C_7
REMARK    2  A    between atoms: C_7  and  C_9
REMARK                            x       y       z     vdW  Elec       q    Type
REMARK                         _______ _______ _______ _____ _____    ______ ____
ROOT
ATOM      1  C   UNL     1      35.160 -19.548 -20.947  0.00  0.00    -0.014 C 
ATOM      2  C   UNL     1      35.692 -20.611 -20.218  0.00  0.00    -0.004 C 
ATOM      3  C   UNL     1      33.778 -19.374 -21.018  0.00  0.00    -0.004 C 
ATOM      4  C   UNL     1      34.843 -21.500 -19.559  0.00  0.00    -0.000 C 
ATOM      5  C   UNL     1      32.928 -20.262 -20.359  0.00  0.00    -0.000 C 
ATOM      6  C   UNL     1      33.461 -21.326 -19.629  0.00  0.00    -0.000 C 
ENDROOT
BRANCH   1   7
ATOM      7  C   UNL     1      36.068 -18.597 -21.651  0.00  0.00    +0.098 C 
BRANCH   7   9
ATOM      8  O   UNL     1      35.270 -17.131 -23.420  0.00  0.00    -0.288 OA
ATOM      9  C   UNL     1      35.593 -18.253 -23.042  0.00  0.00    +0.212 C 
ENDBRANCH   7   9
ENDBRANCH   1   7
TORSDOF 2
ENDMDL
MODEL 5
REMARK VINA RESULT:      -5.9      2.471      3.645
REMARK  Name = 998
REMARK  2 active torsions:
REMARK  status: ('A' for Active; 'I' for Inactive)
REMARK    1  A    between atoms: C_1  and  C_7
REMARK    2  A    between atoms: C_7  and  C_9
REMARK                            x       y       z     vdW  Elec       q    Type
REMARK                         _______ _______ _______ _____ _____    ______ ____
ROOT
ATOM      1  C   UNL     1      35.363 -20.926 -19.914  0.00  0.00    -0.014 C 
ATOM      2  C   UNL     1      34.124 -21.425 -19.512  0.00  0.00    -0.004 C 
ATOM      3  C   UNL     1      35.427 -19.836 -20.783  0.00  0.00    -0.004 C 
ATOM      4  C   UNL     1      32.949 -20.835 -19.977  0.00  0.00    -0.000 C 
ATOM      5  C   UNL     1      34.252 -19.245 -21.248  0.00  0.00    -0.000 C 
ATOM      6  C   UNL     1      33.012 -19.745 -20.845  0.00  0.00    -0.000 C 
ENDROOT
BRANCH   1   7
ATOM      7  C   UNL     1      36.619 -21.557 -19.417  0.00  0.00    +0.098 C 
BRANCH   7   9
ATOM      8  O   UNL     1      36.473 -22.523 -17.189  0.00  0.00    -0.288 OA
ATOM      9  C   UNL     1      36.717 -21.560 -17.910  0.00  0.00    +0.212 C 
ENDBRANCH   7   9
ENDBRANCH   1   7
TORSDOF 2
ENDMDL
MODEL 6
REMARK VINA RESULT:      -5.9      3.000      4.540
REMARK  Name = 998
REMARK  2 active torsions:
REMARK  status: ('A' for Active; 'I' for Inactive)
REMARK    1  A    between atoms: C_1  and  C_7
REMARK    2  A    between atoms: C_7  and  C_9
REMARK                            x       y       z     vdW  Elec       q    Type
REMARK                         _______ _______ _______ _____ _____    ______ ____
ROOT
ATOM      1  C   UNL     1      34.079 -21.925 -19.123  0.00  0.00    -0.014 C 
ATOM      2  C   UNL     1      33.239 -21.039 -19.796  0.00  0.00    -0.004 C 
ATOM      3  C   UNL     1      35.463 -21.818 -19.264  0.00  0.00    -0.004 C 
ATOM      4  C   UNL     1      33.781 -20.045 -20.611  0.00  0.00    -0.000 C 
ATOM      5  C   UNL     1      36.006 -20.824 -20.078  0.00  0.00    -0.000 C 
ATOM      6  C   UNL     1      35.165 -19.937 -20.752  0.00  0.00    -0.000 C 
ENDROOT
BRANCH   1   7
ATOM      7  C   UNL     1      33.499 -22.988 -18.251  0.00  0.00    +0.098 C 
BRANCH   7   9
ATOM      8  O   UNL     1      34.811 -24.034 -16.491  0.00  0.00    -0.288 OA
ATOM      9  C   UNL     1      34.171 -23.071 -16.902  0.00  0.00    +0.212 C 
ENDBRANCH   7   9
ENDBRANCH   1   7
TORSDOF 2
ENDMDL
MODEL 7
REMARK VINA RESULT:      -5.8      2.229      4.281
REMARK  Name = 998
REMARK  2 active torsions:
REMARK  status: ('A' for Active; 'I' for Inactive)
REMARK    1  A    between atoms: C_1  and  C_7
REMARK    2  A    between atoms: C_7  and  C_9
REMARK                            x       y       z     vdW  Elec       q    Type
REMARK                         _______ _______ _______ _____ _____    ______ ____
ROOT
ATOM      1  C   UNL     1      34.737 -18.957 -21.630  0.00  0.00    -0.014 C 
ATOM      2  C   UNL     1      34.776 -19.269 -22.989  0.00  0.00    -0.004 C 
ATOM      3  C   UNL     1      34.849 -17.630 -21.215  0.00  0.00    -0.004 C 
ATOM      4  C   UNL     1      34.927 -18.254 -23.934  0.00  0.00    -0.000 C 
ATOM      5  C   UNL     1      34.999 -16.614 -22.160  0.00  0.00    -0.000 C 
ATOM      6  C   UNL     1      35.038 -16.927 -23.520  0.00  0.00    -0.000 C 
ENDROOT
BRANCH   1   7
ATOM      7  C   UNL     1      34.576 -20.043 -20.620  0.00  0.00    +0.098 C 
BRANCH   7   9
ATOM      8  O   UNL     1      32.676 -21.506 -20.216  0.00  0.00    -0.288 OA
ATOM      9  C   UNL     1      33.130 -20.372 -20.339  0.00  0.00    +0.212 C 
ENDBRANCH   7   9
ENDBRANCH   1   7
TORSDOF 2
ENDMDL
MODEL 8
REMARK VINA RESULT:      -5.7      3.124      4.211
REMARK  Name = 998
REMARK  2 active torsions:
REMARK  status: ('A' for Active; 'I' for Inactive)
REMARK    1  A    between atoms: C_1  and  C_7
REMARK    2  A    between atoms: C_7  and  C_9
REMARK                            x       y       z     vdW  Elec       q    Type
REMARK                         _______ _______ _______ _____ _____    ______ ____
ROOT
ATOM      1  C   UNL     1      34.846 -17.713 -23.794  0.00  0.00    -0.014 C 
ATOM      2  C   UNL     1      34.959 -16.749 -22.792  0.00  0.00    -0.004 C 
ATOM      3  C   UNL     1      34.828 -19.067 -23.460  0.00  0.00    -0.004 C 
ATOM      4  C   UNL     1      35.056 -17.139 -21.456  0.00  0.00    -0.000 C 
ATOM      5  C   UNL     1      34.923 -19.458 -22.124  0.00  0.00    -0.000 C 
ATOM      6  C   UNL     1      35.037 -18.493 -21.122  0.00  0.00    -0.000 C 
ENDROOT
BRANCH   1   7
ATOM      7  C   UNL     1      34.743 -17.297 -25.222  0.00  0.00    +0.098 C 
BRANCH   7   9
ATOM      8  O   UNL     1      33.496 -15.634 -26.487  0.00  0.00    -0.288 OA
ATOM      9  C   UNL     1      33.919 -16.046 -25.410  0.00  0.00    +0.212 C 
ENDBRANCH   7   9
ENDBRANCH   1   7
TORSDOF 2
ENDMDL
MODEL 9
REMARK VINA RESULT:      -5.6      3.195      4.367
REMARK  Name = 998
REMARK  2 active torsions:
REMARK  status: ('A' for Active; 'I' for Inactive)
REMARK    1  A    between atoms: C_1  and  C_7
REMARK    2  A    between atoms: C_7  and  C_9
REMARK                            x       y       z     vdW  Elec       q    Type
REMARK                         _______ _______ _______ _____ _____    ______ ____
ROOT
ATOM      1  C   UNL     1      34.841 -17.499 -23.865  0.00  0.00    -0.014 C 
ATOM      2  C   UNL     1      34.751 -18.874 -23.654  0.00  0.00    -0.004 C 
ATOM      3  C   UNL     1      34.961 -16.633 -22.778  0.00  0.00    -0.004 C 
ATOM      4  C   UNL     1      34.780 -19.386 -22.357  0.00  0.00    -0.000 C 
ATOM      5  C   UNL     1      34.991 -17.144 -21.479  0.00  0.00    -0.000 C 
ATOM      6  C   UNL     1      34.900 -18.520 -21.269  0.00  0.00    -0.000 C 
ENDROOT
BRANCH   1   7
ATOM      7  C   UNL     1      34.811 -16.952 -25.252  0.00  0.00    +0.098 C 
BRANCH   7   9
ATOM      8  O   UNL     1      33.066 -15.747 -26.443  0.00  0.00    -0.288 OA
ATOM      9  C   UNL     1      33.758 -15.886 -25.440  0.00  0.00    +0.212 C 
ENDBRANCH   7   9
ENDBRANCH   1   7
TORSDOF 2
ENDMDL
