MODEL 1
REMARK VINA RESULT:      -6.7      0.000      0.000
REMARK  Name = 1292
REMARK  4 active torsions:
REMARK  status: ('A' for Active; 'I' for Inactive)
REMARK    1  A    between atoms: C_1  and  C_2
REMARK    2  A    between atoms: C_1  and  O_8
REMARK    3  A    between atoms: C_1  and  C_11
REMARK    4  A    between atoms: C_11  and  O_12
REMARK                            x       y       z     vdW  Elec       q    Type
REMARK                         _______ _______ _______ _____ _____    ______ ____
ROOT
ATOM      1  C   UNL     1      34.602 -18.554 -21.457  0.00  0.00    +0.232 C 
ENDROOT
BRANCH   1   2
ATOM      2  C   UNL     1      34.558 -19.818 -20.667  0.00  0.00    +0.015 C 
ATOM      3  C   UNL     1      35.743 -20.466 -20.322  0.00  0.00    -0.001 C 
ATOM      4  C   UNL     1      33.331 -20.351 -20.274  0.00  0.00    -0.001 C 
ATOM      5  C   UNL     1      35.701 -21.649 -19.583  0.00  0.00    -0.000 C 
ATOM      6  C   UNL     1      33.289 -21.534 -19.535  0.00  0.00    -0.000 C 
ATOM      7  C   UNL     1      34.474 -22.182 -19.190  0.00  0.00    -0.000 C 
ENDBRANCH   1   2
BRANCH   1   8
ATOM      8  O   UNL     1      35.319 -17.553 -20.738  0.00  0.00    -0.371 OA
ATOM      9  H   UNL     1      35.500 -17.868 -19.839  0.00  0.00    +0.211 HD
ENDBRANCH   1   8
BRANCH   1  11
ATOM     10  O   UNL     1      34.804 -19.426 -23.725  0.00  0.00    -0.247 OA
ATOM     11  C   UNL     1      35.248 -18.718 -22.830  0.00  0.00    +0.345 C 
BRANCH  11  12
ATOM     12  O   UNL     1      36.402 -18.012 -22.958  0.00  0.00    -0.478 OA
ATOM     13  H   UNL     1      37.228 -18.447 -22.882  0.00  0.00    +0.295 HD
ENDBRANCH  11  12
ENDBRANCH   1  11
TORSDOF 4
ENDMDL
MODEL 2
REMARK VINA RESULT:      -6.6      1.079      2.393
REMARK  Name = 1292
REMARK  4 active torsions:
REMARK  status: ('A' for Active; 'I' for Inactive)
REMARK    1  A    between atoms: C_1  and  C_2
REMARK    2  A    between atoms: C_1  and  O_8
REMARK    3  A    between atoms: C_1  and  C_11
REMARK    4  A    between atoms: C_11  and  O_12
REMARK                            x       y       z     vdW  Elec       q    Type
REMARK                         _______ _______ _______ _____ _____    ______ ____
ROOT
ATOM      1  C   UNL     1      35.646 -18.545 -21.840  0.00  0.00    +0.232 C 
ENDROOT
BRANCH   1   2
ATOM      2  C   UNL     1      34.961 -19.579 -21.011  0.00  0.00    +0.015 C 
ATOM      3  C   UNL     1      33.569 -19.600 -20.933  0.00  0.00    -0.001 C 
ATOM      4  C   UNL     1      35.714 -20.523 -20.313  0.00  0.00    -0.001 C 
ATOM      5  C   UNL     1      32.929 -20.568 -20.158  0.00  0.00    -0.000 C 
ATOM      6  C   UNL     1      35.073 -21.490 -19.538  0.00  0.00    -0.000 C 
ATOM      7  C   UNL     1      33.681 -21.512 -19.460  0.00  0.00    -0.000 C 
ENDBRANCH   1   2
BRANCH   1   8
ATOM      8  O   UNL     1      35.396 -18.783 -23.223  0.00  0.00    -0.371 OA
ATOM      9  H   UNL     1      36.147 -18.462 -23.747  0.00  0.00    +0.211 HD
ENDBRANCH   1   8
BRANCH   1  11
ATOM     10  O   UNL     1      35.218 -16.636 -20.385  0.00  0.00    -0.247 OA
ATOM     11  C   UNL     1      35.215 -17.119 -21.510  0.00  0.00    +0.345 C 
BRANCH  11  12
ATOM     12  O   UNL     1      34.792 -16.430 -22.601  0.00  0.00    -0.478 OA
ATOM     13  H   UNL     1      34.412 -15.579 -22.499  0.00  0.00    +0.295 HD
ENDBRANCH  11  12
ENDBRANCH   1  11
TORSDOF 4
ENDMDL
MODEL 3
REMARK VINA RESULT:      -6.6      8.372      9.187
REMARK  Name = 1292
REMARK  4 active torsions:
REMARK  status: ('A' for Active; 'I' for Inactive)
REMARK    1  A    between atoms: C_1  and  C_2
REMARK    2  A    between atoms: C_1  and  O_8
REMARK    3  A    between atoms: C_1  and  C_11
REMARK    4  A    between atoms: C_11  and  O_12
REMARK                            x       y       z     vdW  Elec       q    Type
REMARK                         _______ _______ _______ _____ _____    ______ ____
ROOT
ATOM      1  C   UNL     1      28.238 -23.152 -17.042  0.00  0.00    +0.232 C 
ENDROOT
BRANCH   1   2
ATOM      2  C   UNL     1      29.181 -23.554 -15.959  0.00  0.00    +0.015 C 
ATOM      3  C   UNL     1      29.183 -24.867 -15.489  0.00  0.00    -0.001 C 
ATOM      4  C   UNL     1      30.059 -22.617 -15.416  0.00  0.00    -0.001 C 
ATOM      5  C   UNL     1      30.066 -25.244 -14.476  0.00  0.00    -0.000 C 
ATOM      6  C   UNL     1      30.941 -22.994 -14.403  0.00  0.00    -0.000 C 
ATOM      7  C   UNL     1      30.944 -24.306 -13.933  0.00  0.00    -0.000 C 
ENDBRANCH   1   2
BRANCH   1   8
ATOM      8  O   UNL     1      27.635 -24.307 -17.620  0.00  0.00    -0.371 OA
ATOM      9  H   UNL     1      26.907 -24.035 -18.201  0.00  0.00    +0.211 HD
ENDBRANCH   1   8
BRANCH   1  11
ATOM     10  O   UNL     1      26.492 -22.366 -15.532  0.00  0.00    -0.247 OA
ATOM     11  C   UNL     1      27.131 -22.216 -16.567  0.00  0.00    +0.345 C 
BRANCH  11  12
ATOM     12  O   UNL     1      26.894 -21.195 -17.431  0.00  0.00    -0.478 OA
ATOM     13  H   UNL     1      26.262 -20.537 -17.217  0.00  0.00    +0.295 HD
ENDBRANCH  11  12
ENDBRANCH   1  11
TORSDOF 4
ENDMDL
MODEL 4
REMARK VINA RESULT:      -6.4      1.001      1.109
REMARK  Name = 1292
REMARK  4 active torsions:
REMARK  status: ('A' for Active; 'I' for Inactive)
REMARK    1  A    between atoms: C_1  and  C_2
REMARK    2  A    between atoms: C_1  and  O_8
REMARK    3  A    between atoms: C_1  and  C_11
REMARK    4  A    between atoms: C_11  and  O_12
REMARK                            x       y       z     vdW  Elec       q    Type
REMARK                         _______ _______ _______ _____ _____    ______ ____
ROOT
ATOM      1  C   UNL     1      34.453 -17.596 -21.814  0.00  0.00    +0.232 C 
ENDROOT
BRANCH   1   2
ATOM      2  C   UNL     1      34.484 -18.908 -21.106  0.00  0.00    +0.015 C 
ATOM      3  C   UNL     1      35.705 -19.510 -20.806  0.00  0.00    -0.001 C 
ATOM      4  C   UNL     1      33.290 -19.532 -20.745  0.00  0.00    -0.001 C 
ATOM      5  C   UNL     1      35.733 -20.737 -20.143  0.00  0.00    -0.000 C 
ATOM      6  C   UNL     1      33.319 -20.760 -20.082  0.00  0.00    -0.000 C 
ATOM      7  C   UNL     1      34.539 -21.362 -19.782  0.00  0.00    -0.000 C 
ENDBRANCH   1   2
BRANCH   1   8
ATOM      8  O   UNL     1      35.054 -16.588 -21.003  0.00  0.00    -0.371 OA
ATOM      9  H   UNL     1      35.692 -16.999 -20.399  0.00  0.00    +0.211 HD
ENDBRANCH   1   8
BRANCH   1  11
ATOM     10  O   UNL     1      35.189 -18.580 -23.920  0.00  0.00    -0.247 OA
ATOM     11  C   UNL     1      35.165 -17.617 -23.163  0.00  0.00    +0.345 C 
BRANCH  11  12
ATOM     12  O   UNL     1      35.808 -16.453 -23.440  0.00  0.00    -0.478 OA
ATOM     13  H   UNL     1      35.316 -15.671 -23.595  0.00  0.00    +0.295 HD
ENDBRANCH  11  12
ENDBRANCH   1  11
TORSDOF 4
ENDMDL
MODEL 5
REMARK VINA RESULT:      -6.3      7.609      9.082
REMARK  Name = 1292
REMARK  4 active torsions:
REMARK  status: ('A' for Active; 'I' for Inactive)
REMARK    1  A    between atoms: C_1  and  C_2
REMARK    2  A    between atoms: C_1  and  O_8
REMARK    3  A    between atoms: C_1  and  C_11
REMARK    4  A    between atoms: C_11  and  O_12
REMARK                            x       y       z     vdW  Elec       q    Type
REMARK                         _______ _______ _______ _____ _____    ______ ____
ROOT
ATOM      1  C   UNL     1      38.697 -25.698 -14.350  0.00  0.00    +0.232 C 
ENDROOT
BRANCH   1   2
ATOM      2  C   UNL     1      37.634 -24.789 -14.866  0.00  0.00    +0.015 C 
ATOM      3  C   UNL     1      36.299 -25.189 -14.836  0.00  0.00    -0.001 C 
ATOM      4  C   UNL     1      37.976 -23.538 -15.380  0.00  0.00    -0.001 C 
ATOM      5  C   UNL     1      35.304 -24.338 -15.319  0.00  0.00    -0.000 C 
ATOM      6  C   UNL     1      36.981 -22.687 -15.862  0.00  0.00    -0.000 C 
ATOM      7  C   UNL     1      35.646 -23.087 -15.832  0.00  0.00    -0.000 C 
ENDBRANCH   1   2
BRANCH   1   8
ATOM      8  O   UNL     1      38.390 -27.050 -14.686  0.00  0.00    -0.371 OA
ATOM      9  H   UNL     1      38.570 -27.197 -15.628  0.00  0.00    +0.211 HD
ENDBRANCH   1   8
BRANCH   1  11
ATOM     10  O   UNL     1      40.914 -24.684 -14.299  0.00  0.00    -0.247 OA
ATOM     11  C   UNL     1      40.088 -25.372 -14.887  0.00  0.00    +0.345 C 
BRANCH  11  12
ATOM     12  O   UNL     1      40.318 -25.902 -16.115  0.00  0.00    -0.478 OA
ATOM     13  H   UNL     1      40.496 -26.818 -16.204  0.00  0.00    +0.295 HD
ENDBRANCH  11  12
ENDBRANCH   1  11
TORSDOF 4
ENDMDL
MODEL 6
REMARK VINA RESULT:      -6.2      8.811      9.894
REMARK  Name = 1292
REMARK  4 active torsions:
REMARK  status: ('A' for Active; 'I' for Inactive)
REMARK    1  A    between atoms: C_1  and  C_2
REMARK    2  A    between atoms: C_1  and  O_8
REMARK    3  A    between atoms: C_1  and  C_11
REMARK    4  A    between atoms: C_11  and  O_12
REMARK                            x       y       z     vdW  Elec       q    Type
REMARK                         _______ _______ _______ _____ _____    ______ ____
ROOT
ATOM      1  C   UNL     1      38.802 -26.093 -14.407  0.00  0.00    +0.232 C 
ENDROOT
BRANCH   1   2
ATOM      2  C   UNL     1      37.965 -25.096 -13.679  0.00  0.00    +0.015 C 
ATOM      3  C   UNL     1      37.191 -24.181 -14.393  0.00  0.00    -0.001 C 
ATOM      4  C   UNL     1      37.956 -25.079 -12.285  0.00  0.00    -0.001 C 
ATOM      5  C   UNL     1      36.408 -23.249 -13.711  0.00  0.00    -0.000 C 
ATOM      6  C   UNL     1      37.173 -24.146 -11.604  0.00  0.00    -0.000 C 
ATOM      7  C   UNL     1      36.399 -23.232 -12.317  0.00  0.00    -0.000 C 
ENDBRANCH   1   2
BRANCH   1   8
ATOM      8  O   UNL     1      38.095 -26.589 -15.542  0.00  0.00    -0.371 OA
ATOM      9  H   UNL     1      38.344 -26.076 -16.327  0.00  0.00    +0.211 HD
ENDBRANCH   1   8
BRANCH   1  11
ATOM     10  O   UNL     1      40.838 -24.763 -14.230  0.00  0.00    -0.247 OA
ATOM     11  C   UNL     1      40.140 -25.532 -14.879  0.00  0.00    +0.345 C 
BRANCH  11  12
ATOM     12  O   UNL     1      40.479 -25.953 -16.125  0.00  0.00    -0.478 OA
ATOM     13  H   UNL     1      40.884 -26.790 -16.243  0.00  0.00    +0.295 HD
ENDBRANCH  11  12
ENDBRANCH   1  11
TORSDOF 4
ENDMDL
MODEL 7
REMARK VINA RESULT:      -6.2      1.560      2.713
REMARK  Name = 1292
REMARK  4 active torsions:
REMARK  status: ('A' for Active; 'I' for Inactive)
REMARK    1  A    between atoms: C_1  and  C_2
REMARK    2  A    between atoms: C_1  and  O_8
REMARK    3  A    between atoms: C_1  and  C_11
REMARK    4  A    between atoms: C_11  and  O_12
REMARK                            x       y       z     vdW  Elec       q    Type
REMARK                         _______ _______ _______ _____ _____    ______ ____
ROOT
ATOM      1  C   UNL     1      34.771 -17.501 -23.254  0.00  0.00    +0.232 C 
ENDROOT
BRANCH   1   2
ATOM      2  C   UNL     1      35.085 -18.491 -22.183  0.00  0.00    +0.015 C 
ATOM      3  C   UNL     1      34.068 -19.272 -21.635  0.00  0.00    -0.001 C 
ATOM      4  C   UNL     1      36.396 -18.634 -21.729  0.00  0.00    -0.001 C 
ATOM      5  C   UNL     1      34.363 -20.198 -20.633  0.00  0.00    -0.000 C 
ATOM      6  C   UNL     1      36.690 -19.559 -20.727  0.00  0.00    -0.000 C 
ATOM      7  C   UNL     1      35.674 -20.340 -20.180  0.00  0.00    -0.000 C 
ENDBRANCH   1   2
BRANCH   1   8
ATOM      8  O   UNL     1      35.777 -16.492 -23.297  0.00  0.00    -0.371 OA
ATOM      9  H   UNL     1      35.911 -16.209 -24.215  0.00  0.00    +0.211 HD
ENDBRANCH   1   8
BRANCH   1  11
ATOM     10  O   UNL     1      34.606 -19.330 -24.858  0.00  0.00    -0.247 OA
ATOM     11  C   UNL     1      34.653 -18.126 -24.641  0.00  0.00    +0.345 C 
BRANCH  11  12
ATOM     12  O   UNL     1      34.634 -17.201 -25.636  0.00  0.00    -0.478 OA
ATOM     13  H   UNL     1      35.282 -17.227 -26.312  0.00  0.00    +0.295 HD
ENDBRANCH  11  12
ENDBRANCH   1  11
TORSDOF 4
ENDMDL
MODEL 8
REMARK VINA RESULT:      -6.0      3.099      4.418
REMARK  Name = 1292
REMARK  4 active torsions:
REMARK  status: ('A' for Active; 'I' for Inactive)
REMARK    1  A    between atoms: C_1  and  C_2
REMARK    2  A    between atoms: C_1  and  O_8
REMARK    3  A    between atoms: C_1  and  C_11
REMARK    4  A    between atoms: C_11  and  O_12
REMARK                            x       y       z     vdW  Elec       q    Type
REMARK                         _______ _______ _______ _____ _____    ______ ____
ROOT
ATOM      1  C   UNL     1      35.344 -22.058 -19.322  0.00  0.00    +0.232 C 
ENDROOT
BRANCH   1   2
ATOM      2  C   UNL     1      34.925 -20.822 -20.044  0.00  0.00    +0.015 C 
ATOM      3  C   UNL     1      35.888 -19.942 -20.536  0.00  0.00    -0.001 C 
ATOM      4  C   UNL     1      33.570 -20.547 -20.227  0.00  0.00    -0.001 C 
ATOM      5  C   UNL     1      35.496 -18.786 -21.211  0.00  0.00    -0.000 C 
ATOM      6  C   UNL     1      33.179 -19.391 -20.902  0.00  0.00    -0.000 C 
ATOM      7  C   UNL     1      34.141 -18.510 -21.394  0.00  0.00    -0.000 C 
ENDBRANCH   1   2
BRANCH   1   8
ATOM      8  O   UNL     1      36.184 -21.720 -18.221  0.00  0.00    -0.371 OA
ATOM      9  H   UNL     1      36.188 -22.450 -17.582  0.00  0.00    +0.211 HD
ENDBRANCH   1   8
BRANCH   1  11
ATOM     10  O   UNL     1      33.569 -22.650 -17.759  0.00  0.00    -0.247 OA
ATOM     11  C   UNL     1      34.171 -22.883 -18.800  0.00  0.00    +0.345 C 
BRANCH  11  12
ATOM     12  O   UNL     1      33.870 -23.938 -19.599  0.00  0.00    -0.478 OA
ATOM     13  H   UNL     1      32.985 -24.084 -19.869  0.00  0.00    +0.295 HD
ENDBRANCH  11  12
ENDBRANCH   1  11
TORSDOF 4
ENDMDL
MODEL 9
REMARK VINA RESULT:      -6.0      2.116      4.477
REMARK  Name = 1292
REMARK  4 active torsions:
REMARK  status: ('A' for Active; 'I' for Inactive)
REMARK    1  A    between atoms: C_1  and  C_2
REMARK    2  A    between atoms: C_1  and  O_8
REMARK    3  A    between atoms: C_1  and  C_11
REMARK    4  A    between atoms: C_11  and  O_12
REMARK                            x       y       z     vdW  Elec       q    Type
REMARK                         _______ _______ _______ _____ _____    ______ ____
ROOT
ATOM      1  C   UNL     1      35.218 -19.830 -21.238  0.00  0.00    +0.232 C 
ENDROOT
BRANCH   1   2
ATOM      2  C   UNL     1      35.072 -18.818 -22.323  0.00  0.00    +0.015 C 
ATOM      3  C   UNL     1      34.781 -19.228 -23.624  0.00  0.00    -0.001 C 
ATOM      4  C   UNL     1      35.227 -17.462 -22.038  0.00  0.00    -0.001 C 
ATOM      5  C   UNL     1      34.643 -18.281 -24.639  0.00  0.00    -0.000 C 
ATOM      6  C   UNL     1      35.090 -16.515 -23.053  0.00  0.00    -0.000 C 
ATOM      7  C   UNL     1      34.798 -16.925 -24.353  0.00  0.00    -0.000 C 
ENDBRANCH   1   2
BRANCH   1   8
ATOM      8  O   UNL     1      36.158 -19.373 -20.267  0.00  0.00    -0.371 OA
ATOM      9  H   UNL     1      36.678 -20.125 -19.943  0.00  0.00    +0.211 HD
ENDBRANCH   1   8
BRANCH   1  11
ATOM     10  O   UNL     1      32.844 -19.581 -20.740  0.00  0.00    -0.247 OA
ATOM     11  C   UNL     1      33.907 -20.151 -20.526  0.00  0.00    +0.345 C 
BRANCH  11  12
ATOM     12  O   UNL     1      34.038 -21.129 -19.593  0.00  0.00    -0.478 OA
ATOM     13  H   UNL     1      34.841 -21.607 -19.525  0.00  0.00    +0.295 HD
ENDBRANCH  11  12
ENDBRANCH   1  11
TORSDOF 4
ENDMDL
