MODEL 1
REMARK VINA RESULT:      -9.2      0.000      0.000
REMARK  Name = 11501341
REMARK  12 active torsions:
REMARK  status: ('A' for Active; 'I' for Inactive)
REMARK    1  A    between atoms: C_1  and  C_7
REMARK    2  A    between atoms: C_2  and  O_18
REMARK    3  A    between atoms: C_8  and  C_9
REMARK    4  A    between atoms: C_10  and  N_15
REMARK    5  A    between atoms: O_18  and  C_19
REMARK    6  A    between atoms: C_19  and  C_20
REMARK    7  A    between atoms: C_20  and  O_21
REMARK    8  A    between atoms: O_21  and  C_22
REMARK    9  A    between atoms: C_22  and  C_23
REMARK   10  A    between atoms: C_23  and  O_24
REMARK   11  A    between atoms: O_24  and  C_25
REMARK   12  A    between atoms: C_25  and  C_27
REMARK                            x       y       z     vdW  Elec       q    Type
REMARK                         _______ _______ _______ _____ _____    ______ ____
ROOT
ATOM      1  C   UNL     1      34.417 -20.503 -20.294  0.00  0.00    +0.000 C 
ATOM      2  C   UNL     1      34.988 -22.288 -18.254  0.00  0.00    +0.139 C 
ATOM      3  C   UNL     1      35.729 -20.665 -19.883  0.00  0.00    +0.003 C 
ATOM      4  C   UNL     1      33.383 -21.214 -19.707  0.00  0.00    +0.003 C 
ATOM      5  C   UNL     1      36.017 -21.564 -18.855  0.00  0.00    +0.037 C 
ATOM      6  C   UNL     1      33.671 -22.114 -18.680  0.00  0.00    +0.037 C 
ENDROOT
BRANCH   1   7
ATOM      7  C   UNL     1      34.112 -19.553 -21.378  0.00  0.00    +0.000 C 
ATOM      8  C   UNL     1      35.022 -18.784 -22.021  0.00  0.00    +0.000 C 
BRANCH   8   9
ATOM      9  C   UNL     1      34.725 -17.860 -23.105  0.00  0.00    +0.000 C 
ATOM     10  C   UNL     1      34.156 -16.089 -25.184  0.00  0.00    +0.045 C 
ATOM     11  C   UNL     1      34.581 -16.498 -22.841  0.00  0.00    +0.001 C 
ATOM     12  C   UNL     1      34.585 -18.336 -24.408  0.00  0.00    +0.001 C 
ATOM     13  C   UNL     1      34.296 -15.612 -23.880  0.00  0.00    +0.014 C 
ATOM     14  C   UNL     1      34.301 -17.451 -25.448  0.00  0.00    +0.014 C 
BRANCH  10  15
ATOM     15  N   UNL     1      33.868 -15.193 -26.235  0.00  0.00    -0.331 N 
ATOM     16  C   UNL     1      32.638 -14.469 -26.321  0.00  0.00    +0.109 C 
ATOM     17  H   UNL     1      34.542 -15.061 -26.939  0.00  0.00    +0.147 HD
ENDBRANCH  10  15
ENDBRANCH   8   9
ENDBRANCH   1   7
BRANCH   2  18
ATOM     18  O   UNL     1      35.269 -23.165 -17.252  0.00  0.00    -0.473 OA
BRANCH  18  19
ATOM     19  C   UNL     1      36.006 -22.664 -16.138  0.00  0.00    +0.237 C 
BRANCH  19  20
ATOM     20  C   UNL     1      35.653 -23.473 -14.905  0.00  0.00    +0.189 C 
BRANCH  20  21
ATOM     21  O   UNL     1      35.574 -24.848 -15.259  0.00  0.00    -0.347 OA
BRANCH  21  22
ATOM     22  C   UNL     1      36.374 -25.653 -14.404  0.00  0.00    +0.174 C 
BRANCH  22  23
ATOM     23  C   UNL     1      37.095 -26.695 -15.238  0.00  0.00    +0.174 C 
BRANCH  23  24
ATOM     24  O   UNL     1      38.368 -26.953 -14.658  0.00  0.00    -0.348 OA
BRANCH  24  25
ATOM     25  C   UNL     1      38.896 -25.796 -14.024  0.00  0.00    +0.180 C 
BRANCH  25  27
ATOM     26  F   UNL     1      41.005 -26.667 -14.524  0.00  0.00    -0.232 F 
ATOM     27  C   UNL     1      40.274 -25.520 -14.583  0.00  0.00    +0.225 C 
ENDBRANCH  25  27
ENDBRANCH  24  25
ENDBRANCH  23  24
ENDBRANCH  22  23
ENDBRANCH  21  22
ENDBRANCH  20  21
ENDBRANCH  19  20
ENDBRANCH  18  19
ENDBRANCH   2  18
TORSDOF 12
ENDMDL
MODEL 2
REMARK VINA RESULT:      -9.2      1.720      2.496
REMARK  Name = 11501341
REMARK  12 active torsions:
REMARK  status: ('A' for Active; 'I' for Inactive)
REMARK    1  A    between atoms: C_1  and  C_7
REMARK    2  A    between atoms: C_2  and  O_18
REMARK    3  A    between atoms: C_8  and  C_9
REMARK    4  A    between atoms: C_10  and  N_15
REMARK    5  A    between atoms: O_18  and  C_19
REMARK    6  A    between atoms: C_19  and  C_20
REMARK    7  A    between atoms: C_20  and  O_21
REMARK    8  A    between atoms: O_21  and  C_22
REMARK    9  A    between atoms: C_22  and  C_23
REMARK   10  A    between atoms: C_23  and  O_24
REMARK   11  A    between atoms: O_24  and  C_25
REMARK   12  A    between atoms: C_25  and  C_27
REMARK                            x       y       z     vdW  Elec       q    Type
REMARK                         _______ _______ _______ _____ _____    ______ ____
ROOT
ATOM      1  C   UNL     1      34.316 -19.820 -20.723  0.00  0.00    +0.000 C 
ATOM      2  C   UNL     1      34.468 -22.082 -19.131  0.00  0.00    +0.139 C 
ATOM      3  C   UNL     1      33.149 -20.389 -20.241  0.00  0.00    +0.003 C 
ATOM      4  C   UNL     1      35.558 -20.358 -20.427  0.00  0.00    +0.003 C 
ATOM      5  C   UNL     1      33.225 -21.528 -19.439  0.00  0.00    +0.037 C 
ATOM      6  C   UNL     1      35.634 -21.497 -19.625  0.00  0.00    +0.037 C 
ENDROOT
BRANCH   1   7
ATOM      7  C   UNL     1      34.237 -18.617 -21.570  0.00  0.00    +0.000 C 
ATOM      8  C   UNL     1      34.285 -17.341 -21.120  0.00  0.00    +0.000 C 
BRANCH   8   9
ATOM      9  C   UNL     1      34.226 -16.152 -21.956  0.00  0.00    +0.000 C 
ATOM     10  C   UNL     1      34.111 -13.872 -23.559  0.00  0.00    +0.045 C 
ATOM     11  C   UNL     1      34.196 -16.277 -23.345  0.00  0.00    +0.001 C 
ATOM     12  C   UNL     1      34.198 -14.888 -21.369  0.00  0.00    +0.001 C 
ATOM     13  C   UNL     1      34.139 -15.138 -24.147  0.00  0.00    +0.014 C 
ATOM     14  C   UNL     1      34.141 -13.747 -22.170  0.00  0.00    +0.014 C 
BRANCH  10  15
ATOM     15  N   UNL     1      34.054 -12.720 -24.370  0.00  0.00    -0.331 N 
ATOM     16  C   UNL     1      33.556 -11.464 -23.900  0.00  0.00    +0.109 C 
ATOM     17  H   UNL     1      34.369 -12.783 -25.300  0.00  0.00    +0.147 HD
ENDBRANCH  10  15
ENDBRANCH   8   9
ENDBRANCH   1   7
BRANCH   2  18
ATOM     18  O   UNL     1      34.542 -23.194 -18.349  0.00  0.00    -0.473 OA
BRANCH  18  19
ATOM     19  C   UNL     1      33.556 -23.336 -17.328  0.00  0.00    +0.237 C 
BRANCH  19  20
ATOM     20  C   UNL     1      34.245 -23.370 -15.977  0.00  0.00    +0.189 C 
BRANCH  20  21
ATOM     21  O   UNL     1      35.307 -24.315 -16.020  0.00  0.00    -0.347 OA
BRANCH  21  22
ATOM     22  C   UNL     1      36.267 -24.066 -15.003  0.00  0.00    +0.174 C 
BRANCH  22  23
ATOM     23  C   UNL     1      37.296 -23.082 -15.524  0.00  0.00    +0.174 C 
BRANCH  23  24
ATOM     24  O   UNL     1      38.594 -23.644 -15.373  0.00  0.00    -0.348 OA
BRANCH  24  25
ATOM     25  C   UNL     1      38.548 -24.882 -14.677  0.00  0.00    +0.180 C 
BRANCH  25  27
ATOM     26  F   UNL     1      40.752 -25.071 -13.929  0.00  0.00    -0.232 F 
ATOM     27  C   UNL     1      39.878 -25.582 -14.839  0.00  0.00    +0.225 C 
ENDBRANCH  25  27
ENDBRANCH  24  25
ENDBRANCH  23  24
ENDBRANCH  22  23
ENDBRANCH  21  22
ENDBRANCH  20  21
ENDBRANCH  19  20
ENDBRANCH  18  19
ENDBRANCH   2  18
TORSDOF 12
ENDMDL
MODEL 3
REMARK VINA RESULT:      -9.2      1.360      1.844
REMARK  Name = 11501341
REMARK  12 active torsions:
REMARK  status: ('A' for Active; 'I' for Inactive)
REMARK    1  A    between atoms: C_1  and  C_7
REMARK    2  A    between atoms: C_2  and  O_18
REMARK    3  A    between atoms: C_8  and  C_9
REMARK    4  A    between atoms: C_10  and  N_15
REMARK    5  A    between atoms: O_18  and  C_19
REMARK    6  A    between atoms: C_19  and  C_20
REMARK    7  A    between atoms: C_20  and  O_21
REMARK    8  A    between atoms: O_21  and  C_22
REMARK    9  A    between atoms: C_22  and  C_23
REMARK   10  A    between atoms: C_23  and  O_24
REMARK   11  A    between atoms: O_24  and  C_25
REMARK   12  A    between atoms: C_25  and  C_27
REMARK                            x       y       z     vdW  Elec       q    Type
REMARK                         _______ _______ _______ _____ _____    ______ ____
ROOT
ATOM      1  C   UNL     1      34.240 -19.881 -20.656  0.00  0.00    +0.000 C 
ATOM      2  C   UNL     1      34.619 -22.060 -18.989  0.00  0.00    +0.139 C 
ATOM      3  C   UNL     1      33.137 -20.523 -20.119  0.00  0.00    +0.003 C 
ATOM      4  C   UNL     1      35.529 -20.305 -20.377  0.00  0.00    +0.003 C 
ATOM      5  C   UNL     1      33.327 -21.621 -19.280  0.00  0.00    +0.037 C 
ATOM      6  C   UNL     1      35.720 -21.403 -19.538  0.00  0.00    +0.037 C 
ENDROOT
BRANCH   1   7
ATOM      7  C   UNL     1      34.041 -18.721 -21.543  0.00  0.00    +0.000 C 
ATOM      8  C   UNL     1      34.365 -17.441 -21.240  0.00  0.00    +0.000 C 
BRANCH   8   9
ATOM      9  C   UNL     1      34.185 -16.299 -22.121  0.00  0.00    +0.000 C 
ATOM     10  C   UNL     1      33.843 -14.107 -23.813  0.00  0.00    +0.045 C 
ATOM     11  C   UNL     1      33.771 -15.073 -21.600  0.00  0.00    +0.001 C 
ATOM     12  C   UNL     1      34.429 -16.428 -23.489  0.00  0.00    +0.001 C 
ATOM     13  C   UNL     1      33.599 -13.977 -22.445  0.00  0.00    +0.014 C 
ATOM     14  C   UNL     1      34.257 -15.332 -24.335  0.00  0.00    +0.014 C 
BRANCH  10  15
ATOM     15  N   UNL     1      33.669 -12.999 -24.668  0.00  0.00    -0.331 N 
ATOM     16  C   UNL     1      33.838 -11.647 -24.230  0.00  0.00    +0.109 C 
ATOM     17  H   UNL     1      33.420 -13.162 -25.605  0.00  0.00    +0.147 HD
ENDBRANCH  10  15
ENDBRANCH   8   9
ENDBRANCH   1   7
BRANCH   2  18
ATOM     18  O   UNL     1      34.804 -23.132 -18.170  0.00  0.00    -0.473 OA
BRANCH  18  19
ATOM     19  C   UNL     1      34.180 -23.085 -16.888  0.00  0.00    +0.237 C 
BRANCH  19  20
ATOM     20  C   UNL     1      35.222 -23.358 -15.820  0.00  0.00    +0.189 C 
BRANCH  20  21
ATOM     21  O   UNL     1      35.524 -24.748 -15.811  0.00  0.00    -0.347 OA
BRANCH  21  22
ATOM     22  C   UNL     1      36.698 -25.020 -15.057  0.00  0.00    +0.174 C 
BRANCH  22  23
ATOM     23  C   UNL     1      36.985 -26.508 -15.111  0.00  0.00    +0.174 C 
BRANCH  23  24
ATOM     24  O   UNL     1      38.346 -26.731 -14.763  0.00  0.00    -0.348 OA
BRANCH  24  25
ATOM     25  C   UNL     1      38.847 -25.696 -13.929  0.00  0.00    +0.180 C 
BRANCH  25  27
ATOM     26  F   UNL     1      40.919 -26.605 -14.506  0.00  0.00    -0.232 F 
ATOM     27  C   UNL     1      40.284 -25.417 -14.307  0.00  0.00    +0.225 C 
ENDBRANCH  25  27
ENDBRANCH  24  25
ENDBRANCH  23  24
ENDBRANCH  22  23
ENDBRANCH  21  22
ENDBRANCH  20  21
ENDBRANCH  19  20
ENDBRANCH  18  19
ENDBRANCH   2  18
TORSDOF 12
ENDMDL
MODEL 4
REMARK VINA RESULT:      -9.2      1.754      2.149
REMARK  Name = 11501341
REMARK  12 active torsions:
REMARK  status: ('A' for Active; 'I' for Inactive)
REMARK    1  A    between atoms: C_1  and  C_7
REMARK    2  A    between atoms: C_2  and  O_18
REMARK    3  A    between atoms: C_8  and  C_9
REMARK    4  A    between atoms: C_10  and  N_15
REMARK    5  A    between atoms: O_18  and  C_19
REMARK    6  A    between atoms: C_19  and  C_20
REMARK    7  A    between atoms: C_20  and  O_21
REMARK    8  A    between atoms: O_21  and  C_22
REMARK    9  A    between atoms: C_22  and  C_23
REMARK   10  A    between atoms: C_23  and  O_24
REMARK   11  A    between atoms: O_24  and  C_25
REMARK   12  A    between atoms: C_25  and  C_27
REMARK                            x       y       z     vdW  Elec       q    Type
REMARK                         _______ _______ _______ _____ _____    ______ ____
ROOT
ATOM      1  C   UNL     1      34.497 -20.692 -20.180  0.00  0.00    +0.000 C 
ATOM      2  C   UNL     1      35.076 -22.397 -18.075  0.00  0.00    +0.139 C 
ATOM      3  C   UNL     1      33.468 -21.392 -19.572  0.00  0.00    +0.003 C 
ATOM      4  C   UNL     1      35.810 -20.826 -19.757  0.00  0.00    +0.003 C 
ATOM      5  C   UNL     1      33.759 -22.251 -18.512  0.00  0.00    +0.037 C 
ATOM      6  C   UNL     1      36.101 -21.685 -18.697  0.00  0.00    +0.037 C 
ENDROOT
BRANCH   1   7
ATOM      7  C   UNL     1      34.191 -19.785 -21.300  0.00  0.00    +0.000 C 
ATOM      8  C   UNL     1      34.973 -18.758 -21.709  0.00  0.00    +0.000 C 
BRANCH   8   9
ATOM      9  C   UNL     1      34.681 -17.873 -22.826  0.00  0.00    +0.000 C 
ATOM     10  C   UNL     1      34.123 -16.177 -24.969  0.00  0.00    +0.045 C 
ATOM     11  C   UNL     1      34.407 -16.526 -22.595  0.00  0.00    +0.001 C 
ATOM     12  C   UNL     1      34.677 -18.373 -24.128  0.00  0.00    +0.001 C 
ATOM     13  C   UNL     1      34.127 -15.677 -23.666  0.00  0.00    +0.014 C 
ATOM     14  C   UNL     1      34.398 -17.525 -25.200  0.00  0.00    +0.014 C 
BRANCH  10  15
ATOM     15  N   UNL     1      33.840 -15.320 -26.052  0.00  0.00    -0.331 N 
ATOM     16  C   UNL     1      32.751 -14.391 -26.043  0.00  0.00    +0.109 C 
ATOM     17  H   UNL     1      34.415 -15.362 -26.849  0.00  0.00    +0.147 HD
ENDBRANCH  10  15
ENDBRANCH   8   9
ENDBRANCH   1   7
BRANCH   2  18
ATOM     18  O   UNL     1      35.360 -23.235 -17.040  0.00  0.00    -0.473 OA
BRANCH  18  19
ATOM     19  C   UNL     1      34.354 -23.400 -16.043  0.00  0.00    +0.237 C 
BRANCH  19  20
ATOM     20  C   UNL     1      34.840 -24.398 -15.009  0.00  0.00    +0.189 C 
BRANCH  20  21
ATOM     21  O   UNL     1      35.827 -25.233 -15.599  0.00  0.00    -0.347 OA
BRANCH  21  22
ATOM     22  C   UNL     1      36.902 -25.480 -14.702  0.00  0.00    +0.174 C 
BRANCH  22  23
ATOM     23  C   UNL     1      37.942 -24.388 -14.864  0.00  0.00    +0.174 C 
BRANCH  23  24
ATOM     24  O   UNL     1      37.939 -23.569 -13.702  0.00  0.00    -0.348 OA
BRANCH  24  25
ATOM     25  C   UNL     1      37.986 -24.348 -12.515  0.00  0.00    +0.180 C 
BRANCH  25  27
ATOM     26  F   UNL     1      36.163 -22.928 -12.178  0.00  0.00    -0.232 F 
ATOM     27  C   UNL     1      36.993 -23.786 -11.523  0.00  0.00    +0.225 C 
ENDBRANCH  25  27
ENDBRANCH  24  25
ENDBRANCH  23  24
ENDBRANCH  22  23
ENDBRANCH  21  22
ENDBRANCH  20  21
ENDBRANCH  19  20
ENDBRANCH  18  19
ENDBRANCH   2  18
TORSDOF 12
ENDMDL
MODEL 5
REMARK VINA RESULT:      -8.9      7.052     12.438
REMARK  Name = 11501341
REMARK  12 active torsions:
REMARK  status: ('A' for Active; 'I' for Inactive)
REMARK    1  A    between atoms: C_1  and  C_7
REMARK    2  A    between atoms: C_2  and  O_18
REMARK    3  A    between atoms: C_8  and  C_9
REMARK    4  A    between atoms: C_10  and  N_15
REMARK    5  A    between atoms: O_18  and  C_19
REMARK    6  A    between atoms: C_19  and  C_20
REMARK    7  A    between atoms: C_20  and  O_21
REMARK    8  A    between atoms: O_21  and  C_22
REMARK    9  A    between atoms: C_22  and  C_23
REMARK   10  A    between atoms: C_23  and  O_24
REMARK   11  A    between atoms: O_24  and  C_25
REMARK   12  A    between atoms: C_25  and  C_27
REMARK                            x       y       z     vdW  Elec       q    Type
REMARK                         _______ _______ _______ _____ _____    ______ ____
ROOT
ATOM      1  C   UNL     1      34.986 -18.225 -22.771  0.00  0.00    +0.000 C 
ATOM      2  C   UNL     1      34.358 -16.744 -25.026  0.00  0.00    +0.139 C 
ATOM      3  C   UNL     1      34.691 -18.883 -23.954  0.00  0.00    +0.003 C 
ATOM      4  C   UNL     1      34.973 -16.842 -22.692  0.00  0.00    +0.003 C 
ATOM      5  C   UNL     1      34.375 -18.138 -25.090  0.00  0.00    +0.037 C 
ATOM      6  C   UNL     1      34.657 -16.097 -23.828  0.00  0.00    +0.037 C 
ENDROOT
BRANCH   1   7
ATOM      7  C   UNL     1      35.320 -19.012 -21.571  0.00  0.00    +0.000 C 
ATOM      8  C   UNL     1      34.605 -20.062 -21.101  0.00  0.00    +0.000 C 
BRANCH   8   9
ATOM      9  C   UNL     1      34.944 -20.850 -19.927  0.00  0.00    +0.000 C 
ATOM     10  C   UNL     1      35.593 -22.363 -17.674  0.00  0.00    +0.045 C 
ATOM     11  C   UNL     1      36.235 -20.799 -19.401  0.00  0.00    +0.001 C 
ATOM     12  C   UNL     1      33.978 -21.657 -19.327  0.00  0.00    +0.001 C 
ATOM     13  C   UNL     1      36.560 -21.555 -18.274  0.00  0.00    +0.014 C 
ATOM     14  C   UNL     1      34.302 -22.414 -18.201  0.00  0.00    +0.014 C 
BRANCH  10  15
ATOM     15  N   UNL     1      35.921 -23.128 -16.536  0.00  0.00    -0.331 N 
ATOM     16  C   UNL     1      37.151 -22.968 -15.822  0.00  0.00    +0.109 C 
ATOM     17  H   UNL     1      35.277 -23.800 -16.220  0.00  0.00    +0.147 HD
ENDBRANCH  10  15
ENDBRANCH   8   9
ENDBRANCH   1   7
BRANCH   2  18
ATOM     18  O   UNL     1      34.049 -16.017 -26.134  0.00  0.00    -0.473 OA
BRANCH  18  19
ATOM     19  C   UNL     1      33.119 -14.947 -25.971  0.00  0.00    +0.237 C 
BRANCH  19  20
ATOM     20  C   UNL     1      33.254 -13.991 -27.141  0.00  0.00    +0.189 C 
BRANCH  20  21
ATOM     21  O   UNL     1      33.559 -12.693 -26.648  0.00  0.00    -0.347 OA
BRANCH  21  22
ATOM     22  C   UNL     1      33.374 -12.615 -25.241  0.00  0.00    +0.174 C 
BRANCH  22  23
ATOM     23  C   UNL     1      34.182 -11.451 -24.700  0.00  0.00    +0.174 C 
BRANCH  23  24
ATOM     24  O   UNL     1      33.500 -10.891 -23.584  0.00  0.00    -0.348 OA
BRANCH  24  25
ATOM     25  C   UNL     1      33.407  -9.477 -23.686  0.00  0.00    +0.180 C 
BRANCH  25  27
ATOM     26  F   UNL     1      35.097  -7.917 -23.281  0.00  0.00    -0.232 F 
ATOM     27  C   UNL     1      34.748  -8.931 -24.120  0.00  0.00    +0.225 C 
ENDBRANCH  25  27
ENDBRANCH  24  25
ENDBRANCH  23  24
ENDBRANCH  22  23
ENDBRANCH  21  22
ENDBRANCH  20  21
ENDBRANCH  19  20
ENDBRANCH  18  19
ENDBRANCH   2  18
TORSDOF 12
ENDMDL
MODEL 6
REMARK VINA RESULT:      -8.9      6.342     11.050
REMARK  Name = 11501341
REMARK  12 active torsions:
REMARK  status: ('A' for Active; 'I' for Inactive)
REMARK    1  A    between atoms: C_1  and  C_7
REMARK    2  A    between atoms: C_2  and  O_18
REMARK    3  A    between atoms: C_8  and  C_9
REMARK    4  A    between atoms: C_10  and  N_15
REMARK    5  A    between atoms: O_18  and  C_19
REMARK    6  A    between atoms: C_19  and  C_20
REMARK    7  A    between atoms: C_20  and  O_21
REMARK    8  A    between atoms: O_21  and  C_22
REMARK    9  A    between atoms: C_22  and  C_23
REMARK   10  A    between atoms: C_23  and  O_24
REMARK   11  A    between atoms: O_24  and  C_25
REMARK   12  A    between atoms: C_25  and  C_27
REMARK                            x       y       z     vdW  Elec       q    Type
REMARK                         _______ _______ _______ _____ _____    ______ ____
ROOT
ATOM      1  C   UNL     1      35.085 -18.395 -22.435  0.00  0.00    +0.000 C 
ATOM      2  C   UNL     1      34.671 -17.016 -24.801  0.00  0.00    +0.139 C 
ATOM      3  C   UNL     1      35.204 -17.016 -22.445  0.00  0.00    +0.003 C 
ATOM      4  C   UNL     1      34.763 -19.101 -23.583  0.00  0.00    +0.003 C 
ATOM      5  C   UNL     1      34.995 -16.321 -23.636  0.00  0.00    +0.037 C 
ATOM      6  C   UNL     1      34.554 -18.406 -24.775  0.00  0.00    +0.037 C 
ENDROOT
BRANCH   1   7
ATOM      7  C   UNL     1      35.306 -19.131 -21.177  0.00  0.00    +0.000 C 
ATOM      8  C   UNL     1      34.887 -20.394 -20.928  0.00  0.00    +0.000 C 
BRANCH   8   9
ATOM      9  C   UNL     1      35.120 -21.128 -19.694  0.00  0.00    +0.000 C 
ATOM     10  C   UNL     1      35.565 -22.534 -17.326  0.00  0.00    +0.045 C 
ATOM     11  C   UNL     1      36.369 -21.074 -19.075  0.00  0.00    +0.001 C 
ATOM     12  C   UNL     1      34.093 -21.884 -19.128  0.00  0.00    +0.001 C 
ATOM     13  C   UNL     1      36.592 -21.777 -17.891  0.00  0.00    +0.014 C 
ATOM     14  C   UNL     1      34.316 -22.588 -17.945  0.00  0.00    +0.014 C 
BRANCH  10  15
ATOM     15  N   UNL     1      35.791 -23.246 -16.129  0.00  0.00    -0.331 N 
ATOM     16  C   UNL     1      35.095 -22.958 -14.913  0.00  0.00    +0.109 C 
ATOM     17  H   UNL     1      36.456 -23.970 -16.131  0.00  0.00    +0.147 HD
ENDBRANCH  10  15
ENDBRANCH   8   9
ENDBRANCH   1   7
BRANCH   2  18
ATOM     18  O   UNL     1      34.467 -16.338 -25.963  0.00  0.00    -0.473 OA
BRANCH  18  19
ATOM     19  C   UNL     1      33.131 -15.931 -26.253  0.00  0.00    +0.237 C 
BRANCH  19  20
ATOM     20  C   UNL     1      33.091 -14.421 -26.390  0.00  0.00    +0.189 C 
BRANCH  20  21
ATOM     21  O   UNL     1      32.603 -13.858 -25.179  0.00  0.00    -0.347 OA
BRANCH  21  22
ATOM     22  C   UNL     1      33.561 -12.993 -24.583  0.00  0.00    +0.174 C 
BRANCH  22  23
ATOM     23  C   UNL     1      33.060 -12.568 -23.216  0.00  0.00    +0.174 C 
BRANCH  23  24
ATOM     24  O   UNL     1      33.481 -13.524 -22.250  0.00  0.00    -0.348 OA
BRANCH  24  25
ATOM     25  C   UNL     1      32.378 -14.242 -21.714  0.00  0.00    +0.180 C 
BRANCH  25  27
ATOM     26  F   UNL     1      32.330 -16.248 -20.519  0.00  0.00    -0.232 F 
ATOM     27  C   UNL     1      32.834 -14.984 -20.479  0.00  0.00    +0.225 C 
ENDBRANCH  25  27
ENDBRANCH  24  25
ENDBRANCH  23  24
ENDBRANCH  22  23
ENDBRANCH  21  22
ENDBRANCH  20  21
ENDBRANCH  19  20
ENDBRANCH  18  19
ENDBRANCH   2  18
TORSDOF 12
ENDMDL
MODEL 7
REMARK VINA RESULT:      -8.9      3.511      4.630
REMARK  Name = 11501341
REMARK  12 active torsions:
REMARK  status: ('A' for Active; 'I' for Inactive)
REMARK    1  A    between atoms: C_1  and  C_7
REMARK    2  A    between atoms: C_2  and  O_18
REMARK    3  A    between atoms: C_8  and  C_9
REMARK    4  A    between atoms: C_10  and  N_15
REMARK    5  A    between atoms: O_18  and  C_19
REMARK    6  A    between atoms: C_19  and  C_20
REMARK    7  A    between atoms: C_20  and  O_21
REMARK    8  A    between atoms: O_21  and  C_22
REMARK    9  A    between atoms: C_22  and  C_23
REMARK   10  A    between atoms: C_23  and  O_24
REMARK   11  A    between atoms: O_24  and  C_25
REMARK   12  A    between atoms: C_25  and  C_27
REMARK                            x       y       z     vdW  Elec       q    Type
REMARK                         _______ _______ _______ _____ _____    ______ ____
ROOT
ATOM      1  C   UNL     1      34.483 -20.681 -20.241  0.00  0.00    +0.000 C 
ATOM      2  C   UNL     1      35.033 -22.373 -18.118  0.00  0.00    +0.139 C 
ATOM      3  C   UNL     1      33.438 -21.326 -19.600  0.00  0.00    +0.003 C 
ATOM      4  C   UNL     1      35.797 -20.863 -19.842  0.00  0.00    +0.003 C 
ATOM      5  C   UNL     1      33.715 -22.178 -18.531  0.00  0.00    +0.037 C 
ATOM      6  C   UNL     1      36.074 -21.715 -18.773  0.00  0.00    +0.037 C 
ENDROOT
BRANCH   1   7
ATOM      7  C   UNL     1      34.192 -19.781 -21.370  0.00  0.00    +0.000 C 
ATOM      8  C   UNL     1      34.903 -18.673 -21.689  0.00  0.00    +0.000 C 
BRANCH   8   9
ATOM      9  C   UNL     1      34.628 -17.794 -22.814  0.00  0.00    +0.000 C 
ATOM     10  C   UNL     1      34.103 -16.108 -24.974  0.00  0.00    +0.045 C 
ATOM     11  C   UNL     1      34.325 -16.450 -22.593  0.00  0.00    +0.001 C 
ATOM     12  C   UNL     1      34.669 -18.294 -24.116  0.00  0.00    +0.001 C 
ATOM     13  C   UNL     1      34.062 -15.607 -23.672  0.00  0.00    +0.014 C 
ATOM     14  C   UNL     1      34.406 -17.451 -25.196  0.00  0.00    +0.014 C 
BRANCH  10  15
ATOM     15  N   UNL     1      33.836 -15.256 -26.066  0.00  0.00    -0.331 N 
ATOM     16  C   UNL     1      32.805 -14.264 -26.043  0.00  0.00    +0.109 C 
ATOM     17  H   UNL     1      34.382 -15.347 -26.879  0.00  0.00    +0.147 HD
ENDBRANCH  10  15
ENDBRANCH   8   9
ENDBRANCH   1   7
BRANCH   2  18
ATOM     18  O   UNL     1      35.302 -23.204 -17.074  0.00  0.00    -0.473 OA
BRANCH  18  19
ATOM     19  C   UNL     1      34.234 -23.479 -16.170  0.00  0.00    +0.237 C 
BRANCH  19  20
ATOM     20  C   UNL     1      34.808 -23.740 -14.790  0.00  0.00    +0.189 C 
BRANCH  20  21
ATOM     21  O   UNL     1      33.815 -24.363 -13.985  0.00  0.00    -0.347 OA
BRANCH  21  22
ATOM     22  C   UNL     1      32.514 -24.175 -14.524  0.00  0.00    +0.174 C 
BRANCH  22  23
ATOM     23  C   UNL     1      31.523 -24.997 -13.722  0.00  0.00    +0.174 C 
BRANCH  23  24
ATOM     24  O   UNL     1      30.216 -24.472 -13.922  0.00  0.00    -0.348 OA
BRANCH  24  25
ATOM     25  C   UNL     1      29.572 -25.087 -15.029  0.00  0.00    +0.180 C 
BRANCH  25  27
ATOM     26  F   UNL     1      28.193 -24.624 -16.856  0.00  0.00    -0.232 F 
ATOM     27  C   UNL     1      28.833 -24.027 -15.814  0.00  0.00    +0.225 C 
ENDBRANCH  25  27
ENDBRANCH  24  25
ENDBRANCH  23  24
ENDBRANCH  22  23
ENDBRANCH  21  22
ENDBRANCH  20  21
ENDBRANCH  19  20
ENDBRANCH  18  19
ENDBRANCH   2  18
TORSDOF 12
ENDMDL
MODEL 8
REMARK VINA RESULT:      -8.9      4.130      5.578
REMARK  Name = 11501341
REMARK  12 active torsions:
REMARK  status: ('A' for Active; 'I' for Inactive)
REMARK    1  A    between atoms: C_1  and  C_7
REMARK    2  A    between atoms: C_2  and  O_18
REMARK    3  A    between atoms: C_8  and  C_9
REMARK    4  A    between atoms: C_10  and  N_15
REMARK    5  A    between atoms: O_18  and  C_19
REMARK    6  A    between atoms: C_19  and  C_20
REMARK    7  A    between atoms: C_20  and  O_21
REMARK    8  A    between atoms: O_21  and  C_22
REMARK    9  A    between atoms: C_22  and  C_23
REMARK   10  A    between atoms: C_23  and  O_24
REMARK   11  A    between atoms: O_24  and  C_25
REMARK   12  A    between atoms: C_25  and  C_27
REMARK                            x       y       z     vdW  Elec       q    Type
REMARK                         _______ _______ _______ _____ _____    ______ ____
ROOT
ATOM      1  C   UNL     1      34.143 -19.382 -20.829  0.00  0.00    +0.000 C 
ATOM      2  C   UNL     1      34.417 -21.775 -19.462  0.00  0.00    +0.139 C 
ATOM      3  C   UNL     1      33.009 -20.049 -20.396  0.00  0.00    +0.003 C 
ATOM      4  C   UNL     1      35.412 -19.885 -20.593  0.00  0.00    +0.003 C 
ATOM      5  C   UNL     1      33.147 -21.254 -19.707  0.00  0.00    +0.037 C 
ATOM      6  C   UNL     1      35.550 -21.091 -19.904  0.00  0.00    +0.037 C 
ENDROOT
BRANCH   1   7
ATOM      7  C   UNL     1      33.999 -18.109 -21.557  0.00  0.00    +0.000 C 
ATOM      8  C   UNL     1      33.644 -16.927 -21.000  0.00  0.00    +0.000 C 
BRANCH   8   9
ATOM      9  C   UNL     1      33.519 -15.665 -21.713  0.00  0.00    +0.000 C 
ATOM     10  C   UNL     1      33.277 -13.247 -23.082  0.00  0.00    +0.045 C 
ATOM     11  C   UNL     1      34.362 -15.386 -22.788  0.00  0.00    +0.001 C 
ATOM     12  C   UNL     1      32.554 -14.736 -21.323  0.00  0.00    +0.001 C 
ATOM     13  C   UNL     1      34.242 -14.176 -23.473  0.00  0.00    +0.014 C 
ATOM     14  C   UNL     1      32.434 -13.527 -22.007  0.00  0.00    +0.014 C 
BRANCH  10  15
ATOM     15  N   UNL     1      33.156 -12.024 -23.774  0.00  0.00    -0.331 N 
ATOM     16  C   UNL     1      34.121 -11.574 -24.730  0.00  0.00    +0.109 C 
ATOM     17  H   UNL     1      32.375 -11.455 -23.591  0.00  0.00    +0.147 HD
ENDBRANCH  10  15
ENDBRANCH   8   9
ENDBRANCH   1   7
BRANCH   2  18
ATOM     18  O   UNL     1      34.552 -22.951 -18.790  0.00  0.00    -0.473 OA
BRANCH  18  19
ATOM     19  C   UNL     1      33.531 -23.283 -17.850  0.00  0.00    +0.237 C 
BRANCH  19  20
ATOM     20  C   UNL     1      34.127 -23.300 -16.456  0.00  0.00    +0.189 C 
BRANCH  20  21
ATOM     21  O   UNL     1      33.075 -23.245 -15.501  0.00  0.00    -0.347 OA
BRANCH  21  22
ATOM     22  C   UNL     1      31.809 -23.466 -16.107  0.00  0.00    +0.174 C 
BRANCH  22  23
ATOM     23  C   UNL     1      30.725 -22.898 -15.211  0.00  0.00    +0.174 C 
BRANCH  23  24
ATOM     24  O   UNL     1      29.818 -23.937 -14.864  0.00  0.00    -0.348 OA
BRANCH  24  25
ATOM     25  C   UNL     1      28.724 -23.997 -15.768  0.00  0.00    +0.180 C 
BRANCH  25  27
ATOM     26  F   UNL     1      28.015 -22.269 -17.170  0.00  0.00    -0.232 F 
ATOM     27  C   UNL     1      28.091 -22.627 -15.859  0.00  0.00    +0.225 C 
ENDBRANCH  25  27
ENDBRANCH  24  25
ENDBRANCH  23  24
ENDBRANCH  22  23
ENDBRANCH  21  22
ENDBRANCH  20  21
ENDBRANCH  19  20
ENDBRANCH  18  19
ENDBRANCH   2  18
TORSDOF 12
ENDMDL
MODEL 9
REMARK VINA RESULT:      -8.9      5.760     11.264
REMARK  Name = 11501341
REMARK  12 active torsions:
REMARK  status: ('A' for Active; 'I' for Inactive)
REMARK    1  A    between atoms: C_1  and  C_7
REMARK    2  A    between atoms: C_2  and  O_18
REMARK    3  A    between atoms: C_8  and  C_9
REMARK    4  A    between atoms: C_10  and  N_15
REMARK    5  A    between atoms: O_18  and  C_19
REMARK    6  A    between atoms: C_19  and  C_20
REMARK    7  A    between atoms: C_20  and  O_21
REMARK    8  A    between atoms: O_21  and  C_22
REMARK    9  A    between atoms: C_22  and  C_23
REMARK   10  A    between atoms: C_23  and  O_24
REMARK   11  A    between atoms: O_24  and  C_25
REMARK   12  A    between atoms: C_25  and  C_27
REMARK                            x       y       z     vdW  Elec       q    Type
REMARK                         _______ _______ _______ _____ _____    ______ ____
ROOT
ATOM      1  C   UNL     1      34.747 -21.168 -19.593  0.00  0.00    +0.000 C 
ATOM      2  C   UNL     1      34.449 -19.327 -21.640  0.00  0.00    +0.139 C 
ATOM      3  C   UNL     1      35.874 -20.658 -20.214  0.00  0.00    +0.003 C 
ATOM      4  C   UNL     1      33.473 -20.778 -19.973  0.00  0.00    +0.003 C 
ATOM      5  C   UNL     1      35.725 -19.730 -21.245  0.00  0.00    +0.037 C 
ATOM      6  C   UNL     1      33.324 -19.850 -21.004  0.00  0.00    +0.037 C 
ENDROOT
BRANCH   1   7
ATOM      7  C   UNL     1      34.903 -22.148 -18.504  0.00  0.00    +0.000 C 
ATOM      8  C   UNL     1      35.729 -22.007 -17.439  0.00  0.00    +0.000 C 
BRANCH   8   9
ATOM      9  C   UNL     1      35.871 -22.965 -16.354  0.00  0.00    +0.000 C 
ATOM     10  C   UNL     1      36.141 -24.801 -14.271  0.00  0.00    +0.045 C 
ATOM     11  C   UNL     1      37.128 -23.214 -15.803  0.00  0.00    +0.001 C 
ATOM     12  C   UNL     1      34.749 -23.634 -15.863  0.00  0.00    +0.001 C 
ATOM     13  C   UNL     1      37.264 -24.132 -14.762  0.00  0.00    +0.014 C 
ATOM     14  C   UNL     1      34.885 -24.552 -14.822  0.00  0.00    +0.014 C 
BRANCH  10  15
ATOM     15  N   UNL     1      36.279 -25.730 -13.219  0.00  0.00    -0.331 N 
ATOM     16  C   UNL     1      37.501 -25.910 -12.497  0.00  0.00    +0.109 C 
ATOM     17  H   UNL     1      35.501 -26.279 -12.971  0.00  0.00    +0.147 HD
ENDBRANCH  10  15
ENDBRANCH   8   9
ENDBRANCH   1   7
BRANCH   2  18
ATOM     18  O   UNL     1      34.304 -18.422 -22.646  0.00  0.00    -0.473 OA
BRANCH  18  19
ATOM     19  C   UNL     1      35.157 -18.568 -23.780  0.00  0.00    +0.237 C 
BRANCH  19  20
ATOM     20  C   UNL     1      34.379 -18.220 -25.034  0.00  0.00    +0.189 C 
BRANCH  20  21
ATOM     21  O   UNL     1      34.790 -16.939 -25.495  0.00  0.00    -0.347 OA
BRANCH  21  22
ATOM     22  C   UNL     1      33.750 -15.979 -25.361  0.00  0.00    +0.174 C 
BRANCH  22  23
ATOM     23  C   UNL     1      34.110 -15.012 -24.250  0.00  0.00    +0.174 C 
BRANCH  23  24
ATOM     24  O   UNL     1      33.195 -15.180 -23.174  0.00  0.00    -0.348 OA
BRANCH  24  25
ATOM     25  C   UNL     1      33.810 -14.916 -21.921  0.00  0.00    +0.180 C 
BRANCH  25  27
ATOM     26  F   UNL     1      32.643 -15.111 -19.908  0.00  0.00    -0.232 F 
ATOM     27  C   UNL     1      32.785 -14.303 -20.994  0.00  0.00    +0.225 C 
ENDBRANCH  25  27
ENDBRANCH  24  25
ENDBRANCH  23  24
ENDBRANCH  22  23
ENDBRANCH  21  22
ENDBRANCH  20  21
ENDBRANCH  19  20
ENDBRANCH  18  19
ENDBRANCH   2  18
TORSDOF 12
ENDMDL
