MODEL 1
REMARK VINA RESULT:      -8.9      0.000      0.000
REMARK  Name = 4436
REMARK  2 active torsions:
REMARK  status: ('A' for Active; 'I' for Inactive)
REMARK    1  A    between atoms: C_1  and  C_11
REMARK    2  A    between atoms: C_11  and  C_14
REMARK                            x       y       z     vdW  Elec       q    Type
REMARK                         _______ _______ _______ _____ _____    ______ ____
ROOT
ATOM      1  C   UNL     1      35.067 -17.035 -21.793  0.00  0.00    -0.015 C 
ATOM      2  C   UNL     1      34.620 -16.589 -23.047  0.00  0.00    -0.004 C 
ATOM      3  C   UNL     1      33.920 -15.362 -23.137  0.00  0.00    -0.000 C 
ATOM      4  C   UNL     1      34.828 -16.281 -20.643  0.00  0.00    -0.004 C 
ATOM      5  C   UNL     1      34.851 -17.335 -24.215  0.00  0.00    -0.000 C 
ATOM      6  C   UNL     1      33.690 -14.616 -21.969  0.00  0.00    -0.000 C 
ATOM      7  C   UNL     1      34.140 -15.075 -20.731  0.00  0.00    -0.000 C 
ATOM      8  C   UNL     1      33.474 -14.916 -24.391  0.00  0.00    -0.000 C 
ATOM      9  C   UNL     1      34.400 -16.876 -25.453  0.00  0.00    -0.000 C 
ATOM     10  C   UNL     1      33.713 -15.669 -25.541  0.00  0.00    -0.000 C 
ENDROOT
BRANCH   1  11
ATOM     11  C   UNL     1      35.812 -18.322 -21.627  0.00  0.00    +0.088 C 
BRANCH  11  14
ATOM     12  N   UNL     1      33.626 -19.423 -21.179  0.00  0.00    -0.299 N 
ATOM     13  N   UNL     1      35.482 -20.259 -20.161  0.00  0.00    -0.232 NA
ATOM     14  C   UNL     1      34.970 -19.359 -20.959  0.00  0.00    +0.113 C 
ATOM     15  C   UNL     1      33.065 -20.525 -20.458  0.00  0.00    +0.084 C 
ATOM     16  C   UNL     1      34.302 -21.073 -19.732  0.00  0.00    +0.116 C 
ATOM     17  H   UNL     1      33.118 -18.804 -21.749  0.00  0.00    +0.153 HD
ENDBRANCH  11  14
ENDBRANCH   1  11
TORSDOF 2
ENDMDL
MODEL 2
REMARK VINA RESULT:      -8.8      0.756      2.790
REMARK  Name = 4436
REMARK  2 active torsions:
REMARK  status: ('A' for Active; 'I' for Inactive)
REMARK    1  A    between atoms: C_1  and  C_11
REMARK    2  A    between atoms: C_11  and  C_14
REMARK                            x       y       z     vdW  Elec       q    Type
REMARK                         _______ _______ _______ _____ _____    ______ ____
ROOT
ATOM      1  C   UNL     1      35.284 -18.122 -22.462  0.00  0.00    -0.015 C 
ATOM      2  C   UNL     1      34.818 -16.802 -22.349  0.00  0.00    -0.004 C 
ATOM      3  C   UNL     1      34.312 -16.144 -23.495  0.00  0.00    -0.000 C 
ATOM      4  C   UNL     1      35.252 -18.784 -23.689  0.00  0.00    -0.004 C 
ATOM      5  C   UNL     1      34.843 -16.119 -21.121  0.00  0.00    -0.000 C 
ATOM      6  C   UNL     1      34.287 -16.828 -24.723  0.00  0.00    -0.000 C 
ATOM      7  C   UNL     1      34.755 -18.138 -24.817  0.00  0.00    -0.000 C 
ATOM      8  C   UNL     1      33.846 -14.825 -23.382  0.00  0.00    -0.000 C 
ATOM      9  C   UNL     1      34.375 -14.808 -21.027  0.00  0.00    -0.000 C 
ATOM     10  C   UNL     1      33.878 -14.162 -22.154  0.00  0.00    -0.000 C 
ENDROOT
BRANCH   1  11
ATOM     11  C   UNL     1      35.831 -18.875 -21.290  0.00  0.00    +0.088 C 
BRANCH  11  14
ATOM     12  N   UNL     1      35.178 -20.918 -20.030  0.00  0.00    -0.299 N 
ATOM     13  N   UNL     1      33.527 -19.552 -20.796  0.00  0.00    -0.232 NA
ATOM     14  C   UNL     1      34.810 -19.794 -20.707  0.00  0.00    +0.113 C 
ATOM     15  C   UNL     1      34.017 -21.598 -19.540  0.00  0.00    +0.084 C 
ATOM     16  C   UNL     1      32.893 -20.706 -20.087  0.00  0.00    +0.116 C 
ATOM     17  H   UNL     1      36.105 -21.218 -19.898  0.00  0.00    +0.153 HD
ENDBRANCH  11  14
ENDBRANCH   1  11
TORSDOF 2
ENDMDL
MODEL 3
REMARK VINA RESULT:      -8.5      1.951      6.005
REMARK  Name = 4436
REMARK  2 active torsions:
REMARK  status: ('A' for Active; 'I' for Inactive)
REMARK    1  A    between atoms: C_1  and  C_11
REMARK    2  A    between atoms: C_11  and  C_14
REMARK                            x       y       z     vdW  Elec       q    Type
REMARK                         _______ _______ _______ _____ _____    ______ ____
ROOT
ATOM      1  C   UNL     1      34.989 -19.504 -21.089  0.00  0.00    -0.015 C 
ATOM      2  C   UNL     1      35.233 -20.447 -20.079  0.00  0.00    -0.004 C 
ATOM      3  C   UNL     1      34.150 -21.181 -19.538  0.00  0.00    -0.000 C 
ATOM      4  C   UNL     1      33.694 -19.287 -21.561  0.00  0.00    -0.004 C 
ATOM      5  C   UNL     1      36.531 -20.678 -19.591  0.00  0.00    -0.000 C 
ATOM      6  C   UNL     1      32.854 -20.950 -20.027  0.00  0.00    -0.000 C 
ATOM      7  C   UNL     1      32.629 -20.008 -21.030  0.00  0.00    -0.000 C 
ATOM      8  C   UNL     1      34.396 -22.125 -18.529  0.00  0.00    -0.000 C 
ATOM      9  C   UNL     1      36.755 -21.620 -18.587  0.00  0.00    -0.000 C 
ATOM     10  C   UNL     1      35.690 -22.342 -18.056  0.00  0.00    -0.000 C 
ENDROOT
BRANCH   1  11
ATOM     11  C   UNL     1      36.087 -18.694 -21.704  0.00  0.00    +0.088 C 
BRANCH  11  14
ATOM     12  N   UNL     1      35.457 -17.885 -23.970  0.00  0.00    -0.299 N 
ATOM     13  N   UNL     1      35.119 -16.497 -22.198  0.00  0.00    -0.232 NA
ATOM     14  C   UNL     1      35.548 -17.655 -22.630  0.00  0.00    +0.113 C 
ATOM     15  C   UNL     1      34.872 -16.754 -24.623  0.00  0.00    +0.084 C 
ATOM     16  C   UNL     1      34.676 -15.792 -23.441  0.00  0.00    +0.116 C 
ATOM     17  H   UNL     1      35.751 -18.708 -24.422  0.00  0.00    +0.153 HD
ENDBRANCH  11  14
ENDBRANCH   1  11
TORSDOF 2
ENDMDL
MODEL 4
REMARK VINA RESULT:      -8.5      2.049      5.560
REMARK  Name = 4436
REMARK  2 active torsions:
REMARK  status: ('A' for Active; 'I' for Inactive)
REMARK    1  A    between atoms: C_1  and  C_11
REMARK    2  A    between atoms: C_11  and  C_14
REMARK                            x       y       z     vdW  Elec       q    Type
REMARK                         _______ _______ _______ _____ _____    ______ ____
ROOT
ATOM      1  C   UNL     1      35.269 -18.797 -21.805  0.00  0.00    -0.015 C 
ATOM      2  C   UNL     1      34.673 -19.760 -20.976  0.00  0.00    -0.004 C 
ATOM      3  C   UNL     1      35.490 -20.554 -20.136  0.00  0.00    -0.000 C 
ATOM      4  C   UNL     1      36.653 -18.618 -21.806  0.00  0.00    -0.004 C 
ATOM      5  C   UNL     1      33.281 -19.954 -20.962  0.00  0.00    -0.000 C 
ATOM      6  C   UNL     1      36.881 -20.359 -20.150  0.00  0.00    -0.000 C 
ATOM      7  C   UNL     1      37.457 -19.398 -20.981  0.00  0.00    -0.000 C 
ATOM      8  C   UNL     1      34.894 -21.516 -19.307  0.00  0.00    -0.000 C 
ATOM      9  C   UNL     1      32.706 -20.916 -20.131  0.00  0.00    -0.000 C 
ATOM     10  C   UNL     1      33.510 -21.696 -19.305  0.00  0.00    -0.000 C 
ENDROOT
BRANCH   1  11
ATOM     11  C   UNL     1      34.464 -17.924 -22.716  0.00  0.00    +0.088 C 
BRANCH  11  14
ATOM     12  N   UNL     1      34.489 -15.465 -23.090  0.00  0.00    -0.299 N 
ATOM     13  N   UNL     1      34.285 -16.228 -20.956  0.00  0.00    -0.232 NA
ATOM     14  C   UNL     1      34.418 -16.516 -22.225  0.00  0.00    +0.113 C 
ATOM     15  C   UNL     1      34.382 -14.231 -22.373  0.00  0.00    +0.084 C 
ATOM     16  C   UNL     1      34.286 -14.732 -20.924  0.00  0.00    +0.116 C 
ATOM     17  H   UNL     1      34.597 -15.544 -24.065  0.00  0.00    +0.153 HD
ENDBRANCH  11  14
ENDBRANCH   1  11
TORSDOF 2
ENDMDL
MODEL 5
REMARK VINA RESULT:      -8.4      5.967      8.484
REMARK  Name = 4436
REMARK  2 active torsions:
REMARK  status: ('A' for Active; 'I' for Inactive)
REMARK    1  A    between atoms: C_1  and  C_11
REMARK    2  A    between atoms: C_11  and  C_14
REMARK                            x       y       z     vdW  Elec       q    Type
REMARK                         _______ _______ _______ _____ _____    ______ ____
ROOT
ATOM      1  C   UNL     1      35.946 -22.753 -16.265  0.00  0.00    -0.015 C 
ATOM      2  C   UNL     1      35.665 -22.250 -17.546  0.00  0.00    -0.004 C 
ATOM      3  C   UNL     1      34.370 -22.424 -18.090  0.00  0.00    -0.000 C 
ATOM      4  C   UNL     1      34.963 -23.418 -15.531  0.00  0.00    -0.004 C 
ATOM      5  C   UNL     1      36.642 -21.578 -18.299  0.00  0.00    -0.000 C 
ATOM      6  C   UNL     1      33.393 -23.095 -17.336  0.00  0.00    -0.000 C 
ATOM      7  C   UNL     1      33.690 -23.589 -16.066  0.00  0.00    -0.000 C 
ATOM      8  C   UNL     1      34.089 -21.920 -19.370  0.00  0.00    -0.000 C 
ATOM      9  C   UNL     1      36.345 -21.084 -19.570  0.00  0.00    -0.000 C 
ATOM     10  C   UNL     1      35.071 -21.255 -20.104  0.00  0.00    -0.000 C 
ENDROOT
BRANCH   1  11
ATOM     11  C   UNL     1      37.293 -22.604 -15.631  0.00  0.00    +0.088 C 
BRANCH  11  14
ATOM     12  N   UNL     1      37.869 -25.009 -15.364  0.00  0.00    -0.299 N 
ATOM     13  N   UNL     1      37.760 -23.715 -13.496  0.00  0.00    -0.232 NA
ATOM     14  C   UNL     1      37.639 -23.792 -14.796  0.00  0.00    +0.113 C 
ATOM     15  C   UNL     1      38.219 -25.963 -14.356  0.00  0.00    +0.084 C 
ATOM     16  C   UNL     1      38.109 -25.110 -13.083  0.00  0.00    +0.116 C 
ATOM     17  H   UNL     1      37.803 -25.204 -16.326  0.00  0.00    +0.153 HD
ENDBRANCH  11  14
ENDBRANCH   1  11
TORSDOF 2
ENDMDL
MODEL 6
REMARK VINA RESULT:      -8.4      8.317     10.293
REMARK  Name = 4436
REMARK  2 active torsions:
REMARK  status: ('A' for Active; 'I' for Inactive)
REMARK    1  A    between atoms: C_1  and  C_11
REMARK    2  A    between atoms: C_11  and  C_14
REMARK                            x       y       z     vdW  Elec       q    Type
REMARK                         _______ _______ _______ _____ _____    ______ ____
ROOT
ATOM      1  C   UNL     1      32.343  -6.822 -21.599  0.00  0.00    -0.015 C 
ATOM      2  C   UNL     1      32.908  -6.645 -22.872  0.00  0.00    -0.004 C 
ATOM      3  C   UNL     1      32.261  -5.801 -23.806  0.00  0.00    -0.000 C 
ATOM      4  C   UNL     1      31.156  -6.176 -21.251  0.00  0.00    -0.004 C 
ATOM      5  C   UNL     1      34.102  -7.287 -23.239  0.00  0.00    -0.000 C 
ATOM      6  C   UNL     1      31.068  -5.158 -23.438  0.00  0.00    -0.000 C 
ATOM      7  C   UNL     1      30.519  -5.347 -22.170  0.00  0.00    -0.000 C 
ATOM      8  C   UNL     1      32.827  -5.623 -25.078  0.00  0.00    -0.000 C 
ATOM      9  C   UNL     1      34.650  -7.099 -24.508  0.00  0.00    -0.000 C 
ATOM     10  C   UNL     1      34.014  -6.268 -25.426  0.00  0.00    -0.000 C 
ENDROOT
BRANCH   1  11
ATOM     11  C   UNL     1      32.975  -7.700 -20.564  0.00  0.00    +0.088 C 
BRANCH  11  14
ATOM     12  N   UNL     1      31.874  -9.445 -19.174  0.00  0.00    -0.299 N 
ATOM     13  N   UNL     1      31.861  -9.702 -21.435  0.00  0.00    -0.232 NA
ATOM     14  C   UNL     1      32.228  -8.983 -20.406  0.00  0.00    +0.113 C 
ATOM     15  C   UNL     1      31.136 -10.664 -19.301  0.00  0.00    +0.084 C 
ATOM     16  C   UNL     1      31.155 -10.871 -20.823  0.00  0.00    +0.116 C 
ATOM     17  H   UNL     1      32.095  -9.005 -18.322  0.00  0.00    +0.153 HD
ENDBRANCH  11  14
ENDBRANCH   1  11
TORSDOF 2
ENDMDL
MODEL 7
REMARK VINA RESULT:      -8.3      3.165      5.484
REMARK  Name = 4436
REMARK  2 active torsions:
REMARK  status: ('A' for Active; 'I' for Inactive)
REMARK    1  A    between atoms: C_1  and  C_11
REMARK    2  A    between atoms: C_11  and  C_14
REMARK                            x       y       z     vdW  Elec       q    Type
REMARK                         _______ _______ _______ _____ _____    ______ ____
ROOT
ATOM      1  C   UNL     1      34.125 -14.961 -23.049  0.00  0.00    -0.015 C 
ATOM      2  C   UNL     1      34.377 -16.295 -23.405  0.00  0.00    -0.004 C 
ATOM      3  C   UNL     1      34.762 -17.219 -22.404  0.00  0.00    -0.000 C 
ATOM      4  C   UNL     1      34.251 -14.542 -21.724  0.00  0.00    -0.004 C 
ATOM      5  C   UNL     1      34.254 -16.735 -24.734  0.00  0.00    -0.000 C 
ATOM      6  C   UNL     1      34.884 -16.780 -21.075  0.00  0.00    -0.000 C 
ATOM      7  C   UNL     1      34.631 -15.450 -20.740  0.00  0.00    -0.000 C 
ATOM      8  C   UNL     1      35.013 -18.554 -22.760  0.00  0.00    -0.000 C 
ATOM      9  C   UNL     1      34.508 -18.065 -25.069  0.00  0.00    -0.000 C 
ATOM     10  C   UNL     1      34.887 -18.973 -24.085  0.00  0.00    -0.000 C 
ENDROOT
BRANCH   1  11
ATOM     11  C   UNL     1      33.713 -13.934 -24.057  0.00  0.00    +0.088 C 
BRANCH  11  14
ATOM     12  N   UNL     1      31.915 -12.978 -22.628  0.00  0.00    -0.299 N 
ATOM     13  N   UNL     1      33.436 -11.553 -23.544  0.00  0.00    -0.232 NA
ATOM     14  C   UNL     1      33.014 -12.784 -23.410  0.00  0.00    +0.113 C 
ATOM     15  C   UNL     1      31.464 -11.726 -22.099  0.00  0.00    +0.084 C 
ATOM     16  C   UNL     1      32.459 -10.750 -22.743  0.00  0.00    +0.116 C 
ATOM     17  H   UNL     1      31.494 -13.849 -22.453  0.00  0.00    +0.153 HD
ENDBRANCH  11  14
ENDBRANCH   1  11
TORSDOF 2
ENDMDL
MODEL 8
REMARK VINA RESULT:      -8.3      2.064      5.762
REMARK  Name = 4436
REMARK  2 active torsions:
REMARK  status: ('A' for Active; 'I' for Inactive)
REMARK    1  A    between atoms: C_1  and  C_11
REMARK    2  A    between atoms: C_11  and  C_14
REMARK                            x       y       z     vdW  Elec       q    Type
REMARK                         _______ _______ _______ _____ _____    ______ ____
ROOT
ATOM      1  C   UNL     1      35.095 -18.861 -21.041  0.00  0.00    -0.015 C 
ATOM      2  C   UNL     1      34.547 -19.975 -20.387  0.00  0.00    -0.004 C 
ATOM      3  C   UNL     1      35.410 -20.972 -19.873  0.00  0.00    -0.000 C 
ATOM      4  C   UNL     1      36.477 -18.731 -21.187  0.00  0.00    -0.004 C 
ATOM      5  C   UNL     1      33.158 -20.123 -20.230  0.00  0.00    -0.000 C 
ATOM      6  C   UNL     1      36.798 -20.824 -20.028  0.00  0.00    -0.000 C 
ATOM      7  C   UNL     1      37.326 -19.710 -20.683  0.00  0.00    -0.000 C 
ATOM      8  C   UNL     1      34.862 -22.086 -19.217  0.00  0.00    -0.000 C 
ATOM      9  C   UNL     1      32.631 -21.237 -19.576  0.00  0.00    -0.000 C 
ATOM     10  C   UNL     1      33.480 -22.216 -19.071  0.00  0.00    -0.000 C 
ENDROOT
BRANCH   1  11
ATOM     11  C   UNL     1      34.240 -17.771 -21.607  0.00  0.00    +0.088 C 
BRANCH  11  14
ATOM     12  N   UNL     1      34.361 -18.716 -23.905  0.00  0.00    -0.299 N 
ATOM     13  N   UNL     1      34.656 -16.474 -23.645  0.00  0.00    -0.232 NA
ATOM     14  C   UNL     1      34.434 -17.633 -23.080  0.00  0.00    +0.113 C 
ATOM     15  C   UNL     1      34.542 -18.309 -25.265  0.00  0.00    +0.084 C 
ATOM     16  C   UNL     1      34.783 -16.801 -25.099  0.00  0.00    +0.116 C 
ATOM     17  H   UNL     1      34.208 -19.641 -23.608  0.00  0.00    +0.153 HD
ENDBRANCH  11  14
ENDBRANCH   1  11
TORSDOF 2
ENDMDL
MODEL 9
REMARK VINA RESULT:      -8.2      8.543     10.624
REMARK  Name = 4436
REMARK  2 active torsions:
REMARK  status: ('A' for Active; 'I' for Inactive)
REMARK    1  A    between atoms: C_1  and  C_11
REMARK    2  A    between atoms: C_11  and  C_14
REMARK                            x       y       z     vdW  Elec       q    Type
REMARK                         _______ _______ _______ _____ _____    ______ ____
ROOT
ATOM      1  C   UNL     1      32.899  -6.967 -22.451  0.00  0.00    -0.015 C 
ATOM      2  C   UNL     1      32.513  -6.144 -23.521  0.00  0.00    -0.004 C 
ATOM      3  C   UNL     1      33.326  -6.084 -24.678  0.00  0.00    -0.000 C 
ATOM      4  C   UNL     1      34.071  -7.721 -22.521  0.00  0.00    -0.004 C 
ATOM      5  C   UNL     1      31.336  -5.378 -23.469  0.00  0.00    -0.000 C 
ATOM      6  C   UNL     1      34.502  -6.850 -24.731  0.00  0.00    -0.000 C 
ATOM      7  C   UNL     1      34.871  -7.661 -23.658  0.00  0.00    -0.000 C 
ATOM      8  C   UNL     1      32.939  -5.262 -25.748  0.00  0.00    -0.000 C 
ATOM      9  C   UNL     1      30.967  -4.566 -24.542  0.00  0.00    -0.000 C 
ATOM     10  C   UNL     1      31.767  -4.508 -25.680  0.00  0.00    -0.000 C 
ENDROOT
BRANCH   1  11
ATOM     11  C   UNL     1      32.085  -7.077 -21.200  0.00  0.00    +0.088 C 
BRANCH  11  14
ATOM     12  N   UNL     1      32.216  -8.872 -19.482  0.00  0.00    -0.299 N 
ATOM     13  N   UNL     1      31.531  -9.435 -21.579  0.00  0.00    -0.232 NA
ATOM     14  C   UNL     1      31.944  -8.498 -20.764  0.00  0.00    +0.113 C 
ATOM     15  C   UNL     1      31.962 -10.271 -19.316  0.00  0.00    +0.084 C 
ATOM     16  C   UNL     1      31.538 -10.672 -20.736  0.00  0.00    +0.116 C 
ATOM     17  H   UNL     1      32.539  -8.269 -18.776  0.00  0.00    +0.153 HD
ENDBRANCH  11  14
ENDBRANCH   1  11
TORSDOF 2
ENDMDL
