MODEL 1
REMARK VINA RESULT:      -7.3      0.000      0.000
REMARK  Name = 71835
REMARK  6 active torsions:
REMARK  status: ('A' for Active; 'I' for Inactive)
REMARK    1  A    between atoms: C_1  and  N_2
REMARK    2  A    between atoms: C_1  and  C_12
REMARK    3  A    between atoms: N_2  and  N_4
REMARK    4  A    between atoms: N_4  and  C_7
REMARK    5  A    between atoms: C_12  and  O_13
REMARK    6  A    between atoms: O_13  and  C_16
REMARK                            x       y       z     vdW  Elec       q    Type
REMARK                         _______ _______ _______ _____ _____    ______ ____
ROOT
ATOM      1  C   UNL     1      37.365 -22.498 -16.492  0.00  0.00    +0.139 C 
ENDROOT
BRANCH   1   2
ATOM      2  N   UNL     1      36.346 -23.410 -16.003  0.00  0.00    -0.195 NA
ATOM      3  H   UNL     1      35.384 -23.232 -16.115  0.00  0.00    +0.150 HD
BRANCH   2   4
ATOM      4  N   UNL     1      36.805 -24.518 -15.382  0.00  0.00    -0.165 NA
BRANCH   4   7
ATOM      5  N   UNL     1      36.042 -26.712 -15.191  0.00  0.00    -0.369 N 
ATOM      6  N   UNL     1      34.678 -25.066 -14.393  0.00  0.00    -0.369 N 
ATOM      7  C   UNL     1      35.877 -25.360 -15.003  0.00  0.00    +0.205 C 
ATOM      8  H   UNL     1      36.861 -27.053 -15.618  0.00  0.00    +0.159 HD
ATOM      9  H   UNL     1      35.342 -27.339 -14.897  0.00  0.00    +0.159 HD
ATOM     10  H   UNL     1      34.438 -24.130 -14.202  0.00  0.00    +0.159 HD
ATOM     11  H   UNL     1      34.059 -25.791 -14.148  0.00  0.00    +0.159 HD
ENDBRANCH   4   7
ENDBRANCH   2   4
ENDBRANCH   1   2
BRANCH   1  12
ATOM     12  C   UNL     1      36.754 -21.453 -17.413  0.00  0.00    +0.224 C 
BRANCH  12  13
ATOM     13  O   UNL     1      36.280 -22.100 -18.587  0.00  0.00    -0.472 OA
BRANCH  13  16
ATOM     14 CL   UNL     1      33.571 -23.178 -17.949  0.00  0.00    -0.079 Cl
ATOM     15 CL   UNL     1      37.150 -19.920 -20.431  0.00  0.00    -0.079 Cl
ATOM     16  C   UNL     1      35.255 -21.486 -19.259  0.00  0.00    +0.159 C 
ATOM     17  C   UNL     1      33.943 -21.900 -19.047  0.00  0.00    +0.092 C 
ATOM     18  C   UNL     1      35.532 -20.452 -20.150  0.00  0.00    +0.092 C 
ATOM     19  C   UNL     1      32.899 -21.275 -19.732  0.00  0.00    +0.015 C 
ATOM     20  C   UNL     1      34.489 -19.828 -20.834  0.00  0.00    +0.015 C 
ATOM     21  C   UNL     1      33.173 -20.240 -20.625  0.00  0.00    +0.002 C 
ENDBRANCH  13  16
ENDBRANCH  12  13
ENDBRANCH   1  12
TORSDOF 6
ENDMDL
MODEL 2
REMARK VINA RESULT:      -7.3      1.542      2.864
REMARK  Name = 71835
REMARK  6 active torsions:
REMARK  status: ('A' for Active; 'I' for Inactive)
REMARK    1  A    between atoms: C_1  and  N_2
REMARK    2  A    between atoms: C_1  and  C_12
REMARK    3  A    between atoms: N_2  and  N_4
REMARK    4  A    between atoms: N_4  and  C_7
REMARK    5  A    between atoms: C_12  and  O_13
REMARK    6  A    between atoms: O_13  and  C_16
REMARK                            x       y       z     vdW  Elec       q    Type
REMARK                         _______ _______ _______ _____ _____    ______ ____
ROOT
ATOM      1  C   UNL     1      36.770 -22.776 -16.148  0.00  0.00    +0.139 C 
ENDROOT
BRANCH   1   2
ATOM      2  N   UNL     1      38.114 -23.225 -15.830  0.00  0.00    -0.195 NA
ATOM      3  H   UNL     1      38.874 -23.078 -16.438  0.00  0.00    +0.150 HD
BRANCH   2   4
ATOM      4  N   UNL     1      38.252 -23.859 -14.645  0.00  0.00    -0.165 NA
BRANCH   4   7
ATOM      5  N   UNL     1      39.876 -25.265 -15.549  0.00  0.00    -0.369 N 
ATOM      6  N   UNL     1      38.445 -26.178 -14.023  0.00  0.00    -0.369 N 
ATOM      7  C   UNL     1      38.804 -25.043 -14.717  0.00  0.00    +0.205 C 
ATOM      8  H   UNL     1      40.230 -24.532 -16.101  0.00  0.00    +0.159 HD
ATOM      9  H   UNL     1      40.289 -26.158 -15.592  0.00  0.00    +0.159 HD
ATOM     10  H   UNL     1      37.690 -26.152 -13.392  0.00  0.00    +0.159 HD
ATOM     11  H   UNL     1      38.944 -27.016 -14.158  0.00  0.00    +0.159 HD
ENDBRANCH   4   7
ENDBRANCH   2   4
ENDBRANCH   1   2
BRANCH   1  12
ATOM     12  C   UNL     1      36.800 -21.715 -17.237  0.00  0.00    +0.224 C 
BRANCH  12  13
ATOM     13  O   UNL     1      36.339 -22.293 -18.451  0.00  0.00    -0.472 OA
BRANCH  13  16
ATOM     14 CL   UNL     1      37.173 -20.127 -20.327  0.00  0.00    -0.079 Cl
ATOM     15 CL   UNL     1      33.639 -23.322 -17.704  0.00  0.00    -0.079 Cl
ATOM     16  C   UNL     1      35.300 -21.660 -19.080  0.00  0.00    +0.159 C 
ATOM     17  C   UNL     1      35.560 -20.630 -19.981  0.00  0.00    +0.092 C 
ATOM     18  C   UNL     1      33.989 -22.049 -18.816  0.00  0.00    +0.092 C 
ATOM     19  C   UNL     1      34.501 -19.985 -20.622  0.00  0.00    +0.015 C 
ATOM     20  C   UNL     1      32.931 -21.405 -19.456  0.00  0.00    +0.015 C 
ATOM     21  C   UNL     1      33.187 -20.372 -20.359  0.00  0.00    +0.002 C 
ENDBRANCH  13  16
ENDBRANCH  12  13
ENDBRANCH   1  12
TORSDOF 6
ENDMDL
MODEL 3
REMARK VINA RESULT:      -7.3      3.113      4.275
REMARK  Name = 71835
REMARK  6 active torsions:
REMARK  status: ('A' for Active; 'I' for Inactive)
REMARK    1  A    between atoms: C_1  and  N_2
REMARK    2  A    between atoms: C_1  and  C_12
REMARK    3  A    between atoms: N_2  and  N_4
REMARK    4  A    between atoms: N_4  and  C_7
REMARK    5  A    between atoms: C_12  and  O_13
REMARK    6  A    between atoms: O_13  and  C_16
REMARK                            x       y       z     vdW  Elec       q    Type
REMARK                         _______ _______ _______ _____ _____    ______ ____
ROOT
ATOM      1  C   UNL     1      37.334 -23.070 -15.310  0.00  0.00    +0.139 C 
ENDROOT
BRANCH   1   2
ATOM      2  N   UNL     1      37.635 -24.454 -15.634  0.00  0.00    -0.195 NA
ATOM      3  H   UNL     1      37.650 -24.784 -16.562  0.00  0.00    +0.150 HD
BRANCH   2   4
ATOM      4  N   UNL     1      37.891 -25.258 -14.580  0.00  0.00    -0.165 NA
BRANCH   4   7
ATOM      5  N   UNL     1      37.069 -27.003 -13.273  0.00  0.00    -0.369 N 
ATOM      6  N   UNL     1      36.032 -26.625 -15.270  0.00  0.00    -0.369 N 
ATOM      7  C   UNL     1      37.036 -26.234 -14.412  0.00  0.00    +0.205 C 
ATOM      8  H   UNL     1      37.743 -26.824 -12.578  0.00  0.00    +0.159 HD
ATOM      9  H   UNL     1      36.418 -27.732 -13.152  0.00  0.00    +0.159 HD
ATOM     10  H   UNL     1      35.902 -26.153 -16.124  0.00  0.00    +0.159 HD
ATOM     11  H   UNL     1      35.444 -27.377 -15.029  0.00  0.00    +0.159 HD
ENDBRANCH   4   7
ENDBRANCH   2   4
ENDBRANCH   1   2
BRANCH   1  12
ATOM     12  C   UNL     1      36.055 -22.622 -15.999  0.00  0.00    +0.224 C 
BRANCH  12  13
ATOM     13  O   UNL     1      35.193 -23.744 -16.137  0.00  0.00    -0.472 OA
BRANCH  13  16
ATOM     14 CL   UNL     1      33.645 -22.985 -18.573  0.00  0.00    -0.079 Cl
ATOM     15 CL   UNL     1      34.345 -24.115 -13.299  0.00  0.00    -0.079 Cl
ATOM     16  C   UNL     1      33.858 -23.527 -15.913  0.00  0.00    +0.159 C 
ATOM     17  C   UNL     1      33.029 -23.166 -16.972  0.00  0.00    +0.092 C 
ATOM     18  C   UNL     1      33.339 -23.669 -14.629  0.00  0.00    +0.092 C 
ATOM     19  C   UNL     1      31.670 -22.946 -16.744  0.00  0.00    +0.015 C 
ATOM     20  C   UNL     1      31.981 -23.449 -14.401  0.00  0.00    +0.015 C 
ATOM     21  C   UNL     1      31.146 -23.087 -15.459  0.00  0.00    +0.002 C 
ENDBRANCH  13  16
ENDBRANCH  12  13
ENDBRANCH   1  12
TORSDOF 6
ENDMDL
MODEL 4
REMARK VINA RESULT:      -7.2      4.418      5.787
REMARK  Name = 71835
REMARK  6 active torsions:
REMARK  status: ('A' for Active; 'I' for Inactive)
REMARK    1  A    between atoms: C_1  and  N_2
REMARK    2  A    between atoms: C_1  and  C_12
REMARK    3  A    between atoms: N_2  and  N_4
REMARK    4  A    between atoms: N_4  and  C_7
REMARK    5  A    between atoms: C_12  and  O_13
REMARK    6  A    between atoms: O_13  and  C_16
REMARK                            x       y       z     vdW  Elec       q    Type
REMARK                         _______ _______ _______ _____ _____    ______ ____
ROOT
ATOM      1  C   UNL     1      36.467 -20.262 -20.678  0.00  0.00    +0.139 C 
ENDROOT
BRANCH   1   2
ATOM      2  N   UNL     1      35.598 -20.583 -19.559  0.00  0.00    -0.195 NA
ATOM      3  H   UNL     1      35.600 -20.057 -18.727  0.00  0.00    +0.150 HD
BRANCH   2   4
ATOM      4  N   UNL     1      34.790 -21.650 -19.735  0.00  0.00    -0.165 NA
BRANCH   4   7
ATOM      5  N   UNL     1      32.732 -22.157 -18.768  0.00  0.00    -0.369 N 
ATOM      6  N   UNL     1      32.787 -20.410 -20.235  0.00  0.00    -0.369 N 
ATOM      7  C   UNL     1      33.513 -21.399 -19.608  0.00  0.00    +0.205 C 
ATOM      8  H   UNL     1      33.133 -22.899 -18.259  0.00  0.00    +0.159 HD
ATOM      9  H   UNL     1      31.772 -21.958 -18.674  0.00  0.00    +0.159 HD
ATOM     10  H   UNL     1      33.230 -19.797 -20.865  0.00  0.00    +0.159 HD
ATOM     11  H   UNL     1      31.824 -20.316 -20.053  0.00  0.00    +0.159 HD
ENDBRANCH   4   7
ENDBRANCH   2   4
ENDBRANCH   1   2
BRANCH   1  12
ATOM     12  C   UNL     1      36.316 -18.802 -21.075  0.00  0.00    +0.224 C 
BRANCH  12  13
ATOM     13  O   UNL     1      34.978 -18.580 -21.500  0.00  0.00    -0.472 OA
BRANCH  13  16
ATOM     14 CL   UNL     1      34.937 -19.724 -24.256  0.00  0.00    -0.079 Cl
ATOM     15 CL   UNL     1      34.683 -15.774 -20.525  0.00  0.00    -0.079 Cl
ATOM     16  C   UNL     1      34.791 -17.654 -22.493  0.00  0.00    +0.159 C 
ATOM     17  C   UNL     1      34.753 -18.064 -23.823  0.00  0.00    +0.092 C 
ATOM     18  C   UNL     1      34.640 -16.309 -22.166  0.00  0.00    +0.092 C 
ATOM     19  C   UNL     1      34.563 -17.121 -24.834  0.00  0.00    +0.015 C 
ATOM     20  C   UNL     1      34.450 -15.367 -23.177  0.00  0.00    +0.015 C 
ATOM     21  C   UNL     1      34.411 -15.773 -24.511  0.00  0.00    +0.002 C 
ENDBRANCH  13  16
ENDBRANCH  12  13
ENDBRANCH   1  12
TORSDOF 6
ENDMDL
MODEL 5
REMARK VINA RESULT:      -7.2      4.379      5.806
REMARK  Name = 71835
REMARK  6 active torsions:
REMARK  status: ('A' for Active; 'I' for Inactive)
REMARK    1  A    between atoms: C_1  and  N_2
REMARK    2  A    between atoms: C_1  and  C_12
REMARK    3  A    between atoms: N_2  and  N_4
REMARK    4  A    between atoms: N_4  and  C_7
REMARK    5  A    between atoms: C_12  and  O_13
REMARK    6  A    between atoms: O_13  and  C_16
REMARK                            x       y       z     vdW  Elec       q    Type
REMARK                         _______ _______ _______ _____ _____    ______ ____
ROOT
ATOM      1  C   UNL     1      36.368 -20.263 -20.713  0.00  0.00    +0.139 C 
ENDROOT
BRANCH   1   2
ATOM      2  N   UNL     1      35.603 -20.641 -19.537  0.00  0.00    -0.195 NA
ATOM      3  H   UNL     1      35.673 -20.152 -18.686  0.00  0.00    +0.150 HD
BRANCH   2   4
ATOM      4  N   UNL     1      34.791 -21.709 -19.690  0.00  0.00    -0.165 NA
BRANCH   4   7
ATOM      5  N   UNL     1      32.753 -22.239 -18.692  0.00  0.00    -0.369 N 
ATOM      6  N   UNL     1      32.780 -20.449 -20.107  0.00  0.00    -0.369 N 
ATOM      7  C   UNL     1      33.517 -21.459 -19.527  0.00  0.00    +0.205 C 
ATOM      8  H   UNL     1      33.162 -22.997 -18.215  0.00  0.00    +0.159 HD
ATOM      9  H   UNL     1      31.796 -22.040 -18.571  0.00  0.00    +0.159 HD
ATOM     10  H   UNL     1      33.212 -19.819 -20.728  0.00  0.00    +0.159 HD
ATOM     11  H   UNL     1      31.822 -20.358 -19.901  0.00  0.00    +0.159 HD
ENDBRANCH   4   7
ENDBRANCH   2   4
ENDBRANCH   1   2
BRANCH   1  12
ATOM     12  C   UNL     1      36.229 -18.774 -20.988  0.00  0.00    +0.224 C 
BRANCH  12  13
ATOM     13  O   UNL     1      34.903 -18.513 -21.431  0.00  0.00    -0.472 OA
BRANCH  13  16
ATOM     14 CL   UNL     1      34.610 -15.698 -20.484  0.00  0.00    -0.079 Cl
ATOM     15 CL   UNL     1      34.936 -19.675 -24.180  0.00  0.00    -0.079 Cl
ATOM     16  C   UNL     1      34.758 -17.591 -22.435  0.00  0.00    +0.159 C 
ATOM     17  C   UNL     1      34.612 -16.243 -22.121  0.00  0.00    +0.092 C 
ATOM     18  C   UNL     1      34.757 -18.009 -23.763  0.00  0.00    +0.092 C 
ATOM     19  C   UNL     1      34.464 -15.304 -23.143  0.00  0.00    +0.015 C 
ATOM     20  C   UNL     1      34.609 -17.071 -24.785  0.00  0.00    +0.015 C 
ATOM     21  C   UNL     1      34.462 -15.719 -24.475  0.00  0.00    +0.002 C 
ENDBRANCH  13  16
ENDBRANCH  12  13
ENDBRANCH   1  12
TORSDOF 6
ENDMDL
MODEL 6
REMARK VINA RESULT:      -7.1      3.149      3.987
REMARK  Name = 71835
REMARK  6 active torsions:
REMARK  status: ('A' for Active; 'I' for Inactive)
REMARK    1  A    between atoms: C_1  and  N_2
REMARK    2  A    between atoms: C_1  and  C_12
REMARK    3  A    between atoms: N_2  and  N_4
REMARK    4  A    between atoms: N_4  and  C_7
REMARK    5  A    between atoms: C_12  and  O_13
REMARK    6  A    between atoms: O_13  and  C_16
REMARK                            x       y       z     vdW  Elec       q    Type
REMARK                         _______ _______ _______ _____ _____    ______ ____
ROOT
ATOM      1  C   UNL     1      37.558 -23.133 -15.723  0.00  0.00    +0.139 C 
ENDROOT
BRANCH   1   2
ATOM      2  N   UNL     1      37.747 -24.014 -14.583  0.00  0.00    -0.195 NA
ATOM      3  H   UNL     1      37.678 -23.692 -13.655  0.00  0.00    +0.150 HD
BRANCH   2   4
ATOM      4  N   UNL     1      38.024 -25.301 -14.880  0.00  0.00    -0.165 NA
BRANCH   4   7
ATOM      5  N   UNL     1      36.085 -26.544 -15.236  0.00  0.00    -0.369 N 
ATOM      6  N   UNL     1      37.132 -26.807 -13.225  0.00  0.00    -0.369 N 
ATOM      7  C   UNL     1      37.145 -26.168 -14.445  0.00  0.00    +0.205 C 
ATOM      8  H   UNL     1      35.980 -26.157 -16.135  0.00  0.00    +0.159 HD
ATOM      9  H   UNL     1      35.431 -27.200 -14.903  0.00  0.00    +0.159 HD
ATOM     10  H   UNL     1      37.838 -26.625 -12.565  0.00  0.00    +0.159 HD
ATOM     11  H   UNL     1      36.415 -27.448 -13.013  0.00  0.00    +0.159 HD
ENDBRANCH   4   7
ENDBRANCH   2   4
ENDBRANCH   1   2
BRANCH   1  12
ATOM     12  C   UNL     1      36.125 -22.630 -15.782  0.00  0.00    +0.224 C 
BRANCH  12  13
ATOM     13  O   UNL     1      35.268 -23.725 -16.080  0.00  0.00    -0.472 OA
BRANCH  13  16
ATOM     14 CL   UNL     1      34.374 -24.126 -13.261  0.00  0.00    -0.079 Cl
ATOM     15 CL   UNL     1      33.754 -22.977 -18.540  0.00  0.00    -0.079 Cl
ATOM     16  C   UNL     1      33.926 -23.532 -15.880  0.00  0.00    +0.159 C 
ATOM     17  C   UNL     1      33.386 -23.690 -14.606  0.00  0.00    +0.092 C 
ATOM     18  C   UNL     1      33.110 -23.178 -16.951  0.00  0.00    +0.092 C 
ATOM     19  C   UNL     1      32.020 -23.492 -14.402  0.00  0.00    +0.015 C 
ATOM     20  C   UNL     1      31.745 -22.981 -16.748  0.00  0.00    +0.015 C 
ATOM     21  C   UNL     1      31.200 -23.138 -15.473  0.00  0.00    +0.002 C 
ENDBRANCH  13  16
ENDBRANCH  12  13
ENDBRANCH   1  12
TORSDOF 6
ENDMDL
MODEL 7
REMARK VINA RESULT:      -7.1      9.272     11.419
REMARK  Name = 71835
REMARK  6 active torsions:
REMARK  status: ('A' for Active; 'I' for Inactive)
REMARK    1  A    between atoms: C_1  and  N_2
REMARK    2  A    between atoms: C_1  and  C_12
REMARK    3  A    between atoms: N_2  and  N_4
REMARK    4  A    between atoms: N_4  and  C_7
REMARK    5  A    between atoms: C_12  and  O_13
REMARK    6  A    between atoms: O_13  and  C_16
REMARK                            x       y       z     vdW  Elec       q    Type
REMARK                         _______ _______ _______ _____ _____    ______ ____
ROOT
ATOM      1  C   UNL     1      33.376 -13.279 -24.476  0.00  0.00    +0.139 C 
ENDROOT
BRANCH   1   2
ATOM      2  N   UNL     1      34.226 -12.244 -23.914  0.00  0.00    -0.195 NA
ATOM      3  H   UNL     1      35.116 -12.441 -23.541  0.00  0.00    +0.150 HD
BRANCH   2   4
ATOM      4  N   UNL     1      33.714 -10.995 -23.934  0.00  0.00    -0.165 NA
BRANCH   4   7
ATOM      5  N   UNL     1      35.557 -10.334 -25.199  0.00  0.00    -0.369 N 
ATOM      6  N   UNL     1      34.585  -8.749 -23.876  0.00  0.00    -0.369 N 
ATOM      7  C   UNL     1      34.557 -10.061 -24.296  0.00  0.00    +0.205 C 
ATOM      8  H   UNL     1      35.646 -11.239 -25.576  0.00  0.00    +0.159 HD
ATOM      9  H   UNL     1      36.184  -9.625 -25.470  0.00  0.00    +0.159 HD
ATOM     10  H   UNL     1      33.920  -8.425 -23.227  0.00  0.00    +0.159 HD
ATOM     11  H   UNL     1      35.270  -8.135 -24.226  0.00  0.00    +0.159 HD
ENDBRANCH   4   7
ENDBRANCH   2   4
ENDBRANCH   1   2
BRANCH   1  12
ATOM     12  C   UNL     1      33.300 -14.478 -23.543  0.00  0.00    +0.224 C 
BRANCH  12  13
ATOM     13  O   UNL     1      34.620 -14.931 -23.272  0.00  0.00    -0.472 OA
BRANCH  13  16
ATOM     14 CL   UNL     1      34.646 -15.344 -20.317  0.00  0.00    -0.079 Cl
ATOM     15 CL   UNL     1      34.839 -16.865 -25.535  0.00  0.00    -0.079 Cl
ATOM     16  C   UNL     1      34.756 -16.239 -22.886  0.00  0.00    +0.159 C 
ATOM     17  C   UNL     1      34.783 -16.561 -21.531  0.00  0.00    +0.092 C 
ATOM     18  C   UNL     1      34.868 -17.238 -23.849  0.00  0.00    +0.092 C 
ATOM     19  C   UNL     1      34.922 -17.893 -21.138  0.00  0.00    +0.015 C 
ATOM     20  C   UNL     1      35.007 -18.568 -23.456  0.00  0.00    +0.015 C 
ATOM     21  C   UNL     1      35.034 -18.896 -22.101  0.00  0.00    +0.002 C 
ENDBRANCH  13  16
ENDBRANCH  12  13
ENDBRANCH   1  12
TORSDOF 6
ENDMDL
MODEL 8
REMARK VINA RESULT:      -7.1      9.216     11.407
REMARK  Name = 71835
REMARK  6 active torsions:
REMARK  status: ('A' for Active; 'I' for Inactive)
REMARK    1  A    between atoms: C_1  and  N_2
REMARK    2  A    between atoms: C_1  and  C_12
REMARK    3  A    between atoms: N_2  and  N_4
REMARK    4  A    between atoms: N_4  and  C_7
REMARK    5  A    between atoms: C_12  and  O_13
REMARK    6  A    between atoms: O_13  and  C_16
REMARK                            x       y       z     vdW  Elec       q    Type
REMARK                         _______ _______ _______ _____ _____    ______ ____
ROOT
ATOM      1  C   UNL     1      33.441 -13.425 -24.495  0.00  0.00    +0.139 C 
ENDROOT
BRANCH   1   2
ATOM      2  N   UNL     1      34.172 -12.304 -23.931  0.00  0.00    -0.195 NA
ATOM      3  H   UNL     1      35.081 -12.400 -23.567  0.00  0.00    +0.150 HD
BRANCH   2   4
ATOM      4  N   UNL     1      33.521 -11.121 -23.939  0.00  0.00    -0.165 NA
BRANCH   4   7
ATOM      5  N   UNL     1      35.487 -10.180 -24.764  0.00  0.00    -0.369 N 
ATOM      6  N   UNL     1      34.044  -8.783 -23.679  0.00  0.00    -0.369 N 
ATOM      7  C   UNL     1      34.287 -10.073 -24.101  0.00  0.00    +0.205 C 
ATOM      8  H   UNL     1      35.778 -11.052 -25.116  0.00  0.00    +0.159 HD
ATOM      9  H   UNL     1      36.055  -9.386 -24.886  0.00  0.00    +0.159 HD
ATOM     10  H   UNL     1      33.216  -8.572 -23.191  0.00  0.00    +0.159 HD
ATOM     11  H   UNL     1      34.699  -8.073 -23.867  0.00  0.00    +0.159 HD
ENDBRANCH   4   7
ENDBRANCH   2   4
ENDBRANCH   1   2
BRANCH   1  12
ATOM     12  C   UNL     1      33.359 -14.570 -23.498  0.00  0.00    +0.224 C 
BRANCH  12  13
ATOM     13  O   UNL     1      34.673 -15.053 -23.248  0.00  0.00    -0.472 OA
BRANCH  13  16
ATOM     14 CL   UNL     1      34.894 -16.963 -25.530  0.00  0.00    -0.079 Cl
ATOM     15 CL   UNL     1      34.657 -15.500 -20.297  0.00  0.00    -0.079 Cl
ATOM     16  C   UNL     1      34.787 -16.367 -22.875  0.00  0.00    +0.159 C 
ATOM     17  C   UNL     1      34.897 -17.356 -23.850  0.00  0.00    +0.092 C 
ATOM     18  C   UNL     1      34.793 -16.706 -21.525  0.00  0.00    +0.092 C 
ATOM     19  C   UNL     1      35.014 -18.693 -23.471  0.00  0.00    +0.015 C 
ATOM     20  C   UNL     1      34.909 -18.043 -21.146  0.00  0.00    +0.015 C 
ATOM     21  C   UNL     1      35.020 -19.037 -22.119  0.00  0.00    +0.002 C 
ENDBRANCH  13  16
ENDBRANCH  12  13
ENDBRANCH   1  12
TORSDOF 6
ENDMDL
MODEL 9
REMARK VINA RESULT:      -7.0      8.545     10.246
REMARK  Name = 71835
REMARK  6 active torsions:
REMARK  status: ('A' for Active; 'I' for Inactive)
REMARK    1  A    between atoms: C_1  and  N_2
REMARK    2  A    between atoms: C_1  and  C_12
REMARK    3  A    between atoms: N_2  and  N_4
REMARK    4  A    between atoms: N_4  and  C_7
REMARK    5  A    between atoms: C_12  and  O_13
REMARK    6  A    between atoms: O_13  and  C_16
REMARK                            x       y       z     vdW  Elec       q    Type
REMARK                         _______ _______ _______ _____ _____    ______ ____
ROOT
ATOM      1  C   UNL     1      33.250 -13.410 -23.441  0.00  0.00    +0.139 C 
ENDROOT
BRANCH   1   2
ATOM      2  N   UNL     1      32.034 -13.238 -22.665  0.00  0.00    -0.195 NA
ATOM      3  H   UNL     1      31.140 -13.304 -23.070  0.00  0.00    +0.150 HD
BRANCH   2   4
ATOM      4  N   UNL     1      32.213 -12.981 -21.351  0.00  0.00    -0.165 NA
BRANCH   4   7
ATOM      5  N   UNL     1      30.567 -11.363 -21.677  0.00  0.00    -0.369 N 
ATOM      6  N   UNL     1      31.551 -11.442 -19.620  0.00  0.00    -0.369 N 
ATOM      7  C   UNL     1      31.501 -11.987 -20.884  0.00  0.00    +0.205 C 
ATOM      8  H   UNL     1      30.434 -11.660 -22.606  0.00  0.00    +0.159 HD
ATOM      9  H   UNL     1      30.032 -10.620 -21.316  0.00  0.00    +0.159 HD
ATOM     10  H   UNL     1      32.181 -11.800 -18.953  0.00  0.00    +0.159 HD
ATOM     11  H   UNL     1      30.957 -10.694 -19.383  0.00  0.00    +0.159 HD
ENDBRANCH   4   7
ENDBRANCH   2   4
ENDBRANCH   1   2
BRANCH   1  12
ATOM     12  C   UNL     1      33.414 -14.859 -23.870  0.00  0.00    +0.224 C 
BRANCH  12  13
ATOM     13  O   UNL     1      34.689 -15.321 -23.443  0.00  0.00    -0.472 OA
BRANCH  13  16
ATOM     14 CL   UNL     1      34.810 -17.425 -25.556  0.00  0.00    -0.079 Cl
ATOM     15 CL   UNL     1      34.682 -15.516 -20.464  0.00  0.00    -0.079 Cl
ATOM     16  C   UNL     1      34.752 -16.602 -22.961  0.00  0.00    +0.159 C 
ATOM     17  C   UNL     1      34.812 -17.674 -23.849  0.00  0.00    +0.092 C 
ATOM     18  C   UNL     1      34.756 -16.826 -21.587  0.00  0.00    +0.092 C 
ATOM     19  C   UNL     1      34.876 -18.978 -23.358  0.00  0.00    +0.015 C 
ATOM     20  C   UNL     1      34.820 -18.130 -21.096  0.00  0.00    +0.015 C 
ATOM     21  C   UNL     1      34.880 -19.206 -21.982  0.00  0.00    +0.002 C 
ENDBRANCH  13  16
ENDBRANCH  12  13
ENDBRANCH   1  12
TORSDOF 6
ENDMDL
