MODEL 1
REMARK VINA RESULT:      -7.2      0.000      0.000
REMARK  Name = 6950455
REMARK  4 active torsions:
REMARK  status: ('A' for Active; 'I' for Inactive)
REMARK    1  A    between atoms: CA_1  and  N_2
REMARK    2  A    between atoms: CA_1  and  C_8
REMARK    3  A    between atoms: CA_1  and  C_9
REMARK    4  A    between atoms: C_9  and  C_11
REMARK                            x       y       z     vdW  Elec       q    Type
REMARK                         _______ _______ _______ _____ _____    ______ ____
ROOT
ATOM      1  CA  UNL     1      34.649 -18.071 -23.558  0.00  0.00    +0.045 C 
ENDROOT
BRANCH   1   2
ATOM      2  N   UNL     1      34.952 -19.312 -24.339  0.00  0.00    +0.389 N 
ATOM      3  H1  UNL     1      34.212 -19.998 -24.189  0.00  0.00    -0.088 HD
ATOM      4  H2  UNL     1      35.843 -19.700 -24.027  0.00  0.00    -0.088 HD
ATOM      5  H3  UNL     1      35.010 -19.085 -25.331  0.00  0.00    -0.088 HD
ENDBRANCH   1   2
BRANCH   1   8
ATOM      6  O   UNL     1      35.244 -15.789 -23.679  0.00  0.00    -0.248 OA
ATOM      7  OXT UNL     1      34.805 -16.909 -25.623  0.00  0.00    -0.248 OA
ATOM      8  C   UNL     1      34.923 -16.797 -24.371  0.00  0.00    +0.345 C 
ENDBRANCH   1   8
BRANCH   1   9
ATOM      9  C   UNL     1      35.489 -18.129 -22.278  0.00  0.00    +0.016 C 
BRANCH   9  11
ATOM     10  I   UNL     1      33.633 -22.755 -18.328  0.00  0.00    -0.043 I 
ATOM     11  C   UNL     1      35.047 -19.229 -21.341  0.00  0.00    -0.024 C 
ATOM     12  C   UNL     1      36.004 -20.016 -20.721  0.00  0.00    -0.004 C 
ATOM     13  C   UNL     1      33.694 -19.431 -21.120  0.00  0.00    -0.004 C 
ATOM     14  C   UNL     1      35.597 -21.031 -19.855  0.00  0.00    +0.005 C 
ATOM     15  C   UNL     1      33.286 -20.445 -20.255  0.00  0.00    +0.005 C 
ATOM     16  C   UNL     1      34.239 -21.246 -19.622  0.00  0.00    +0.030 C 
ENDBRANCH   9  11
ENDBRANCH   1   9
TORSDOF 4
ENDMDL
MODEL 2
REMARK VINA RESULT:      -7.1      0.085      1.343
REMARK  Name = 6950455
REMARK  4 active torsions:
REMARK  status: ('A' for Active; 'I' for Inactive)
REMARK    1  A    between atoms: CA_1  and  N_2
REMARK    2  A    between atoms: CA_1  and  C_8
REMARK    3  A    between atoms: CA_1  and  C_9
REMARK    4  A    between atoms: C_9  and  C_11
REMARK                            x       y       z     vdW  Elec       q    Type
REMARK                         _______ _______ _______ _____ _____    ______ ____
ROOT
ATOM      1  CA  UNL     1      34.634 -18.097 -23.482  0.00  0.00    +0.045 C 
ENDROOT
BRANCH   1   2
ATOM      2  N   UNL     1      34.943 -19.324 -24.283  0.00  0.00    +0.389 N 
ATOM      3  H1  UNL     1      34.858 -20.148 -23.688  0.00  0.00    -0.088 HD
ATOM      4  H2  UNL     1      35.895 -19.262 -24.645  0.00  0.00    -0.088 HD
ATOM      5  H3  UNL     1      34.288 -19.396 -25.061  0.00  0.00    -0.088 HD
ENDBRANCH   1   2
BRANCH   1   8
ATOM      6  O   UNL     1      35.248 -15.818 -23.576  0.00  0.00    -0.248 OA
ATOM      7  OXT UNL     1      34.731 -16.893 -25.527  0.00  0.00    -0.248 OA
ATOM      8  C   UNL     1      34.893 -16.808 -24.278  0.00  0.00    +0.345 C 
ENDBRANCH   1   8
BRANCH   1   9
ATOM      9  C   UNL     1      35.482 -18.166 -22.208  0.00  0.00    +0.016 C 
BRANCH   9  11
ATOM     10  I   UNL     1      33.623 -22.820 -18.292  0.00  0.00    -0.043 I 
ATOM     11  C   UNL     1      35.041 -19.271 -21.276  0.00  0.00    -0.024 C 
ATOM     12  C   UNL     1      33.688 -19.474 -21.058  0.00  0.00    -0.004 C 
ATOM     13  C   UNL     1      35.997 -20.060 -20.657  0.00  0.00    -0.004 C 
ATOM     14  C   UNL     1      33.280 -20.494 -20.199  0.00  0.00    +0.005 C 
ATOM     15  C   UNL     1      35.591 -21.080 -19.798  0.00  0.00    +0.005 C 
ATOM     16  C   UNL     1      34.231 -21.297 -19.568  0.00  0.00    +0.030 C 
ENDBRANCH   9  11
ENDBRANCH   1   9
TORSDOF 4
ENDMDL
MODEL 3
REMARK VINA RESULT:      -7.1      1.547      1.825
REMARK  Name = 6950455
REMARK  4 active torsions:
REMARK  status: ('A' for Active; 'I' for Inactive)
REMARK    1  A    between atoms: CA_1  and  N_2
REMARK    2  A    between atoms: CA_1  and  C_8
REMARK    3  A    between atoms: CA_1  and  C_9
REMARK    4  A    between atoms: C_9  and  C_11
REMARK                            x       y       z     vdW  Elec       q    Type
REMARK                         _______ _______ _______ _____ _____    ______ ____
ROOT
ATOM      1  CA  UNL     1      34.620 -17.643 -22.290  0.00  0.00    +0.045 C 
ENDROOT
BRANCH   1   2
ATOM      2  N   UNL     1      34.710 -17.451 -23.772  0.00  0.00    +0.389 N 
ATOM      3  H1  UNL     1      35.409 -18.088 -24.156  0.00  0.00    -0.088 HD
ATOM      4  H2  UNL     1      34.980 -16.488 -23.975  0.00  0.00    -0.088 HD
ATOM      5  H3  UNL     1      33.803 -17.646 -24.196  0.00  0.00    -0.088 HD
ENDBRANCH   1   2
BRANCH   1   8
ATOM      6  O   UNL     1      35.130 -16.461 -20.310  0.00  0.00    -0.248 OA
ATOM      7  OXT UNL     1      34.638 -15.269 -22.198  0.00  0.00    -0.248 OA
ATOM      8  C   UNL     1      34.812 -16.324 -21.525  0.00  0.00    +0.345 C 
ENDBRANCH   1   8
BRANCH   1   9
ATOM      9  C   UNL     1      35.674 -18.687 -21.907  0.00  0.00    +0.016 C 
BRANCH   9  11
ATOM     10  I   UNL     1      33.427 -23.073 -17.888  0.00  0.00    -0.043 I 
ATOM     11  C   UNL     1      35.140 -19.731 -20.954  0.00  0.00    -0.024 C 
ATOM     12  C   UNL     1      36.030 -20.517 -20.242  0.00  0.00    -0.004 C 
ATOM     13  C   UNL     1      33.770 -19.881 -20.810  0.00  0.00    -0.004 C 
ATOM     14  C   UNL     1      35.537 -21.479 -19.360  0.00  0.00    +0.005 C 
ATOM     15  C   UNL     1      33.276 -20.843 -19.930  0.00  0.00    +0.005 C 
ATOM     16  C   UNL     1      34.161 -21.643 -19.204  0.00  0.00    +0.030 C 
ENDBRANCH   9  11
ENDBRANCH   1   9
TORSDOF 4
ENDMDL
MODEL 4
REMARK VINA RESULT:      -6.9      5.639      7.036
REMARK  Name = 6950455
REMARK  4 active torsions:
REMARK  status: ('A' for Active; 'I' for Inactive)
REMARK    1  A    between atoms: CA_1  and  N_2
REMARK    2  A    between atoms: CA_1  and  C_8
REMARK    3  A    between atoms: CA_1  and  C_9
REMARK    4  A    between atoms: C_9  and  C_11
REMARK                            x       y       z     vdW  Elec       q    Type
REMARK                         _______ _______ _______ _____ _____    ______ ____
ROOT
ATOM      1  CA  UNL     1      33.411 -22.920 -16.918  0.00  0.00    +0.045 C 
ENDROOT
BRANCH   1   2
ATOM      2  N   UNL     1      34.379 -23.733 -16.117  0.00  0.00    +0.389 N 
ATOM      3  H1  UNL     1      35.162 -23.145 -15.830  0.00  0.00    -0.088 HD
ATOM      4  H2  UNL     1      34.725 -24.507 -16.686  0.00  0.00    -0.088 HD
ATOM      5  H3  UNL     1      33.911 -24.103 -15.290  0.00  0.00    -0.088 HD
ENDBRANCH   1   2
BRANCH   1   8
ATOM      6  O   UNL     1      31.092 -22.552 -17.177  0.00  0.00    -0.248 OA
ATOM      7  OXT UNL     1      31.799 -23.948 -15.510  0.00  0.00    -0.248 OA
ATOM      8  C   UNL     1      31.957 -23.164 -16.487  0.00  0.00    +0.345 C 
ENDBRANCH   1   8
BRANCH   1   9
ATOM      9  C   UNL     1      33.640 -23.271 -18.392  0.00  0.00    +0.016 C 
BRANCH   9  11
ATOM     10  I   UNL     1      35.531 -18.274 -21.842  0.00  0.00    -0.043 I 
ATOM     11  C   UNL     1      34.089 -22.082 -19.210  0.00  0.00    -0.024 C 
ATOM     12  C   UNL     1      35.444 -21.854 -19.387  0.00  0.00    -0.004 C 
ATOM     13  C   UNL     1      33.137 -21.243 -19.768  0.00  0.00    -0.004 C 
ATOM     14  C   UNL     1      35.859 -20.758 -20.144  0.00  0.00    +0.005 C 
ATOM     15  C   UNL     1      33.552 -20.147 -20.523  0.00  0.00    +0.005 C 
ATOM     16  C   UNL     1      34.913 -19.904 -20.712  0.00  0.00    +0.030 C 
ENDBRANCH   9  11
ENDBRANCH   1   9
TORSDOF 4
ENDMDL
MODEL 5
REMARK VINA RESULT:      -6.7      5.003      6.203
REMARK  Name = 6950455
REMARK  4 active torsions:
REMARK  status: ('A' for Active; 'I' for Inactive)
REMARK    1  A    between atoms: CA_1  and  N_2
REMARK    2  A    between atoms: CA_1  and  C_8
REMARK    3  A    between atoms: CA_1  and  C_9
REMARK    4  A    between atoms: C_9  and  C_11
REMARK                            x       y       z     vdW  Elec       q    Type
REMARK                         _______ _______ _______ _____ _____    ______ ____
ROOT
ATOM      1  CA  UNL     1      35.017 -21.946 -18.114  0.00  0.00    +0.045 C 
ENDROOT
BRANCH   1   2
ATOM      2  N   UNL     1      36.247 -22.258 -17.319  0.00  0.00    +0.389 N 
ATOM      3  H1  UNL     1      36.482 -23.244 -17.430  0.00  0.00    -0.088 HD
ATOM      4  H2  UNL     1      36.074 -22.059 -16.333  0.00  0.00    -0.088 HD
ATOM      5  H3  UNL     1      37.021 -21.684 -17.651  0.00  0.00    -0.088 HD
ENDBRANCH   1   2
BRANCH   1   8
ATOM      6  O   UNL     1      32.781 -22.654 -18.394  0.00  0.00    -0.248 OA
ATOM      7  OXT UNL     1      34.153 -23.875 -17.031  0.00  0.00    -0.248 OA
ATOM      8  C   UNL     1      33.871 -22.923 -17.812  0.00  0.00    +0.345 C 
ENDBRANCH   1   8
BRANCH   1   9
ATOM      9  C   UNL     1      35.419 -21.971 -19.592  0.00  0.00    +0.016 C 
BRANCH   9  11
ATOM     10  I   UNL     1      34.670 -16.333 -22.438  0.00  0.00    -0.043 I 
ATOM     11  C   UNL     1      35.240 -20.630 -20.266  0.00  0.00    -0.024 C 
ATOM     12  C   UNL     1      36.359 -19.878 -20.586  0.00  0.00    -0.004 C 
ATOM     13  C   UNL     1      33.962 -20.179 -20.553  0.00  0.00    -0.004 C 
ATOM     14  C   UNL     1      36.195 -18.641 -21.210  0.00  0.00    +0.005 C 
ATOM     15  C   UNL     1      33.797 -18.942 -21.176  0.00  0.00    +0.005 C 
ATOM     16  C   UNL     1      34.915 -18.173 -21.504  0.00  0.00    +0.030 C 
ENDBRANCH   9  11
ENDBRANCH   1   9
TORSDOF 4
ENDMDL
MODEL 6
REMARK VINA RESULT:      -6.6      8.248      9.368
REMARK  Name = 6950455
REMARK  4 active torsions:
REMARK  status: ('A' for Active; 'I' for Inactive)
REMARK    1  A    between atoms: CA_1  and  N_2
REMARK    2  A    between atoms: CA_1  and  C_8
REMARK    3  A    between atoms: CA_1  and  C_9
REMARK    4  A    between atoms: C_9  and  C_11
REMARK                            x       y       z     vdW  Elec       q    Type
REMARK                         _______ _______ _______ _____ _____    ______ ____
ROOT
ATOM      1  CA  UNL     1      28.480 -23.051 -15.927  0.00  0.00    +0.045 C 
ENDROOT
BRANCH   1   2
ATOM      2  N   UNL     1      28.325 -24.482 -16.339  0.00  0.00    +0.389 N 
ATOM      3  H1  UNL     1      29.064 -25.041 -15.913  0.00  0.00    -0.088 HD
ATOM      4  H2  UNL     1      28.389 -24.552 -17.355  0.00  0.00    -0.088 HD
ATOM      5  H3  UNL     1      27.416 -24.828 -16.032  0.00  0.00    -0.088 HD
ENDBRANCH   1   2
BRANCH   1   8
ATOM      6  O   UNL     1      27.317 -21.526 -17.307  0.00  0.00    -0.248 OA
ATOM      7  OXT UNL     1      26.270 -22.330 -15.440  0.00  0.00    -0.248 OA
ATOM      8  C   UNL     1      27.230 -22.218 -16.252  0.00  0.00    +0.345 C 
ENDBRANCH   1   8
BRANCH   1   9
ATOM      9  C   UNL     1      29.729 -22.513 -16.633  0.00  0.00    +0.016 C 
BRANCH   9  11
ATOM     10  I   UNL     1      35.106 -24.128 -13.647  0.00  0.00    -0.043 I 
ATOM     11  C   UNL     1      31.007 -22.895 -15.924  0.00  0.00    -0.024 C 
ATOM     12  C   UNL     1      31.012 -22.995 -14.542  0.00  0.00    -0.004 C 
ATOM     13  C   UNL     1      32.150 -23.138 -16.668  0.00  0.00    -0.004 C 
ATOM     14  C   UNL     1      32.191 -23.349 -13.887  0.00  0.00    +0.005 C 
ATOM     15  C   UNL     1      33.330 -23.491 -16.014  0.00  0.00    +0.005 C 
ATOM     16  C   UNL     1      33.350 -23.597 -14.622  0.00  0.00    +0.030 C 
ENDBRANCH   9  11
ENDBRANCH   1   9
TORSDOF 4
ENDMDL
MODEL 7
REMARK VINA RESULT:      -6.6      8.674      9.475
REMARK  Name = 6950455
REMARK  4 active torsions:
REMARK  status: ('A' for Active; 'I' for Inactive)
REMARK    1  A    between atoms: CA_1  and  N_2
REMARK    2  A    between atoms: CA_1  and  C_8
REMARK    3  A    between atoms: CA_1  and  C_9
REMARK    4  A    between atoms: C_9  and  C_11
REMARK                            x       y       z     vdW  Elec       q    Type
REMARK                         _______ _______ _______ _____ _____    ______ ____
ROOT
ATOM      1  CA  UNL     1      29.008 -22.678 -16.324  0.00  0.00    +0.045 C 
ENDROOT
BRANCH   1   2
ATOM      2  N   UNL     1      28.759 -22.081 -14.974  0.00  0.00    +0.389 N 
ATOM      3  H1  UNL     1      29.221 -22.646 -14.262  0.00  0.00    -0.088 HD
ATOM      4  H2  UNL     1      27.755 -22.059 -14.792  0.00  0.00    -0.088 HD
ATOM      5  H3  UNL     1      29.129 -21.131 -14.948  0.00  0.00    -0.088 HD
ENDBRANCH   1   2
BRANCH   1   8
ATOM      6  O   UNL     1      27.450 -23.775 -17.720  0.00  0.00    -0.248 OA
ATOM      7  OXT UNL     1      27.162 -21.546 -17.299  0.00  0.00    -0.248 OA
ATOM      8  C   UNL     1      27.749 -22.660 -17.204  0.00  0.00    +0.345 C 
ENDBRANCH   1   8
BRANCH   1   9
ATOM      9  C   UNL     1      29.530 -24.100 -16.097  0.00  0.00    +0.016 C 
BRANCH   9  11
ATOM     10  I   UNL     1      35.260 -24.182 -13.339  0.00  0.00    -0.043 I 
ATOM     11  C   UNL     1      30.892 -24.122 -15.442  0.00  0.00    -0.024 C 
ATOM     12  C   UNL     1      31.924 -23.384 -16.000  0.00  0.00    -0.004 C 
ATOM     13  C   UNL     1      31.083 -24.878 -14.297  0.00  0.00    -0.004 C 
ATOM     14  C   UNL     1      33.180 -23.402 -15.395  0.00  0.00    +0.005 C 
ATOM     15  C   UNL     1      32.340 -24.897 -13.692  0.00  0.00    +0.005 C 
ATOM     16  C   UNL     1      33.389 -24.159 -14.242  0.00  0.00    +0.030 C 
ENDBRANCH   9  11
ENDBRANCH   1   9
TORSDOF 4
ENDMDL
MODEL 8
REMARK VINA RESULT:      -6.5      4.591      5.825
REMARK  Name = 6950455
REMARK  4 active torsions:
REMARK  status: ('A' for Active; 'I' for Inactive)
REMARK    1  A    between atoms: CA_1  and  N_2
REMARK    2  A    between atoms: CA_1  and  C_8
REMARK    3  A    between atoms: CA_1  and  C_9
REMARK    4  A    between atoms: C_9  and  C_11
REMARK                            x       y       z     vdW  Elec       q    Type
REMARK                         _______ _______ _______ _____ _____    ______ ____
ROOT
ATOM      1  CA  UNL     1      33.753 -21.122 -20.196  0.00  0.00    +0.045 C 
ENDROOT
BRANCH   1   2
ATOM      2  N   UNL     1      32.558 -20.246 -19.975  0.00  0.00    +0.389 N 
ATOM      3  H1  UNL     1      32.069 -20.109 -20.860  0.00  0.00    -0.088 HD
ATOM      4  H2  UNL     1      32.862 -19.343 -19.611  0.00  0.00    -0.088 HD
ATOM      5  H3  UNL     1      31.931 -20.689 -19.304  0.00  0.00    -0.088 HD
ENDBRANCH   1   2
BRANCH   1   8
ATOM      6  O   UNL     1      32.844 -22.528 -18.531  0.00  0.00    -0.248 OA
ATOM      7  OXT UNL     1      35.109 -22.525 -18.843  0.00  0.00    -0.248 OA
ATOM      8  C   UNL     1      33.923 -22.160 -19.077  0.00  0.00    +0.345 C 
ENDBRANCH   1   8
BRANCH   1   9
ATOM      9  C   UNL     1      34.971 -20.199 -20.313  0.00  0.00    +0.016 C 
BRANCH   9  11
ATOM     10  I   UNL     1      34.422 -15.998 -25.057  0.00  0.00    -0.043 I 
ATOM     11  C   UNL     1      34.838 -19.201 -21.441  0.00  0.00    -0.024 C 
ATOM     12  C   UNL     1      34.781 -17.849 -21.145  0.00  0.00    -0.004 C 
ATOM     13  C   UNL     1      34.777 -19.658 -22.748  0.00  0.00    -0.004 C 
ATOM     14  C   UNL     1      34.660 -16.928 -22.186  0.00  0.00    +0.005 C 
ATOM     15  C   UNL     1      34.656 -18.737 -23.788  0.00  0.00    +0.005 C 
ATOM     16  C   UNL     1      34.598 -17.371 -23.507  0.00  0.00    +0.030 C 
ENDBRANCH   9  11
ENDBRANCH   1   9
TORSDOF 4
ENDMDL
MODEL 9
REMARK VINA RESULT:      -6.5      9.237     10.404
REMARK  Name = 6950455
REMARK  4 active torsions:
REMARK  status: ('A' for Active; 'I' for Inactive)
REMARK    1  A    between atoms: CA_1  and  N_2
REMARK    2  A    between atoms: CA_1  and  C_8
REMARK    3  A    between atoms: CA_1  and  C_9
REMARK    4  A    between atoms: C_9  and  C_11
REMARK                            x       y       z     vdW  Elec       q    Type
REMARK                         _______ _______ _______ _____ _____    ______ ____
ROOT
ATOM      1  CA  UNL     1      38.599 -25.539 -14.794  0.00  0.00    +0.045 C 
ENDROOT
BRANCH   1   2
ATOM      2  N   UNL     1      38.155 -26.872 -14.275  0.00  0.00    +0.389 N 
ATOM      3  H1  UNL     1      37.822 -26.770 -13.317  0.00  0.00    -0.088 HD
ATOM      4  H2  UNL     1      38.940 -27.523 -14.295  0.00  0.00    -0.088 HD
ATOM      5  H3  UNL     1      37.401 -27.231 -14.861  0.00  0.00    -0.088 HD
ENDBRANCH   1   2
BRANCH   1   8
ATOM      6  O   UNL     1      40.619 -26.083 -15.891  0.00  0.00    -0.248 OA
ATOM      7  OXT UNL     1      40.706 -24.746 -14.038  0.00  0.00    -0.248 OA
ATOM      8  C   UNL     1      40.127 -25.447 -14.915  0.00  0.00    +0.345 C 
ENDBRANCH   1   8
BRANCH   1   9
ATOM      9  C   UNL     1      38.032 -24.477 -13.846  0.00  0.00    +0.016 C 
BRANCH   9  11
ATOM     10  I   UNL     1      31.845 -23.382 -14.829  0.00  0.00    -0.043 I 
ATOM     11  C   UNL     1      36.562 -24.215 -14.078  0.00  0.00    -0.024 C 
ATOM     12  C   UNL     1      36.142 -23.768 -15.320  0.00  0.00    -0.004 C 
ATOM     13  C   UNL     1      35.663 -24.427 -13.045  0.00  0.00    -0.004 C 
ATOM     14  C   UNL     1      34.785 -23.527 -15.535  0.00  0.00    +0.005 C 
ATOM     15  C   UNL     1      34.306 -24.186 -13.260  0.00  0.00    +0.005 C 
ATOM     16  C   UNL     1      33.867 -23.736 -14.506  0.00  0.00    +0.030 C 
ENDBRANCH   9  11
ENDBRANCH   1   9
TORSDOF 4
ENDMDL
