MODEL 1
REMARK VINA RESULT:     -10.2      0.000      0.000
REMARK  Name = 5281708
REMARK  3 active torsions:
REMARK  status: ('A' for Active; 'I' for Inactive)
REMARK    1  A    between atoms: C_4  and  C_12
REMARK    2  A    between atoms: C_10  and  O_20
REMARK    3  A    between atoms: C_17  and  O_18
REMARK                            x       y       z     vdW  Elec       q    Type
REMARK                         _______ _______ _______ _____ _____    ______ ____
ROOT
ATOM      1  O   UNL     1      36.754 -20.156 -20.031  0.00  0.00    -0.450 OA
ATOM      2  O   UNL     1      32.924 -20.131 -21.438  0.00  0.00    -0.286 OA
ATOM      3  C   UNL     1      34.466 -20.944 -19.854  0.00  0.00    +0.074 C 
ATOM      4  C   UNL     1      35.143 -19.287 -21.625  0.00  0.00    +0.077 C 
ATOM      5  C   UNL     1      35.792 -20.922 -19.424  0.00  0.00    +0.151 C 
ATOM      6  C   UNL     1      34.072 -20.117 -21.010  0.00  0.00    +0.202 C 
ATOM      7  C   UNL     1      36.370 -19.374 -21.093  0.00  0.00    +0.183 C 
ATOM      8  C   UNL     1      33.527 -21.745 -19.199  0.00  0.00    +0.009 C 
ATOM      9  C   UNL     1      36.187 -21.700 -18.336  0.00  0.00    +0.074 C 
ATOM     10  C   UNL     1      35.252 -22.501 -17.680  0.00  0.00    +0.137 C 
ATOM     11  C   UNL     1      33.925 -22.522 -18.109  0.00  0.00    +0.037 C 
ENDROOT
BRANCH   4  12
ATOM     12  C   UNL     1      34.877 -18.386 -22.760  0.00  0.00    +0.006 C 
ATOM     13  C   UNL     1      34.799 -17.007 -22.556  0.00  0.00    +0.003 C 
ATOM     14  C   UNL     1      34.705 -18.908 -24.043  0.00  0.00    +0.003 C 
ATOM     15  C   UNL     1      34.548 -16.154 -23.631  0.00  0.00    +0.037 C 
ATOM     16  C   UNL     1      34.454 -18.055 -25.118  0.00  0.00    +0.037 C 
ATOM     17  C   UNL     1      34.376 -16.678 -24.911  0.00  0.00    +0.134 C 
BRANCH  17  18
ATOM     18  O   UNL     1      34.132 -15.846 -25.960  0.00  0.00    -0.506 OA
ATOM     19  H   UNL     1      34.579 -15.976 -26.774  0.00  0.00    +0.292 HD
ENDBRANCH  17  18
ENDBRANCH   4  12
BRANCH  10  20
ATOM     20  O   UNL     1      35.634 -23.260 -16.617  0.00  0.00    -0.505 OA
ATOM     21  H   UNL     1      35.199 -23.165 -15.792  0.00  0.00    +0.292 HD
ENDBRANCH  10  20
TORSDOF 3
ENDMDL
MODEL 2
REMARK VINA RESULT:      -9.8      1.705      7.213
REMARK  Name = 5281708
REMARK  3 active torsions:
REMARK  status: ('A' for Active; 'I' for Inactive)
REMARK    1  A    between atoms: C_4  and  C_12
REMARK    2  A    between atoms: C_10  and  O_20
REMARK    3  A    between atoms: C_17  and  O_18
REMARK                            x       y       z     vdW  Elec       q    Type
REMARK                         _______ _______ _______ _____ _____    ______ ____
ROOT
ATOM      1  O   UNL     1      34.312 -17.802 -24.501  0.00  0.00    -0.450 OA
ATOM      2  O   UNL     1      34.742 -16.559 -20.638  0.00  0.00    -0.286 OA
ATOM      3  C   UNL     1      34.277 -15.999 -22.877  0.00  0.00    +0.074 C 
ATOM      4  C   UNL     1      34.740 -18.374 -22.179  0.00  0.00    +0.077 C 
ATOM      5  C   UNL     1      34.153 -16.478 -24.180  0.00  0.00    +0.151 C 
ATOM      6  C   UNL     1      34.595 -16.944 -21.791  0.00  0.00    +0.202 C 
ATOM      7  C   UNL     1      34.588 -18.677 -23.477  0.00  0.00    +0.183 C 
ATOM      8  C   UNL     1      34.106 -14.638 -22.609  0.00  0.00    +0.009 C 
ATOM      9  C   UNL     1      33.856 -15.601 -25.223  0.00  0.00    +0.074 C 
ATOM     10  C   UNL     1      33.685 -14.242 -24.959  0.00  0.00    +0.137 C 
ATOM     11  C   UNL     1      33.808 -13.762 -23.655  0.00  0.00    +0.037 C 
ENDROOT
BRANCH   4  12
ATOM     12  C   UNL     1      35.018 -19.427 -21.189  0.00  0.00    +0.006 C 
ATOM     13  C   UNL     1      36.333 -19.693 -20.801  0.00  0.00    +0.003 C 
ATOM     14  C   UNL     1      33.969 -20.160 -20.632  0.00  0.00    +0.003 C 
ATOM     15  C   UNL     1      36.596 -20.690 -19.861  0.00  0.00    +0.037 C 
ATOM     16  C   UNL     1      34.232 -21.157 -19.692  0.00  0.00    +0.037 C 
ATOM     17  C   UNL     1      35.546 -21.421 -19.307  0.00  0.00    +0.134 C 
BRANCH  17  18
ATOM     18  O   UNL     1      35.803 -22.393 -18.389  0.00  0.00    -0.506 OA
ATOM     19  H   UNL     1      36.360 -23.113 -18.614  0.00  0.00    +0.292 HD
ENDBRANCH  17  18
ENDBRANCH   4  12
BRANCH  10  20
ATOM     20  O   UNL     1      33.394 -13.383 -25.974  0.00  0.00    -0.505 OA
ATOM     21  H   UNL     1      33.320 -13.702 -26.851  0.00  0.00    +0.292 HD
ENDBRANCH  10  20
TORSDOF 3
ENDMDL
MODEL 3
REMARK VINA RESULT:      -9.8      0.772      2.229
REMARK  Name = 5281708
REMARK  3 active torsions:
REMARK  status: ('A' for Active; 'I' for Inactive)
REMARK    1  A    between atoms: C_4  and  C_12
REMARK    2  A    between atoms: C_10  and  O_20
REMARK    3  A    between atoms: C_17  and  O_18
REMARK                            x       y       z     vdW  Elec       q    Type
REMARK                         _______ _______ _______ _____ _____    ______ ____
ROOT
ATOM      1  O   UNL     1      32.958 -21.052 -20.120  0.00  0.00    -0.450 OA
ATOM      2  O   UNL     1      36.689 -19.568 -20.845  0.00  0.00    -0.286 OA
ATOM      3  C   UNL     1      35.316 -20.979 -19.553  0.00  0.00    +0.074 C 
ATOM      4  C   UNL     1      34.394 -19.639 -21.476  0.00  0.00    +0.077 C 
ATOM      5  C   UNL     1      34.018 -21.445 -19.345  0.00  0.00    +0.151 C 
ATOM      6  C   UNL     1      35.569 -20.023 -20.647  0.00  0.00    +0.202 C 
ATOM      7  C   UNL     1      33.210 -20.177 -21.149  0.00  0.00    +0.183 C 
ATOM      8  C   UNL     1      36.359 -21.413 -18.731  0.00  0.00    +0.009 C 
ATOM      9  C   UNL     1      33.756 -22.345 -18.313  0.00  0.00    +0.074 C 
ATOM     10  C   UNL     1      34.795 -22.780 -17.490  0.00  0.00    +0.137 C 
ATOM     11  C   UNL     1      36.094 -22.315 -17.699  0.00  0.00    +0.037 C 
ENDROOT
BRANCH   4  12
ATOM     12  C   UNL     1      34.514 -18.724 -22.623  0.00  0.00    +0.006 C 
ATOM     13  C   UNL     1      34.505 -19.228 -23.925  0.00  0.00    +0.003 C 
ATOM     14  C   UNL     1      34.634 -17.350 -22.413  0.00  0.00    +0.003 C 
ATOM     15  C   UNL     1      34.617 -18.361 -25.012  0.00  0.00    +0.037 C 
ATOM     16  C   UNL     1      34.746 -16.482 -23.500  0.00  0.00    +0.037 C 
ATOM     17  C   UNL     1      34.738 -16.988 -24.799  0.00  0.00    +0.134 C 
BRANCH  17  18
ATOM     18  O   UNL     1      34.847 -16.142 -25.860  0.00  0.00    -0.506 OA
ATOM     19  H   UNL     1      34.162 -15.529 -26.041  0.00  0.00    +0.292 HD
ENDBRANCH  17  18
ENDBRANCH   4  12
BRANCH  10  20
ATOM     20  O   UNL     1      34.543 -23.660 -16.483  0.00  0.00    -0.505 OA
ATOM     21  H   UNL     1      33.822 -24.255 -16.550  0.00  0.00    +0.292 HD
ENDBRANCH  10  20
TORSDOF 3
ENDMDL
MODEL 4
REMARK VINA RESULT:      -9.4      1.905      7.260
REMARK  Name = 5281708
REMARK  3 active torsions:
REMARK  status: ('A' for Active; 'I' for Inactive)
REMARK    1  A    between atoms: C_4  and  C_12
REMARK    2  A    between atoms: C_10  and  O_20
REMARK    3  A    between atoms: C_17  and  O_18
REMARK                            x       y       z     vdW  Elec       q    Type
REMARK                         _______ _______ _______ _____ _____    ______ ____
ROOT
ATOM      1  O   UNL     1      34.153 -15.368 -21.815  0.00  0.00    -0.450 OA
ATOM      2  O   UNL     1      34.462 -18.809 -23.986  0.00  0.00    -0.286 OA
ATOM      3  C   UNL     1      34.130 -16.478 -23.973  0.00  0.00    +0.074 C 
ATOM      4  C   UNL     1      34.544 -17.765 -21.848  0.00  0.00    +0.077 C 
ATOM      5  C   UNL     1      34.024 -15.336 -23.180  0.00  0.00    +0.151 C 
ATOM      6  C   UNL     1      34.390 -17.779 -23.328  0.00  0.00    +0.202 C 
ATOM      7  C   UNL     1      34.416 -16.582 -21.228  0.00  0.00    +0.183 C 
ATOM      8  C   UNL     1      33.988 -16.387 -25.360  0.00  0.00    +0.009 C 
ATOM      9  C   UNL     1      33.773 -14.097 -23.768  0.00  0.00    +0.074 C 
ATOM     10  C   UNL     1      33.631 -14.003 -25.153  0.00  0.00    +0.137 C 
ATOM     11  C   UNL     1      33.739 -15.145 -25.947  0.00  0.00    +0.037 C 
ENDROOT
BRANCH   4  12
ATOM     12  C   UNL     1      34.844 -18.987 -21.083  0.00  0.00    +0.006 C 
ATOM     13  C   UNL     1      36.168 -19.322 -20.791  0.00  0.00    +0.003 C 
ATOM     14  C   UNL     1      33.807 -19.811 -20.645  0.00  0.00    +0.003 C 
ATOM     15  C   UNL     1      36.452 -20.479 -20.065  0.00  0.00    +0.037 C 
ATOM     16  C   UNL     1      34.091 -20.968 -19.919  0.00  0.00    +0.037 C 
ATOM     17  C   UNL     1      35.414 -21.302 -19.630  0.00  0.00    +0.134 C 
BRANCH  17  18
ATOM     18  O   UNL     1      35.691 -22.430 -18.921  0.00  0.00    -0.506 OA
ATOM     19  H   UNL     1      36.403 -22.437 -18.312  0.00  0.00    +0.292 HD
ENDBRANCH  17  18
ENDBRANCH   4  12
BRANCH  10  20
ATOM     20  O   UNL     1      33.388 -12.794 -25.731  0.00  0.00    -0.505 OA
ATOM     21  H   UNL     1      32.553 -12.384 -25.625  0.00  0.00    +0.292 HD
ENDBRANCH  10  20
TORSDOF 3
ENDMDL
MODEL 5
REMARK VINA RESULT:      -9.3      5.906     10.316
REMARK  Name = 5281708
REMARK  3 active torsions:
REMARK  status: ('A' for Active; 'I' for Inactive)
REMARK    1  A    between atoms: C_4  and  C_12
REMARK    2  A    between atoms: C_10  and  O_20
REMARK    3  A    between atoms: C_17  and  O_18
REMARK                            x       y       z     vdW  Elec       q    Type
REMARK                         _______ _______ _______ _____ _____    ______ ____
ROOT
ATOM      1  O   UNL     1      31.924 -10.955 -22.082  0.00  0.00    -0.450 OA
ATOM      2  O   UNL     1      34.708 -11.146 -25.058  0.00  0.00    -0.286 OA
ATOM      3  C   UNL     1      33.520  -9.822 -23.516  0.00  0.00    +0.074 C 
ATOM      4  C   UNL     1      33.193 -12.316 -23.642  0.00  0.00    +0.077 C 
ATOM      5  C   UNL     1      32.554  -9.815 -22.511  0.00  0.00    +0.151 C 
ATOM      6  C   UNL     1      33.886 -11.101 -24.152  0.00  0.00    +0.202 C 
ATOM      7  C   UNL     1      32.288 -12.143 -22.667  0.00  0.00    +0.183 C 
ATOM      8  C   UNL     1      34.128  -8.629 -23.915  0.00  0.00    +0.009 C 
ATOM      9  C   UNL     1      32.189  -8.616 -21.899  0.00  0.00    +0.074 C 
ATOM     10  C   UNL     1      32.795  -7.423 -22.295  0.00  0.00    +0.137 C 
ATOM     11  C   UNL     1      33.763  -7.430 -23.300  0.00  0.00    +0.037 C 
ENDROOT
BRANCH   4  12
ATOM     12  C   UNL     1      33.492 -13.660 -24.162  0.00  0.00    +0.006 C 
ATOM     13  C   UNL     1      33.009 -14.051 -25.412  0.00  0.00    +0.003 C 
ATOM     14  C   UNL     1      34.263 -14.547 -23.408  0.00  0.00    +0.003 C 
ATOM     15  C   UNL     1      33.294 -15.325 -25.905  0.00  0.00    +0.037 C 
ATOM     16  C   UNL     1      34.548 -15.821 -23.901  0.00  0.00    +0.037 C 
ATOM     17  C   UNL     1      34.063 -16.209 -25.150  0.00  0.00    +0.134 C 
BRANCH  17  18
ATOM     18  O   UNL     1      34.341 -17.451 -25.631  0.00  0.00    -0.506 OA
ATOM     19  H   UNL     1      34.539 -17.568 -26.539  0.00  0.00    +0.292 HD
ENDBRANCH  17  18
ENDBRANCH   4  12
BRANCH  10  20
ATOM     20  O   UNL     1      32.443  -6.251 -21.699  0.00  0.00    -0.505 OA
ATOM     21  H   UNL     1      31.903  -5.637 -22.156  0.00  0.00    +0.292 HD
ENDBRANCH  10  20
TORSDOF 3
ENDMDL
MODEL 6
REMARK VINA RESULT:      -9.1      2.509      7.276
REMARK  Name = 5281708
REMARK  3 active torsions:
REMARK  status: ('A' for Active; 'I' for Inactive)
REMARK    1  A    between atoms: C_4  and  C_12
REMARK    2  A    between atoms: C_10  and  O_20
REMARK    3  A    between atoms: C_17  and  O_18
REMARK                            x       y       z     vdW  Elec       q    Type
REMARK                         _______ _______ _______ _____ _____    ______ ____
ROOT
ATOM      1  O   UNL     1      35.250 -15.664 -23.441  0.00  0.00    -0.450 OA
ATOM      2  O   UNL     1      32.619 -16.599 -20.465  0.00  0.00    -0.286 OA
ATOM      3  C   UNL     1      33.325 -15.053 -22.095  0.00  0.00    +0.074 C 
ATOM      4  C   UNL     1      34.479 -17.271 -21.791  0.00  0.00    +0.077 C 
ATOM      5  C   UNL     1      34.258 -14.782 -23.095  0.00  0.00    +0.151 C 
ATOM      6  C   UNL     1      33.400 -16.335 -21.371  0.00  0.00    +0.202 C 
ATOM      7  C   UNL     1      35.297 -16.864 -22.774  0.00  0.00    +0.183 C 
ATOM      8  C   UNL     1      32.337 -14.116 -21.783  0.00  0.00    +0.009 C 
ATOM      9  C   UNL     1      34.208 -13.574 -23.790  0.00  0.00    +0.074 C 
ATOM     10  C   UNL     1      33.222 -12.637 -23.481  0.00  0.00    +0.137 C 
ATOM     11  C   UNL     1      32.288 -12.907 -22.480  0.00  0.00    +0.037 C 
ENDROOT
BRANCH   4  12
ATOM     12  C   UNL     1      34.642 -18.600 -21.178  0.00  0.00    +0.006 C 
ATOM     13  C   UNL     1      33.520 -19.369 -20.866  0.00  0.00    +0.003 C 
ATOM     14  C   UNL     1      35.919 -19.095 -20.910  0.00  0.00    +0.003 C 
ATOM     15  C   UNL     1      33.674 -20.629 -20.287  0.00  0.00    +0.037 C 
ATOM     16  C   UNL     1      36.074 -20.354 -20.330  0.00  0.00    +0.037 C 
ATOM     17  C   UNL     1      34.951 -21.121 -20.019  0.00  0.00    +0.134 C 
BRANCH  17  18
ATOM     18  O   UNL     1      35.102 -22.350 -19.454  0.00  0.00    -0.506 OA
ATOM     19  H   UNL     1      35.952 -22.745 -19.412  0.00  0.00    +0.292 HD
ENDBRANCH  17  18
ENDBRANCH   4  12
BRANCH  10  20
ATOM     20  O   UNL     1      33.170 -11.457 -24.157  0.00  0.00    -0.505 OA
ATOM     21  H   UNL     1      33.284 -10.648 -23.699  0.00  0.00    +0.292 HD
ENDBRANCH  10  20
TORSDOF 3
ENDMDL
MODEL 7
REMARK VINA RESULT:      -9.0      4.237      7.155
REMARK  Name = 5281708
REMARK  3 active torsions:
REMARK  status: ('A' for Active; 'I' for Inactive)
REMARK    1  A    between atoms: C_4  and  C_12
REMARK    2  A    between atoms: C_10  and  O_20
REMARK    3  A    between atoms: C_17  and  O_18
REMARK                            x       y       z     vdW  Elec       q    Type
REMARK                         _______ _______ _______ _____ _____    ______ ____
ROOT
ATOM      1  O   UNL     1      33.400 -15.519 -25.629  0.00  0.00    -0.450 OA
ATOM      2  O   UNL     1      34.635 -14.245 -21.954  0.00  0.00    -0.286 OA
ATOM      3  C   UNL     1      34.482 -16.005 -23.512  0.00  0.00    +0.074 C 
ATOM      4  C   UNL     1      33.610 -13.700 -24.033  0.00  0.00    +0.077 C 
ATOM      5  C   UNL     1      34.029 -16.387 -24.774  0.00  0.00    +0.151 C 
ATOM      6  C   UNL     1      34.279 -14.614 -23.067  0.00  0.00    +0.202 C 
ATOM      7  C   UNL     1      33.235 -14.220 -25.211  0.00  0.00    +0.183 C 
ATOM      8  C   UNL     1      35.116 -16.933 -22.682  0.00  0.00    +0.009 C 
ATOM      9  C   UNL     1      34.207 -17.698 -25.213  0.00  0.00    +0.074 C 
ATOM     10  C   UNL     1      34.839 -18.627 -24.387  0.00  0.00    +0.137 C 
ATOM     11  C   UNL     1      35.294 -18.245 -23.124  0.00  0.00    +0.037 C 
ENDROOT
BRANCH   4  12
ATOM     12  C   UNL     1      33.381 -12.278 -23.731  0.00  0.00    +0.006 C 
ATOM     13  C   UNL     1      34.164 -11.297 -24.342  0.00  0.00    +0.003 C 
ATOM     14  C   UNL     1      32.377 -11.905 -22.835  0.00  0.00    +0.003 C 
ATOM     15  C   UNL     1      33.946  -9.949 -24.057  0.00  0.00    +0.037 C 
ATOM     16  C   UNL     1      32.158 -10.557 -22.550  0.00  0.00    +0.037 C 
ATOM     17  C   UNL     1      32.943  -9.579 -23.162  0.00  0.00    +0.134 C 
BRANCH  17  18
ATOM     18  O   UNL     1      32.729  -8.264 -22.884  0.00  0.00    -0.506 OA
ATOM     19  H   UNL     1      33.393  -7.631 -23.077  0.00  0.00    +0.292 HD
ENDBRANCH  17  18
ENDBRANCH   4  12
BRANCH  10  20
ATOM     20  O   UNL     1      35.016 -19.908 -24.813  0.00  0.00    -0.505 OA
ATOM     21  H   UNL     1      34.277 -20.475 -24.912  0.00  0.00    +0.292 HD
ENDBRANCH  10  20
TORSDOF 3
ENDMDL
MODEL 8
REMARK VINA RESULT:      -8.8      7.032      9.736
REMARK  Name = 5281708
REMARK  3 active torsions:
REMARK  status: ('A' for Active; 'I' for Inactive)
REMARK    1  A    between atoms: C_4  and  C_12
REMARK    2  A    between atoms: C_10  and  O_20
REMARK    3  A    between atoms: C_17  and  O_18
REMARK                            x       y       z     vdW  Elec       q    Type
REMARK                         _______ _______ _______ _____ _____    ______ ____
ROOT
ATOM      1  O   UNL     1      33.197 -23.157 -16.995  0.00  0.00    -0.450 OA
ATOM      2  O   UNL     1      33.308 -24.439 -13.123  0.00  0.00    -0.286 OA
ATOM      3  C   UNL     1      32.037 -23.566 -14.903  0.00  0.00    +0.074 C 
ATOM      4  C   UNL     1      34.483 -24.105 -15.167  0.00  0.00    +0.077 C 
ATOM      5  C   UNL     1      32.061 -23.130 -16.228  0.00  0.00    +0.151 C 
ATOM      6  C   UNL     1      33.279 -24.075 -14.292  0.00  0.00    +0.202 C 
ATOM      7  C   UNL     1      34.343 -23.653 -16.422  0.00  0.00    +0.183 C 
ATOM      8  C   UNL     1      30.851 -23.514 -14.167  0.00  0.00    +0.009 C 
ATOM      9  C   UNL     1      30.899 -22.641 -16.824  0.00  0.00    +0.074 C 
ATOM     10  C   UNL     1      29.713 -22.588 -16.092  0.00  0.00    +0.137 C 
ATOM     11  C   UNL     1      29.689 -23.025 -14.767  0.00  0.00    +0.037 C 
ENDROOT
BRANCH   4  12
ATOM     12  C   UNL     1      35.777 -24.625 -14.695  0.00  0.00    +0.006 C 
ATOM     13  C   UNL     1      36.194 -25.905 -15.065  0.00  0.00    +0.003 C 
ATOM     14  C   UNL     1      36.592 -23.839 -13.878  0.00  0.00    +0.003 C 
ATOM     15  C   UNL     1      37.421 -26.397 -14.620  0.00  0.00    +0.037 C 
ATOM     16  C   UNL     1      37.819 -24.332 -13.433  0.00  0.00    +0.037 C 
ATOM     17  C   UNL     1      38.233 -25.611 -13.803  0.00  0.00    +0.134 C 
BRANCH  17  18
ATOM     18  O   UNL     1      39.430 -26.091 -13.369  0.00  0.00    -0.506 OA
ATOM     19  H   UNL     1      39.462 -26.875 -12.857  0.00  0.00    +0.292 HD
ENDBRANCH  17  18
ENDBRANCH   4  12
BRANCH  10  20
ATOM     20  O   UNL     1      28.577 -22.112 -16.671  0.00  0.00    -0.505 OA
ATOM     21  H   UNL     1      27.764 -22.562 -16.547  0.00  0.00    +0.292 HD
ENDBRANCH  10  20
TORSDOF 3
ENDMDL
MODEL 9
REMARK VINA RESULT:      -8.8      7.260     10.300
REMARK  Name = 5281708
REMARK  3 active torsions:
REMARK  status: ('A' for Active; 'I' for Inactive)
REMARK    1  A    between atoms: C_4  and  C_12
REMARK    2  A    between atoms: C_10  and  O_20
REMARK    3  A    between atoms: C_17  and  O_18
REMARK                            x       y       z     vdW  Elec       q    Type
REMARK                         _______ _______ _______ _____ _____    ______ ____
ROOT
ATOM      1  O   UNL     1      33.685 -11.278 -24.268  0.00  0.00    -0.450 OA
ATOM      2  O   UNL     1      31.148 -10.882 -21.096  0.00  0.00    -0.286 OA
ATOM      3  C   UNL     1      32.464 -12.302 -22.437  0.00  0.00    +0.074 C 
ATOM      4  C   UNL     1      32.363  -9.819 -22.846  0.00  0.00    +0.077 C 
ATOM      5  C   UNL     1      33.319 -12.379 -23.536  0.00  0.00    +0.151 C 
ATOM      6  C   UNL     1      31.924 -10.989 -22.037  0.00  0.00    +0.202 C 
ATOM      7  C   UNL     1      33.192 -10.058 -23.873  0.00  0.00    +0.183 C 
ATOM      8  C   UNL     1      32.124 -13.457 -21.728  0.00  0.00    +0.009 C 
ATOM      9  C   UNL     1      33.837 -13.611 -23.933  0.00  0.00    +0.074 C 
ATOM     10  C   UNL     1      33.499 -14.766 -23.228  0.00  0.00    +0.137 C 
ATOM     11  C   UNL     1      32.645 -14.689 -22.128  0.00  0.00    +0.037 C 
ENDROOT
BRANCH   4  12
ATOM     12  C   UNL     1      31.930  -8.447 -22.532  0.00  0.00    +0.006 C 
ATOM     13  C   UNL     1      32.379  -7.820 -21.369  0.00  0.00    +0.003 C 
ATOM     14  C   UNL     1      31.071  -7.768 -23.398  0.00  0.00    +0.003 C 
ATOM     15  C   UNL     1      31.971  -6.520 -21.072  0.00  0.00    +0.037 C 
ATOM     16  C   UNL     1      30.662  -6.468 -23.101  0.00  0.00    +0.037 C 
ATOM     17  C   UNL     1      31.112  -5.844 -21.938  0.00  0.00    +0.134 C 
BRANCH  17  18
ATOM     18  O   UNL     1      30.713  -4.575 -21.649  0.00  0.00    -0.506 OA
ATOM     19  H   UNL     1      31.352  -3.909 -21.486  0.00  0.00    +0.292 HD
ENDBRANCH  17  18
ENDBRANCH   4  12
BRANCH  10  20
ATOM     20  O   UNL     1      34.005 -15.970 -23.613  0.00  0.00    -0.505 OA
ATOM     21  H   UNL     1      33.982 -16.697 -23.023  0.00  0.00    +0.292 HD
ENDBRANCH  10  20
TORSDOF 3
ENDMDL
