MODEL 1
REMARK VINA RESULT:      -9.4      0.000      0.000
REMARK  Name = 46937163
REMARK  5 active torsions:
REMARK  status: ('A' for Active; 'I' for Inactive)
REMARK    1  A    between atoms: C_1  and  C_10
REMARK    2  A    between atoms: C_2  and  O_16
REMARK    3  A    between atoms: O_16  and  C_17
REMARK    4  A    between atoms: C_17  and  C_18
REMARK    5  A    between atoms: C_18  and  O_19
REMARK                            x       y       z     vdW  Elec       q    Type
REMARK                         _______ _______ _______ _____ _____    ______ ____
ROOT
ATOM      1  C   UNL     1      34.705 -18.467 -22.518  0.00  0.00    +0.036 C 
ATOM      2  C   UNL     1      34.874 -17.111 -22.241  0.00  0.00    +0.139 C 
ATOM      3  C   UNL     1      34.630 -18.904 -23.841  0.00  0.00    +0.003 C 
ATOM      4  C   UNL     1      34.967 -16.191 -23.285  0.00  0.00    +0.037 C 
ATOM      5  C   UNL     1      34.723 -17.984 -24.886  0.00  0.00    +0.000 C 
ATOM      6  C   UNL     1      34.892 -16.628 -24.609  0.00  0.00    +0.003 C 
ENDROOT
BRANCH   1  10
ATOM      7  F   UNL     1      36.972 -19.494 -21.214  0.00  0.00    -0.202 F 
ATOM      8  F   UNL     1      36.768 -21.320 -19.206  0.00  0.00    -0.199 F 
ATOM      9  F   UNL     1      34.311 -22.210 -18.402  0.00  0.00    -0.202 F 
ATOM     10  C   UNL     1      34.606 -19.439 -21.448  0.00  0.00    +0.033 C 
ATOM     11  C   UNL     1      35.760 -19.921 -20.830  0.00  0.00    +0.170 C 
ATOM     12  C   UNL     1      33.353 -19.894 -21.037  0.00  0.00    +0.005 C 
ATOM     13  C   UNL     1      35.660 -20.857 -19.800  0.00  0.00    +0.195 C 
ATOM     14  C   UNL     1      33.253 -20.829 -20.009  0.00  0.00    +0.032 C 
ATOM     15  C   UNL     1      34.408 -21.311 -19.389  0.00  0.00    +0.170 C 
ENDBRANCH   1  10
BRANCH   2  16
ATOM     16  O   UNL     1      34.952 -16.656 -20.957  0.00  0.00    -0.473 OA
BRANCH  16  17
ATOM     17  C   UNL     1      34.290 -15.427 -20.667  0.00  0.00    +0.237 C 
BRANCH  17  18
ATOM     18  C   UNL     1      32.794 -15.669 -20.623  0.00  0.00    +0.185 C 
BRANCH  18  19
ATOM     19  O   UNL     1      32.170 -14.907 -21.652  0.00  0.00    -0.378 OA
ATOM     20  H   UNL     1      31.486 -14.339 -21.263  0.00  0.00    +0.211 HD
ENDBRANCH  18  19
ENDBRANCH  17  18
ENDBRANCH  16  17
ENDBRANCH   2  16
TORSDOF 5
ENDMDL
MODEL 2
REMARK VINA RESULT:      -9.1      1.193      1.802
REMARK  Name = 46937163
REMARK  5 active torsions:
REMARK  status: ('A' for Active; 'I' for Inactive)
REMARK    1  A    between atoms: C_1  and  C_10
REMARK    2  A    between atoms: C_2  and  O_16
REMARK    3  A    between atoms: O_16  and  C_17
REMARK    4  A    between atoms: C_17  and  C_18
REMARK    5  A    between atoms: C_18  and  O_19
REMARK                            x       y       z     vdW  Elec       q    Type
REMARK                         _______ _______ _______ _____ _____    ______ ____
ROOT
ATOM      1  C   UNL     1      34.910 -18.641 -22.443  0.00  0.00    +0.036 C 
ATOM      2  C   UNL     1      34.840 -17.268 -22.206  0.00  0.00    +0.139 C 
ATOM      3  C   UNL     1      34.863 -19.125 -23.750  0.00  0.00    +0.003 C 
ATOM      4  C   UNL     1      34.723 -16.380 -23.275  0.00  0.00    +0.037 C 
ATOM      5  C   UNL     1      34.747 -18.237 -24.820  0.00  0.00    +0.000 C 
ATOM      6  C   UNL     1      34.677 -16.865 -24.582  0.00  0.00    +0.003 C 
ENDROOT
BRANCH   1  10
ATOM      7  F   UNL     1      32.669 -19.835 -21.239  0.00  0.00    -0.202 F 
ATOM      8  F   UNL     1      32.915 -21.597 -19.180  0.00  0.00    -0.199 F 
ATOM      9  F   UNL     1      35.390 -22.254 -18.221  0.00  0.00    -0.202 F 
ATOM     10  C   UNL     1      35.031 -19.580 -21.346  0.00  0.00    +0.033 C 
ATOM     11  C   UNL     1      33.890 -20.148 -20.780  0.00  0.00    +0.170 C 
ATOM     12  C   UNL     1      36.293 -19.916 -20.857  0.00  0.00    +0.005 C 
ATOM     13  C   UNL     1      34.011 -21.052 -19.724  0.00  0.00    +0.195 C 
ATOM     14  C   UNL     1      36.415 -20.819 -19.802  0.00  0.00    +0.032 C 
ATOM     15  C   UNL     1      35.273 -21.388 -19.235  0.00  0.00    +0.170 C 
ENDBRANCH   1  10
BRANCH   2  16
ATOM     16  O   UNL     1      34.884 -16.767 -20.938  0.00  0.00    -0.473 OA
BRANCH  16  17
ATOM     17  C   UNL     1      34.517 -15.399 -20.771  0.00  0.00    +0.237 C 
BRANCH  17  18
ATOM     18  C   UNL     1      33.047 -15.321 -20.407  0.00  0.00    +0.185 C 
BRANCH  18  19
ATOM     19  O   UNL     1      32.341 -14.675 -21.460  0.00  0.00    -0.378 OA
ATOM     20  H   UNL     1      32.739 -13.806 -21.630  0.00  0.00    +0.211 HD
ENDBRANCH  18  19
ENDBRANCH  17  18
ENDBRANCH  16  17
ENDBRANCH   2  16
TORSDOF 5
ENDMDL
MODEL 3
REMARK VINA RESULT:      -8.4      1.934      3.523
REMARK  Name = 46937163
REMARK  5 active torsions:
REMARK  status: ('A' for Active; 'I' for Inactive)
REMARK    1  A    between atoms: C_1  and  C_10
REMARK    2  A    between atoms: C_2  and  O_16
REMARK    3  A    between atoms: O_16  and  C_17
REMARK    4  A    between atoms: C_17  and  C_18
REMARK    5  A    between atoms: C_18  and  O_19
REMARK                            x       y       z     vdW  Elec       q    Type
REMARK                         _______ _______ _______ _____ _____    ______ ____
ROOT
ATOM      1  C   UNL     1      34.789 -16.900 -21.523  0.00  0.00    +0.036 C 
ATOM      2  C   UNL     1      34.956 -16.521 -22.855  0.00  0.00    +0.139 C 
ATOM      3  C   UNL     1      34.366 -15.963 -20.580  0.00  0.00    +0.003 C 
ATOM      4  C   UNL     1      34.702 -15.206 -23.243  0.00  0.00    +0.037 C 
ATOM      5  C   UNL     1      34.112 -14.648 -20.968  0.00  0.00    +0.000 C 
ATOM      6  C   UNL     1      34.279 -14.269 -22.299  0.00  0.00    +0.003 C 
ENDROOT
BRANCH   1  10
ATOM      7  F   UNL     1      32.717 -18.706 -20.940  0.00  0.00    -0.202 F 
ATOM      8  F   UNL     1      33.221 -21.259 -20.143  0.00  0.00    -0.199 F 
ATOM      9  F   UNL     1      35.798 -22.137 -19.888  0.00  0.00    -0.202 F 
ATOM     10  C   UNL     1      35.048 -18.261 -21.099  0.00  0.00    +0.033 C 
ATOM     11  C   UNL     1      33.987 -19.122 -20.820  0.00  0.00    +0.170 C 
ATOM     12  C   UNL     1      36.363 -18.710 -20.969  0.00  0.00    +0.005 C 
ATOM     13  C   UNL     1      34.240 -20.432 -20.411  0.00  0.00    +0.195 C 
ATOM     14  C   UNL     1      36.616 -20.018 -20.560  0.00  0.00    +0.032 C 
ATOM     15  C   UNL     1      35.554 -20.880 -20.281  0.00  0.00    +0.170 C 
ENDBRANCH   1  10
BRANCH   2  16
ATOM     16  O   UNL     1      35.368 -17.416 -23.799  0.00  0.00    -0.473 OA
BRANCH  16  17
ATOM     17  C   UNL     1      34.565 -17.533 -24.971  0.00  0.00    +0.237 C 
BRANCH  17  18
ATOM     18  C   UNL     1      34.129 -18.977 -25.129  0.00  0.00    +0.185 C 
BRANCH  18  19
ATOM     19  O   UNL     1      34.921 -19.797 -24.277  0.00  0.00    -0.378 OA
ATOM     20  H   UNL     1      34.364 -20.162 -23.571  0.00  0.00    +0.211 HD
ENDBRANCH  18  19
ENDBRANCH  17  18
ENDBRANCH  16  17
ENDBRANCH   2  16
TORSDOF 5
ENDMDL
MODEL 4
REMARK VINA RESULT:      -8.3      1.693      3.069
REMARK  Name = 46937163
REMARK  5 active torsions:
REMARK  status: ('A' for Active; 'I' for Inactive)
REMARK    1  A    between atoms: C_1  and  C_10
REMARK    2  A    between atoms: C_2  and  O_16
REMARK    3  A    between atoms: O_16  and  C_17
REMARK    4  A    between atoms: C_17  and  C_18
REMARK    5  A    between atoms: C_18  and  O_19
REMARK                            x       y       z     vdW  Elec       q    Type
REMARK                         _______ _______ _______ _____ _____    ______ ____
ROOT
ATOM      1  C   UNL     1      34.531 -17.128 -21.573  0.00  0.00    +0.036 C 
ATOM      2  C   UNL     1      34.887 -16.836 -22.889  0.00  0.00    +0.139 C 
ATOM      3  C   UNL     1      34.146 -16.101 -20.710  0.00  0.00    +0.003 C 
ATOM      4  C   UNL     1      34.860 -15.517 -23.342  0.00  0.00    +0.037 C 
ATOM      5  C   UNL     1      34.120 -14.783 -21.163  0.00  0.00    +0.000 C 
ATOM      6  C   UNL     1      34.476 -14.490 -22.480  0.00  0.00    +0.003 C 
ENDROOT
BRANCH   1  10
ATOM      7  F   UNL     1      36.929 -18.531 -21.151  0.00  0.00    -0.202 F 
ATOM      8  F   UNL     1      36.949 -21.091 -20.228  0.00  0.00    -0.199 F 
ATOM      9  F   UNL     1      34.598 -22.376 -19.683  0.00  0.00    -0.202 F 
ATOM     10  C   UNL     1      34.552 -18.491 -21.081  0.00  0.00    +0.033 C 
ATOM     11  C   UNL     1      35.767 -19.148 -20.887  0.00  0.00    +0.170 C 
ATOM     12  C   UNL     1      33.352 -19.147 -20.803  0.00  0.00    +0.005 C 
ATOM     13  C   UNL     1      35.782 -20.461 -20.415  0.00  0.00    +0.195 C 
ATOM     14  C   UNL     1      33.368 -20.459 -20.331  0.00  0.00    +0.032 C 
ATOM     15  C   UNL     1      34.584 -21.116 -20.136  0.00  0.00    +0.170 C 
ENDBRANCH   1  10
BRANCH   2  16
ATOM     16  O   UNL     1      35.266 -17.820 -23.754  0.00  0.00    -0.473 OA
BRANCH  16  17
ATOM     17  C   UNL     1      34.627 -17.840 -25.029  0.00  0.00    +0.237 C 
BRANCH  17  18
ATOM     18  C   UNL     1      33.955 -19.185 -25.224  0.00  0.00    +0.185 C 
BRANCH  18  19
ATOM     19  O   UNL     1      34.910 -20.218 -25.008  0.00  0.00    -0.378 OA
ATOM     20  H   UNL     1      34.607 -21.033 -25.438  0.00  0.00    +0.211 HD
ENDBRANCH  18  19
ENDBRANCH  17  18
ENDBRANCH  16  17
ENDBRANCH   2  16
TORSDOF 5
ENDMDL
MODEL 5
REMARK VINA RESULT:      -8.0      5.502      7.639
REMARK  Name = 46937163
REMARK  5 active torsions:
REMARK  status: ('A' for Active; 'I' for Inactive)
REMARK    1  A    between atoms: C_1  and  C_10
REMARK    2  A    between atoms: C_2  and  O_16
REMARK    3  A    between atoms: O_16  and  C_17
REMARK    4  A    between atoms: C_17  and  C_18
REMARK    5  A    between atoms: C_18  and  O_19
REMARK                            x       y       z     vdW  Elec       q    Type
REMARK                         _______ _______ _______ _____ _____    ______ ____
ROOT
ATOM      1  C   UNL     1      33.467 -13.890 -24.098  0.00  0.00    +0.036 C 
ATOM      2  C   UNL     1      34.260 -14.748 -23.336  0.00  0.00    +0.139 C 
ATOM      3  C   UNL     1      33.055 -14.272 -25.375  0.00  0.00    +0.003 C 
ATOM      4  C   UNL     1      34.641 -15.987 -23.851  0.00  0.00    +0.037 C 
ATOM      5  C   UNL     1      33.436 -15.511 -25.890  0.00  0.00    +0.000 C 
ATOM      6  C   UNL     1      34.229 -16.369 -25.128  0.00  0.00    +0.003 C 
ENDROOT
BRANCH   1  10
ATOM      7  F   UNL     1      34.636 -11.490 -24.979  0.00  0.00    -0.202 F 
ATOM      8  F   UNL     1      33.859  -9.073 -23.999  0.00  0.00    -0.199 F 
ATOM      9  F   UNL     1      31.894  -8.924 -22.104  0.00  0.00    -0.202 F 
ATOM     10  C   UNL     1      33.060 -12.598 -23.583  0.00  0.00    +0.033 C 
ATOM     11  C   UNL     1      33.669 -11.433 -24.050  0.00  0.00    +0.170 C 
ATOM     12  C   UNL     1      32.057 -12.521 -22.616  0.00  0.00    +0.005 C 
ATOM     13  C   UNL     1      33.275 -10.192 -23.550  0.00  0.00    +0.195 C 
ATOM     14  C   UNL     1      31.663 -11.281 -22.117  0.00  0.00    +0.032 C 
ATOM     15  C   UNL     1      32.272 -10.115 -22.585  0.00  0.00    +0.170 C 
ENDBRANCH   1  10
BRANCH   2  16
ATOM     16  O   UNL     1      34.677 -14.400 -22.085  0.00  0.00    -0.473 OA
BRANCH  16  17
ATOM     17  C   UNL     1      34.435 -15.340 -21.039  0.00  0.00    +0.237 C 
BRANCH  17  18
ATOM     18  C   UNL     1      33.102 -15.024 -20.389  0.00  0.00    +0.185 C 
BRANCH  18  19
ATOM     19  O   UNL     1      32.081 -15.775 -21.036  0.00  0.00    -0.378 OA
ATOM     20  H   UNL     1      31.487 -15.172 -21.510  0.00  0.00    +0.211 HD
ENDBRANCH  18  19
ENDBRANCH  17  18
ENDBRANCH  16  17
ENDBRANCH   2  16
TORSDOF 5
ENDMDL
MODEL 6
REMARK VINA RESULT:      -8.0      5.539      8.007
REMARK  Name = 46937163
REMARK  5 active torsions:
REMARK  status: ('A' for Active; 'I' for Inactive)
REMARK    1  A    between atoms: C_1  and  C_10
REMARK    2  A    between atoms: C_2  and  O_16
REMARK    3  A    between atoms: O_16  and  C_17
REMARK    4  A    between atoms: C_17  and  C_18
REMARK    5  A    between atoms: C_18  and  O_19
REMARK                            x       y       z     vdW  Elec       q    Type
REMARK                         _______ _______ _______ _____ _____    ______ ____
ROOT
ATOM      1  C   UNL     1      33.596 -14.160 -23.076  0.00  0.00    +0.036 C 
ATOM      2  C   UNL     1      33.398 -14.844 -24.276  0.00  0.00    +0.139 C 
ATOM      3  C   UNL     1      34.389 -14.723 -22.076  0.00  0.00    +0.003 C 
ATOM      4  C   UNL     1      33.992 -16.091 -24.474  0.00  0.00    +0.037 C 
ATOM      5  C   UNL     1      34.982 -15.970 -22.274  0.00  0.00    +0.000 C 
ATOM      6  C   UNL     1      34.785 -16.654 -23.474  0.00  0.00    +0.003 C 
ENDROOT
BRANCH   1  10
ATOM      7  F   UNL     1      34.403 -11.863 -24.478  0.00  0.00    -0.202 F 
ATOM      8  F   UNL     1      33.251  -9.436 -24.039  0.00  0.00    -0.199 F 
ATOM      9  F   UNL     1      31.252  -9.177 -22.192  0.00  0.00    -0.202 F 
ATOM     10  C   UNL     1      32.989 -12.865 -22.849  0.00  0.00    +0.033 C 
ATOM     11  C   UNL     1      33.422 -11.751 -23.569  0.00  0.00    +0.170 C 
ATOM     12  C   UNL     1      31.969 -12.732 -21.907  0.00  0.00    +0.005 C 
ATOM     13  C   UNL     1      32.835 -10.505 -23.347  0.00  0.00    +0.195 C 
ATOM     14  C   UNL     1      31.382 -11.487 -21.685  0.00  0.00    +0.032 C 
ATOM     15  C   UNL     1      31.815 -10.372 -22.406  0.00  0.00    +0.170 C 
ENDBRANCH   1  10
BRANCH   2  16
ATOM     16  O   UNL     1      32.629 -14.318 -25.271  0.00  0.00    -0.473 OA
BRANCH  16  17
ATOM     17  C   UNL     1      33.049 -14.564 -26.611  0.00  0.00    +0.237 C 
BRANCH  17  18
ATOM     18  C   UNL     1      33.270 -13.237 -27.312  0.00  0.00    +0.185 C 
BRANCH  18  19
ATOM     19  O   UNL     1      34.476 -13.304 -28.064  0.00  0.00    -0.378 OA
ATOM     20  H   UNL     1      34.910 -14.156 -27.902  0.00  0.00    +0.211 HD
ENDBRANCH  18  19
ENDBRANCH  17  18
ENDBRANCH  16  17
ENDBRANCH   2  16
TORSDOF 5
ENDMDL
MODEL 7
REMARK VINA RESULT:      -7.9      9.018     11.732
REMARK  Name = 46937163
REMARK  5 active torsions:
REMARK  status: ('A' for Active; 'I' for Inactive)
REMARK    1  A    between atoms: C_1  and  C_10
REMARK    2  A    between atoms: C_2  and  O_16
REMARK    3  A    between atoms: O_16  and  C_17
REMARK    4  A    between atoms: C_17  and  C_18
REMARK    5  A    between atoms: C_18  and  O_19
REMARK                            x       y       z     vdW  Elec       q    Type
REMARK                         _______ _______ _______ _____ _____    ______ ____
ROOT
ATOM      1  C   UNL     1      32.340  -9.071 -21.742  0.00  0.00    +0.036 C 
ATOM      2  C   UNL     1      32.067 -10.403 -22.054  0.00  0.00    +0.139 C 
ATOM      3  C   UNL     1      32.179  -8.615 -20.433  0.00  0.00    +0.003 C 
ATOM      4  C   UNL     1      31.632 -11.278 -21.059  0.00  0.00    +0.037 C 
ATOM      5  C   UNL     1      31.743  -9.490 -19.438  0.00  0.00    +0.000 C 
ATOM      6  C   UNL     1      31.470 -10.822 -19.751  0.00  0.00    +0.003 C 
ENDROOT
BRANCH   1  10
ATOM      7  F   UNL     1      30.567  -7.405 -23.148  0.00  0.00    -0.202 F 
ATOM      8  F   UNL     1      31.436  -5.674 -25.059  0.00  0.00    -0.199 F 
ATOM      9  F   UNL     1      34.098  -5.515 -25.663  0.00  0.00    -0.202 F 
ATOM     10  C   UNL     1      32.794  -8.146 -22.761  0.00  0.00    +0.033 C 
ATOM     11  C   UNL     1      31.876  -7.338 -23.433  0.00  0.00    +0.170 C 
ATOM     12  C   UNL     1      34.152  -8.065 -23.069  0.00  0.00    +0.005 C 
ATOM     13  C   UNL     1      32.317  -6.449 -24.413  0.00  0.00    +0.195 C 
ATOM     14  C   UNL     1      34.592  -7.176 -24.049  0.00  0.00    +0.032 C 
ATOM     15  C   UNL     1      33.674  -6.367 -24.721  0.00  0.00    +0.170 C 
ENDBRANCH   1  10
BRANCH   2  16
ATOM     16  O   UNL     1      32.217 -10.876 -23.325  0.00  0.00    -0.473 OA
BRANCH  16  17
ATOM     17  C   UNL     1      33.270 -11.814 -23.545  0.00  0.00    +0.237 C 
BRANCH  17  18
ATOM     18  C   UNL     1      33.880 -11.560 -24.910  0.00  0.00    +0.185 C 
BRANCH  18  19
ATOM     19  O   UNL     1      35.093 -10.834 -24.748  0.00  0.00    -0.378 OA
ATOM     20  H   UNL     1      35.746 -11.392 -24.297  0.00  0.00    +0.211 HD
ENDBRANCH  18  19
ENDBRANCH  17  18
ENDBRANCH  16  17
ENDBRANCH   2  16
TORSDOF 5
ENDMDL
MODEL 8
REMARK VINA RESULT:      -7.8      5.463      7.939
REMARK  Name = 46937163
REMARK  5 active torsions:
REMARK  status: ('A' for Active; 'I' for Inactive)
REMARK    1  A    between atoms: C_1  and  C_10
REMARK    2  A    between atoms: C_2  and  O_16
REMARK    3  A    between atoms: O_16  and  C_17
REMARK    4  A    between atoms: C_17  and  C_18
REMARK    5  A    between atoms: C_18  and  O_19
REMARK                            x       y       z     vdW  Elec       q    Type
REMARK                         _______ _______ _______ _____ _____    ______ ____
ROOT
ATOM      1  C   UNL     1      33.570 -13.526 -24.396  0.00  0.00    +0.036 C 
ATOM      2  C   UNL     1      34.153 -14.480 -23.563  0.00  0.00    +0.139 C 
ATOM      3  C   UNL     1      33.114 -13.892 -25.663  0.00  0.00    +0.003 C 
ATOM      4  C   UNL     1      34.282 -15.800 -23.997  0.00  0.00    +0.037 C 
ATOM      5  C   UNL     1      33.243 -15.211 -26.097  0.00  0.00    +0.000 C 
ATOM      6  C   UNL     1      33.826 -16.165 -25.264  0.00  0.00    +0.003 C 
ENDROOT
BRANCH   1  10
ATOM      7  F   UNL     1      31.628 -12.738 -22.523  0.00  0.00    -0.202 F 
ATOM      8  F   UNL     1      31.372 -10.149 -21.725  0.00  0.00    -0.199 F 
ATOM      9  F   UNL     1      33.026  -8.226 -22.746  0.00  0.00    -0.202 F 
ATOM     10  C   UNL     1      33.426 -12.150 -23.965  0.00  0.00    +0.033 C 
ATOM     11  C   UNL     1      32.448 -11.806 -23.032  0.00  0.00    +0.170 C 
ATOM     12  C   UNL     1      34.270 -11.168 -24.485  0.00  0.00    +0.005 C 
ATOM     13  C   UNL     1      32.312 -10.480 -22.621  0.00  0.00    +0.195 C 
ATOM     14  C   UNL     1      34.134  -9.843 -24.074  0.00  0.00    +0.032 C 
ATOM     15  C   UNL     1      33.155  -9.498 -23.140  0.00  0.00    +0.170 C 
ENDBRANCH   1  10
BRANCH   2  16
ATOM     16  O   UNL     1      34.607 -14.151 -22.320  0.00  0.00    -0.473 OA
BRANCH  16  17
ATOM     17  C   UNL     1      34.407 -15.111 -21.284  0.00  0.00    +0.237 C 
BRANCH  17  18
ATOM     18  C   UNL     1      33.103 -14.806 -20.572  0.00  0.00    +0.185 C 
BRANCH  18  19
ATOM     19  O   UNL     1      32.081 -15.645 -21.097  0.00  0.00    -0.378 OA
ATOM     20  H   UNL     1      32.483 -16.426 -21.509  0.00  0.00    +0.211 HD
ENDBRANCH  18  19
ENDBRANCH  17  18
ENDBRANCH  16  17
ENDBRANCH   2  16
TORSDOF 5
ENDMDL
MODEL 9
REMARK VINA RESULT:      -7.8      4.639      6.878
REMARK  Name = 46937163
REMARK  5 active torsions:
REMARK  status: ('A' for Active; 'I' for Inactive)
REMARK    1  A    between atoms: C_1  and  C_10
REMARK    2  A    between atoms: C_2  and  O_16
REMARK    3  A    between atoms: O_16  and  C_17
REMARK    4  A    between atoms: C_17  and  C_18
REMARK    5  A    between atoms: C_18  and  O_19
REMARK                            x       y       z     vdW  Elec       q    Type
REMARK                         _______ _______ _______ _____ _____    ______ ____
ROOT
ATOM      1  C   UNL     1      32.910 -12.741 -23.298  0.00  0.00    +0.036 C 
ATOM      2  C   UNL     1      33.322 -11.500 -23.785  0.00  0.00    +0.139 C 
ATOM      3  C   UNL     1      31.984 -12.809 -22.257  0.00  0.00    +0.003 C 
ATOM      4  C   UNL     1      32.809 -10.328 -23.230  0.00  0.00    +0.037 C 
ATOM      5  C   UNL     1      31.471 -11.636 -21.703  0.00  0.00    +0.000 C 
ATOM      6  C   UNL     1      31.883 -10.396 -22.189  0.00  0.00    +0.003 C 
ENDROOT
BRANCH   1  10
ATOM      7  F   UNL     1      34.776 -14.339 -21.934  0.00  0.00    -0.202 F 
ATOM      8  F   UNL     1      35.744 -16.645 -23.005  0.00  0.00    -0.199 F 
ATOM      9  F   UNL     1      34.910 -17.471 -25.474  0.00  0.00    -0.202 F 
ATOM     10  C   UNL     1      33.431 -13.970 -23.861  0.00  0.00    +0.033 C 
ATOM     11  C   UNL     1      34.356 -14.731 -23.146  0.00  0.00    +0.170 C 
ATOM     12  C   UNL     1      33.006 -14.393 -25.120  0.00  0.00    +0.005 C 
ATOM     13  C   UNL     1      34.856 -15.914 -23.691  0.00  0.00    +0.195 C 
ATOM     14  C   UNL     1      33.505 -15.575 -25.665  0.00  0.00    +0.032 C 
ATOM     15  C   UNL     1      34.430 -16.337 -24.950  0.00  0.00    +0.170 C 
ENDBRANCH   1  10
BRANCH   2  16
ATOM     16  O   UNL     1      34.226 -11.404 -24.802  0.00  0.00    -0.473 OA
BRANCH  16  17
ATOM     17  C   UNL     1      35.048 -10.239 -24.827  0.00  0.00    +0.237 C 
BRANCH  17  18
ATOM     18  C   UNL     1      35.776 -10.176 -26.156  0.00  0.00    +0.185 C 
BRANCH  18  19
ATOM     19  O   UNL     1      35.273 -11.198 -27.009  0.00  0.00    -0.378 OA
ATOM     20  H   UNL     1      34.337 -11.356 -26.807  0.00  0.00    +0.211 HD
ENDBRANCH  18  19
ENDBRANCH  17  18
ENDBRANCH  16  17
ENDBRANCH   2  16
TORSDOF 5
ENDMDL
