MODEL 1
REMARK VINA RESULT:      -8.0      0.000      0.000
REMARK  Name = 8754
REMARK  13 active torsions:
REMARK  status: ('A' for Active; 'I' for Inactive)
REMARK    1  A    between atoms: C_1  and  N_2
REMARK    2  A    between atoms: C_1  and  C_12
REMARK    3  A    between atoms: N_2  and  C_5
REMARK    4  A    between atoms: C_5  and  C_6
REMARK    5  A    between atoms: C_12  and  C_13
REMARK    6  A    between atoms: C_13  and  C_14
REMARK    7  A    between atoms: C_14  and  C_15
REMARK    8  A    between atoms: C_15  and  C_16
REMARK    9  A    between atoms: C_16  and  C_17
REMARK   10  A    between atoms: C_17  and  C_18
REMARK   11  A    between atoms: C_18  and  C_19
REMARK   12  A    between atoms: C_19  and  C_20
REMARK   13  A    between atoms: C_20  and  C_21
REMARK                            x       y       z     vdW  Elec       q    Type
REMARK                         _______ _______ _______ _____ _____    ______ ____
ROOT
ATOM      1  C   UNL     1      34.770 -17.062 -21.018  0.00  0.00    -0.073 C 
ENDROOT
BRANCH   1   2
ATOM      2  N   UNL     1      35.150 -17.775 -22.259  0.00  0.00    +0.390 N 
ATOM      3  C   UNL     1      36.618 -18.222 -22.207  0.00  0.00    -0.095 C 
ATOM      4  C   UNL     1      34.974 -16.868 -23.487  0.00  0.00    -0.095 C 
BRANCH   2   5
ATOM      5  C   UNL     1      34.279 -19.024 -22.462  0.00  0.00    -0.046 C 
BRANCH   5   6
ATOM      6  C   UNL     1      34.273 -19.936 -21.272  0.00  0.00    -0.043 C 
ATOM      7  C   UNL     1      35.473 -20.454 -20.783  0.00  0.00    -0.006 C 
ATOM      8  C   UNL     1      33.068 -20.266 -20.652  0.00  0.00    -0.006 C 
ATOM      9  C   UNL     1      35.468 -21.301 -19.676  0.00  0.00    -0.000 C 
ATOM     10  C   UNL     1      33.063 -21.115 -19.544  0.00  0.00    -0.000 C 
ATOM     11  C   UNL     1      34.262 -21.632 -19.057  0.00  0.00    -0.000 C 
ENDBRANCH   5   6
ENDBRANCH   2   5
ENDBRANCH   1   2
BRANCH   1  12
ATOM     12  C   UNL     1      34.281 -15.654 -21.334  0.00  0.00    -0.022 C 
BRANCH  12  13
ATOM     13  C   UNL     1      32.844 -15.335 -20.903  0.00  0.00    -0.002 C 
BRANCH  13  14
ATOM     14  C   UNL     1      32.574 -13.878 -20.513  0.00  0.00    -0.000 C 
BRANCH  14  15
ATOM     15  C   UNL     1      32.133 -13.005 -21.692  0.00  0.00    -0.000 C 
BRANCH  15  16
ATOM     16  C   UNL     1      31.374 -11.767 -21.206  0.00  0.00    -0.000 C 
BRANCH  16  17
ATOM     17  C   UNL     1      31.569 -11.480 -19.714  0.00  0.00    +0.000 C 
BRANCH  17  18
ATOM     18  C   UNL     1      31.673  -9.988 -19.391  0.00  0.00    +0.000 C 
BRANCH  18  19
ATOM     19  C   UNL     1      32.228  -9.201 -20.582  0.00  0.00    +0.000 C 
BRANCH  19  20
ATOM     20  C   UNL     1      32.287  -7.703 -20.278  0.00  0.00    +0.000 C 
BRANCH  20  21
ATOM     21  C   UNL     1      32.393  -6.880 -21.562  0.00  0.00    +0.000 C 
ATOM     22  C   UNL     1      33.302  -7.551 -22.579  0.00  0.00    +0.000 C 
ENDBRANCH  20  21
ENDBRANCH  19  20
ENDBRANCH  18  19
ENDBRANCH  17  18
ENDBRANCH  16  17
ENDBRANCH  15  16
ENDBRANCH  14  15
ENDBRANCH  13  14
ENDBRANCH  12  13
ENDBRANCH   1  12
TORSDOF 13
ENDMDL
MODEL 2
REMARK VINA RESULT:      -8.0      5.660      8.857
REMARK  Name = 8754
REMARK  13 active torsions:
REMARK  status: ('A' for Active; 'I' for Inactive)
REMARK    1  A    between atoms: C_1  and  N_2
REMARK    2  A    between atoms: C_1  and  C_12
REMARK    3  A    between atoms: N_2  and  C_5
REMARK    4  A    between atoms: C_5  and  C_6
REMARK    5  A    between atoms: C_12  and  C_13
REMARK    6  A    between atoms: C_13  and  C_14
REMARK    7  A    between atoms: C_14  and  C_15
REMARK    8  A    between atoms: C_15  and  C_16
REMARK    9  A    between atoms: C_16  and  C_17
REMARK   10  A    between atoms: C_17  and  C_18
REMARK   11  A    between atoms: C_18  and  C_19
REMARK   12  A    between atoms: C_19  and  C_20
REMARK   13  A    between atoms: C_20  and  C_21
REMARK                            x       y       z     vdW  Elec       q    Type
REMARK                         _______ _______ _______ _____ _____    ______ ____
ROOT
ATOM      1  C   UNL     1      35.960 -22.364 -15.514  0.00  0.00    -0.073 C 
ENDROOT
BRANCH   1   2
ATOM      2  N   UNL     1      36.066 -23.641 -14.772  0.00  0.00    +0.390 N 
ATOM      3  C   UNL     1      35.981 -23.402 -13.258  0.00  0.00    -0.095 C 
ATOM      4  C   UNL     1      37.402 -24.338 -15.069  0.00  0.00    -0.095 C 
BRANCH   2   5
ATOM      5  C   UNL     1      34.932 -24.599 -15.167  0.00  0.00    -0.046 C 
BRANCH   5   6
ATOM      6  C   UNL     1      33.575 -23.961 -15.108  0.00  0.00    -0.043 C 
ATOM      7  C   UNL     1      32.938 -23.787 -13.880  0.00  0.00    -0.006 C 
ATOM      8  C   UNL     1      32.952 -23.539 -16.283  0.00  0.00    -0.006 C 
ATOM      9  C   UNL     1      31.678 -23.193 -13.825  0.00  0.00    -0.000 C 
ATOM     10  C   UNL     1      31.691 -22.945 -16.228  0.00  0.00    -0.000 C 
ATOM     11  C   UNL     1      31.054 -22.772 -15.000  0.00  0.00    -0.000 C 
ENDBRANCH   5   6
ENDBRANCH   2   5
ENDBRANCH   1   2
BRANCH   1  12
ATOM     12  C   UNL     1      37.131 -22.203 -16.477  0.00  0.00    -0.022 C 
BRANCH  12  13
ATOM     13  C   UNL     1      36.779 -21.677 -17.874  0.00  0.00    -0.002 C 
BRANCH  13  14
ATOM     14  C   UNL     1      35.390 -22.057 -18.398  0.00  0.00    -0.000 C 
BRANCH  14  15
ATOM     15  C   UNL     1      35.047 -21.403 -19.740  0.00  0.00    -0.000 C 
BRANCH  15  16
ATOM     16  C   UNL     1      33.559 -21.048 -19.815  0.00  0.00    -0.000 C 
BRANCH  16  17
ATOM     17  C   UNL     1      33.274 -19.794 -20.645  0.00  0.00    +0.000 C 
BRANCH  17  18
ATOM     18  C   UNL     1      34.535 -19.143 -21.215  0.00  0.00    +0.000 C 
BRANCH  18  19
ATOM     19  C   UNL     1      34.351 -17.632 -21.382  0.00  0.00    +0.000 C 
BRANCH  19  20
ATOM     20  C   UNL     1      34.738 -17.177 -22.791  0.00  0.00    +0.000 C 
BRANCH  20  21
ATOM     21  C   UNL     1      34.985 -18.372 -23.712  0.00  0.00    +0.000 C 
ATOM     22  C   UNL     1      34.436 -18.123 -25.107  0.00  0.00    +0.000 C 
ENDBRANCH  20  21
ENDBRANCH  19  20
ENDBRANCH  18  19
ENDBRANCH  17  18
ENDBRANCH  16  17
ENDBRANCH  15  16
ENDBRANCH  14  15
ENDBRANCH  13  14
ENDBRANCH  12  13
ENDBRANCH   1  12
TORSDOF 13
ENDMDL
MODEL 3
REMARK VINA RESULT:      -7.9      4.256      8.537
REMARK  Name = 8754
REMARK  13 active torsions:
REMARK  status: ('A' for Active; 'I' for Inactive)
REMARK    1  A    between atoms: C_1  and  N_2
REMARK    2  A    between atoms: C_1  and  C_12
REMARK    3  A    between atoms: N_2  and  C_5
REMARK    4  A    between atoms: C_5  and  C_6
REMARK    5  A    between atoms: C_12  and  C_13
REMARK    6  A    between atoms: C_13  and  C_14
REMARK    7  A    between atoms: C_14  and  C_15
REMARK    8  A    between atoms: C_15  and  C_16
REMARK    9  A    between atoms: C_16  and  C_17
REMARK   10  A    between atoms: C_17  and  C_18
REMARK   11  A    between atoms: C_18  and  C_19
REMARK   12  A    between atoms: C_19  and  C_20
REMARK   13  A    between atoms: C_20  and  C_21
REMARK                            x       y       z     vdW  Elec       q    Type
REMARK                         _______ _______ _______ _____ _____    ______ ____
ROOT
ATOM      1  C   UNL     1      36.069 -22.472 -15.376  0.00  0.00    -0.073 C 
ENDROOT
BRANCH   1   2
ATOM      2  N   UNL     1      36.296 -23.696 -14.574  0.00  0.00    +0.390 N 
ATOM      3  C   UNL     1      36.355 -23.366 -13.076  0.00  0.00    -0.095 C 
ATOM      4  C   UNL     1      37.621 -24.369 -14.965  0.00  0.00    -0.095 C 
BRANCH   2   5
ATOM      5  C   UNL     1      35.165 -24.712 -14.793  0.00  0.00    -0.046 C 
BRANCH   5   6
ATOM      6  C   UNL     1      33.834 -24.066 -15.043  0.00  0.00    -0.043 C 
ATOM      7  C   UNL     1      33.457 -23.723 -16.342  0.00  0.00    -0.006 C 
ATOM      8  C   UNL     1      32.972 -23.809 -13.976  0.00  0.00    -0.006 C 
ATOM      9  C   UNL     1      32.220 -23.122 -16.574  0.00  0.00    -0.000 C 
ATOM     10  C   UNL     1      31.735 -23.208 -14.209  0.00  0.00    -0.000 C 
ATOM     11  C   UNL     1      31.359 -22.865 -15.507  0.00  0.00    -0.000 C 
ENDBRANCH   5   6
ENDBRANCH   2   5
ENDBRANCH   1   2
BRANCH   1  12
ATOM     12  C   UNL     1      37.029 -22.418 -16.558  0.00  0.00    -0.022 C 
BRANCH  12  13
ATOM     13  C   UNL     1      36.801 -21.271 -17.551  0.00  0.00    -0.002 C 
BRANCH  13  14
ATOM     14  C   UNL     1      36.414 -21.689 -18.973  0.00  0.00    -0.000 C 
BRANCH  14  15
ATOM     15  C   UNL     1      34.922 -21.997 -19.132  0.00  0.00    -0.000 C 
BRANCH  15  16
ATOM     16  C   UNL     1      34.199 -20.860 -19.859  0.00  0.00    -0.000 C 
BRANCH  16  17
ATOM     17  C   UNL     1      35.103 -20.080 -20.819  0.00  0.00    +0.000 C 
BRANCH  17  18
ATOM     18  C   UNL     1      34.434 -18.837 -21.408  0.00  0.00    +0.000 C 
BRANCH  18  19
ATOM     19  C   UNL     1      35.236 -17.572 -21.087  0.00  0.00    +0.000 C 
BRANCH  19  20
ATOM     20  C   UNL     1      34.621 -16.340 -21.755  0.00  0.00    +0.000 C 
BRANCH  20  21
ATOM     21  C   UNL     1      34.379 -15.222 -20.741  0.00  0.00    +0.000 C 
ATOM     22  C   UNL     1      32.903 -15.090 -20.401  0.00  0.00    +0.000 C 
ENDBRANCH  20  21
ENDBRANCH  19  20
ENDBRANCH  18  19
ENDBRANCH  17  18
ENDBRANCH  16  17
ENDBRANCH  15  16
ENDBRANCH  14  15
ENDBRANCH  13  14
ENDBRANCH  12  13
ENDBRANCH   1  12
TORSDOF 13
ENDMDL
MODEL 4
REMARK VINA RESULT:      -7.8      0.761      1.456
REMARK  Name = 8754
REMARK  13 active torsions:
REMARK  status: ('A' for Active; 'I' for Inactive)
REMARK    1  A    between atoms: C_1  and  N_2
REMARK    2  A    between atoms: C_1  and  C_12
REMARK    3  A    between atoms: N_2  and  C_5
REMARK    4  A    between atoms: C_5  and  C_6
REMARK    5  A    between atoms: C_12  and  C_13
REMARK    6  A    between atoms: C_13  and  C_14
REMARK    7  A    between atoms: C_14  and  C_15
REMARK    8  A    between atoms: C_15  and  C_16
REMARK    9  A    between atoms: C_16  and  C_17
REMARK   10  A    between atoms: C_17  and  C_18
REMARK   11  A    between atoms: C_18  and  C_19
REMARK   12  A    between atoms: C_19  and  C_20
REMARK   13  A    between atoms: C_20  and  C_21
REMARK                            x       y       z     vdW  Elec       q    Type
REMARK                         _______ _______ _______ _____ _____    ______ ____
ROOT
ATOM      1  C   UNL     1      34.771 -17.136 -21.049  0.00  0.00    -0.073 C 
ENDROOT
BRANCH   1   2
ATOM      2  N   UNL     1      35.252 -17.850 -22.254  0.00  0.00    +0.390 N 
ATOM      3  C   UNL     1      36.717 -18.277 -22.089  0.00  0.00    -0.095 C 
ATOM      4  C   UNL     1      35.157 -16.952 -23.498  0.00  0.00    -0.095 C 
BRANCH   2   5
ATOM      5  C   UNL     1      34.415 -19.111 -22.514  0.00  0.00    -0.046 C 
BRANCH   5   6
ATOM      6  C   UNL     1      34.253 -19.971 -21.295  0.00  0.00    -0.043 C 
ATOM      7  C   UNL     1      32.993 -20.131 -20.717  0.00  0.00    -0.006 C 
ATOM      8  C   UNL     1      35.361 -20.611 -20.741  0.00  0.00    -0.006 C 
ATOM      9  C   UNL     1      32.842 -20.930 -19.585  0.00  0.00    -0.000 C 
ATOM     10  C   UNL     1      35.209 -21.410 -19.608  0.00  0.00    -0.000 C 
ATOM     11  C   UNL     1      33.951 -21.570 -19.030  0.00  0.00    -0.000 C 
ENDBRANCH   5   6
ENDBRANCH   2   5
ENDBRANCH   1   2
BRANCH   1  12
ATOM     12  C   UNL     1      34.095 -15.825 -21.434  0.00  0.00    -0.022 C 
BRANCH  12  13
ATOM     13  C   UNL     1      33.047 -15.299 -20.446  0.00  0.00    -0.002 C 
BRANCH  13  14
ATOM     14  C   UNL     1      32.659 -13.827 -20.609  0.00  0.00    -0.000 C 
BRANCH  14  15
ATOM     15  C   UNL     1      32.313 -13.445 -22.051  0.00  0.00    -0.000 C 
BRANCH  15  16
ATOM     16  C   UNL     1      31.748 -12.023 -22.124  0.00  0.00    -0.000 C 
BRANCH  16  17
ATOM     17  C   UNL     1      31.481 -11.404 -20.750  0.00  0.00    +0.000 C 
BRANCH  17  18
ATOM     18  C   UNL     1      31.718  -9.893 -20.708  0.00  0.00    +0.000 C 
BRANCH  18  19
ATOM     19  C   UNL     1      31.818  -9.309 -22.121  0.00  0.00    +0.000 C 
BRANCH  19  20
ATOM     20  C   UNL     1      32.903  -8.234 -22.202  0.00  0.00    +0.000 C 
BRANCH  20  21
ATOM     21  C   UNL     1      33.974  -8.601 -23.229  0.00  0.00    +0.000 C 
ATOM     22  C   UNL     1      34.641  -7.363 -23.805  0.00  0.00    +0.000 C 
ENDBRANCH  20  21
ENDBRANCH  19  20
ENDBRANCH  18  19
ENDBRANCH  17  18
ENDBRANCH  16  17
ENDBRANCH  15  16
ENDBRANCH  14  15
ENDBRANCH  13  14
ENDBRANCH  12  13
ENDBRANCH   1  12
TORSDOF 13
ENDMDL
MODEL 5
REMARK VINA RESULT:      -7.8      2.037      3.923
REMARK  Name = 8754
REMARK  13 active torsions:
REMARK  status: ('A' for Active; 'I' for Inactive)
REMARK    1  A    between atoms: C_1  and  N_2
REMARK    2  A    between atoms: C_1  and  C_12
REMARK    3  A    between atoms: N_2  and  C_5
REMARK    4  A    between atoms: C_5  and  C_6
REMARK    5  A    between atoms: C_12  and  C_13
REMARK    6  A    between atoms: C_13  and  C_14
REMARK    7  A    between atoms: C_14  and  C_15
REMARK    8  A    between atoms: C_15  and  C_16
REMARK    9  A    between atoms: C_16  and  C_17
REMARK   10  A    between atoms: C_17  and  C_18
REMARK   11  A    between atoms: C_18  and  C_19
REMARK   12  A    between atoms: C_19  and  C_20
REMARK   13  A    between atoms: C_20  and  C_21
REMARK                            x       y       z     vdW  Elec       q    Type
REMARK                         _______ _______ _______ _____ _____    ______ ____
ROOT
ATOM      1  C   UNL     1      32.389 -14.114 -22.328  0.00  0.00    -0.073 C 
ENDROOT
BRANCH   1   2
ATOM      2  N   UNL     1      33.541 -14.146 -23.257  0.00  0.00    +0.390 N 
ATOM      3  C   UNL     1      33.910 -12.730 -23.721  0.00  0.00    -0.095 C 
ATOM      4  C   UNL     1      33.215 -14.984 -24.504  0.00  0.00    -0.095 C 
BRANCH   2   5
ATOM      5  C   UNL     1      34.775 -14.762 -22.581  0.00  0.00    -0.046 C 
BRANCH   5   6
ATOM      6  C   UNL     1      34.720 -16.260 -22.510  0.00  0.00    -0.043 C 
ATOM      7  C   UNL     1      34.236 -16.886 -21.361  0.00  0.00    -0.006 C 
ATOM      8  C   UNL     1      35.151 -17.025 -23.593  0.00  0.00    -0.006 C 
ATOM      9  C   UNL     1      34.184 -18.278 -21.295  0.00  0.00    -0.000 C 
ATOM     10  C   UNL     1      35.099 -18.418 -23.526  0.00  0.00    -0.000 C 
ATOM     11  C   UNL     1      34.616 -19.044 -22.378  0.00  0.00    -0.000 C 
ENDBRANCH   5   6
ENDBRANCH   2   5
ENDBRANCH   1   2
BRANCH   1  12
ATOM     12  C   UNL     1      31.998 -12.677 -22.005  0.00  0.00    -0.022 C 
BRANCH  12  13
ATOM     13  C   UNL     1      31.833 -12.349 -20.516  0.00  0.00    -0.002 C 
BRANCH  13  14
ATOM     14  C   UNL     1      31.028 -11.085 -20.198  0.00  0.00    -0.000 C 
BRANCH  14  15
ATOM     15  C   UNL     1      31.749 -10.128 -19.244  0.00  0.00    -0.000 C 
BRANCH  15  16
ATOM     16  C   UNL     1      32.260  -8.891 -19.988  0.00  0.00    -0.000 C 
BRANCH  16  17
ATOM     17  C   UNL     1      31.965  -8.919 -21.490  0.00  0.00    +0.000 C 
BRANCH  17  18
ATOM     18  C   UNL     1      31.941  -7.530 -22.130  0.00  0.00    +0.000 C 
BRANCH  18  19
ATOM     19  C   UNL     1      32.256  -7.605 -23.627  0.00  0.00    +0.000 C 
BRANCH  19  20
ATOM     20  C   UNL     1      33.501  -6.786 -23.975  0.00  0.00    +0.000 C 
BRANCH  20  21
ATOM     21  C   UNL     1      34.780  -7.534 -23.597  0.00  0.00    +0.000 C 
ATOM     22  C   UNL     1      34.769  -8.958 -24.128  0.00  0.00    +0.000 C 
ENDBRANCH  20  21
ENDBRANCH  19  20
ENDBRANCH  18  19
ENDBRANCH  17  18
ENDBRANCH  16  17
ENDBRANCH  15  16
ENDBRANCH  14  15
ENDBRANCH  13  14
ENDBRANCH  12  13
ENDBRANCH   1  12
TORSDOF 13
ENDMDL
MODEL 6
REMARK VINA RESULT:      -7.7      3.353      9.231
REMARK  Name = 8754
REMARK  13 active torsions:
REMARK  status: ('A' for Active; 'I' for Inactive)
REMARK    1  A    between atoms: C_1  and  N_2
REMARK    2  A    between atoms: C_1  and  C_12
REMARK    3  A    between atoms: N_2  and  C_5
REMARK    4  A    between atoms: C_5  and  C_6
REMARK    5  A    between atoms: C_12  and  C_13
REMARK    6  A    between atoms: C_13  and  C_14
REMARK    7  A    between atoms: C_14  and  C_15
REMARK    8  A    between atoms: C_15  and  C_16
REMARK    9  A    between atoms: C_16  and  C_17
REMARK   10  A    between atoms: C_17  and  C_18
REMARK   11  A    between atoms: C_18  and  C_19
REMARK   12  A    between atoms: C_19  and  C_20
REMARK   13  A    between atoms: C_20  and  C_21
REMARK                            x       y       z     vdW  Elec       q    Type
REMARK                         _______ _______ _______ _____ _____    ______ ____
ROOT
ATOM      1  C   UNL     1      33.878  -7.859 -22.576  0.00  0.00    -0.073 C 
ENDROOT
BRANCH   1   2
ATOM      2  N   UNL     1      32.567  -7.212 -22.806  0.00  0.00    +0.390 N 
ATOM      3  C   UNL     1      32.556  -6.456 -24.143  0.00  0.00    -0.095 C 
ATOM      4  C   UNL     1      32.248  -6.206 -21.689  0.00  0.00    -0.095 C 
BRANCH   2   5
ATOM      5  C   UNL     1      31.440  -8.255 -22.841  0.00  0.00    -0.046 C 
BRANCH   5   6
ATOM      6  C   UNL     1      31.532  -9.257 -21.728  0.00  0.00    -0.043 C 
ATOM      7  C   UNL     1      31.231 -10.598 -21.969  0.00  0.00    -0.006 C 
ATOM      8  C   UNL     1      31.921  -8.849 -20.452  0.00  0.00    -0.006 C 
ATOM      9  C   UNL     1      31.318 -11.530 -20.935  0.00  0.00    -0.000 C 
ATOM     10  C   UNL     1      32.007  -9.781 -19.418  0.00  0.00    -0.000 C 
ATOM     11  C   UNL     1      31.705 -11.120 -19.659  0.00  0.00    -0.000 C 
ENDBRANCH   5   6
ENDBRANCH   2   5
ENDBRANCH   1   2
BRANCH   1  12
ATOM     12  C   UNL     1      34.705  -7.871 -23.856  0.00  0.00    -0.022 C 
BRANCH  12  13
ATOM     13  C   UNL     1      34.999  -9.255 -24.448  0.00  0.00    -0.002 C 
BRANCH  13  14
ATOM     14  C   UNL     1      34.132 -10.402 -23.921  0.00  0.00    -0.000 C 
BRANCH  14  15
ATOM     15  C   UNL     1      34.165 -11.648 -24.812  0.00  0.00    -0.000 C 
BRANCH  15  16
ATOM     16  C   UNL     1      33.262 -12.750 -24.251  0.00  0.00    -0.000 C 
BRANCH  16  17
ATOM     17  C   UNL     1      33.973 -13.671 -23.255  0.00  0.00    +0.000 C 
BRANCH  17  18
ATOM     18  C   UNL     1      33.012 -14.513 -22.413  0.00  0.00    +0.000 C 
BRANCH  18  19
ATOM     19  C   UNL     1      33.433 -14.528 -20.941  0.00  0.00    +0.000 C 
BRANCH  19  20
ATOM     20  C   UNL     1      34.521 -15.574 -20.686  0.00  0.00    +0.000 C 
BRANCH  20  21
ATOM     21  C   UNL     1      34.216 -16.881 -21.418  0.00  0.00    +0.000 C 
ATOM     22  C   UNL     1      35.319 -17.238 -22.401  0.00  0.00    +0.000 C 
ENDBRANCH  20  21
ENDBRANCH  19  20
ENDBRANCH  18  19
ENDBRANCH  17  18
ENDBRANCH  16  17
ENDBRANCH  15  16
ENDBRANCH  14  15
ENDBRANCH  13  14
ENDBRANCH  12  13
ENDBRANCH   1  12
TORSDOF 13
ENDMDL
MODEL 7
REMARK VINA RESULT:      -7.7      4.342      8.508
REMARK  Name = 8754
REMARK  13 active torsions:
REMARK  status: ('A' for Active; 'I' for Inactive)
REMARK    1  A    between atoms: C_1  and  N_2
REMARK    2  A    between atoms: C_1  and  C_12
REMARK    3  A    between atoms: N_2  and  C_5
REMARK    4  A    between atoms: C_5  and  C_6
REMARK    5  A    between atoms: C_12  and  C_13
REMARK    6  A    between atoms: C_13  and  C_14
REMARK    7  A    between atoms: C_14  and  C_15
REMARK    8  A    between atoms: C_15  and  C_16
REMARK    9  A    between atoms: C_16  and  C_17
REMARK   10  A    between atoms: C_17  and  C_18
REMARK   11  A    between atoms: C_18  and  C_19
REMARK   12  A    between atoms: C_19  and  C_20
REMARK   13  A    between atoms: C_20  and  C_21
REMARK                            x       y       z     vdW  Elec       q    Type
REMARK                         _______ _______ _______ _____ _____    ______ ____
ROOT
ATOM      1  C   UNL     1      33.692 -23.837 -16.488  0.00  0.00    -0.073 C 
ENDROOT
BRANCH   1   2
ATOM      2  N   UNL     1      34.492 -23.787 -15.244  0.00  0.00    +0.390 N 
ATOM      3  C   UNL     1      35.478 -22.611 -15.273  0.00  0.00    -0.095 C 
ATOM      4  C   UNL     1      35.302 -25.081 -15.061  0.00  0.00    -0.095 C 
BRANCH   2   5
ATOM      5  C   UNL     1      33.585 -23.618 -14.015  0.00  0.00    -0.046 C 
BRANCH   5   6
ATOM      6  C   UNL     1      32.130 -23.806 -14.328  0.00  0.00    -0.043 C 
ATOM      7  C   UNL     1      31.361 -22.721 -14.749  0.00  0.00    -0.006 C 
ATOM      8  C   UNL     1      31.547 -25.066 -14.201  0.00  0.00    -0.006 C 
ATOM      9  C   UNL     1      30.009 -22.896 -15.041  0.00  0.00    -0.000 C 
ATOM     10  C   UNL     1      30.194 -25.241 -14.492  0.00  0.00    -0.000 C 
ATOM     11  C   UNL     1      29.425 -24.157 -14.912  0.00  0.00    -0.000 C 
ENDBRANCH   5   6
ENDBRANCH   2   5
ENDBRANCH   1   2
BRANCH   1  12
ATOM     12  C   UNL     1      34.239 -22.858 -17.519  0.00  0.00    -0.022 C 
BRANCH  12  13
ATOM     13  C   UNL     1      33.251 -22.408 -18.603  0.00  0.00    -0.002 C 
BRANCH  13  14
ATOM     14  C   UNL     1      33.746 -21.299 -19.536  0.00  0.00    -0.000 C 
BRANCH  14  15
ATOM     15  C   UNL     1      35.271 -21.249 -19.665  0.00  0.00    -0.000 C 
BRANCH  15  16
ATOM     16  C   UNL     1      35.703 -20.192 -20.686  0.00  0.00    -0.000 C 
BRANCH  16  17
ATOM     17  C   UNL     1      34.592 -19.200 -21.042  0.00  0.00    +0.000 C 
BRANCH  17  18
ATOM     18  C   UNL     1      34.754 -18.578 -22.430  0.00  0.00    +0.000 C 
BRANCH  18  19
ATOM     19  C   UNL     1      35.009 -17.071 -22.336  0.00  0.00    +0.000 C 
BRANCH  19  20
ATOM     20  C   UNL     1      34.826 -16.566 -20.903  0.00  0.00    +0.000 C 
BRANCH  20  21
ATOM     21  C   UNL     1      34.410 -15.095 -20.882  0.00  0.00    +0.000 C 
ATOM     22  C   UNL     1      34.361 -14.511 -22.284  0.00  0.00    +0.000 C 
ENDBRANCH  20  21
ENDBRANCH  19  20
ENDBRANCH  18  19
ENDBRANCH  17  18
ENDBRANCH  16  17
ENDBRANCH  15  16
ENDBRANCH  14  15
ENDBRANCH  13  14
ENDBRANCH  12  13
ENDBRANCH   1  12
TORSDOF 13
ENDMDL
MODEL 8
REMARK VINA RESULT:      -7.7      2.669     11.179
REMARK  Name = 8754
REMARK  13 active torsions:
REMARK  status: ('A' for Active; 'I' for Inactive)
REMARK    1  A    between atoms: C_1  and  N_2
REMARK    2  A    between atoms: C_1  and  C_12
REMARK    3  A    between atoms: N_2  and  C_5
REMARK    4  A    between atoms: C_5  and  C_6
REMARK    5  A    between atoms: C_12  and  C_13
REMARK    6  A    between atoms: C_13  and  C_14
REMARK    7  A    between atoms: C_14  and  C_15
REMARK    8  A    between atoms: C_15  and  C_16
REMARK    9  A    between atoms: C_16  and  C_17
REMARK   10  A    between atoms: C_17  and  C_18
REMARK   11  A    between atoms: C_18  and  C_19
REMARK   12  A    between atoms: C_19  and  C_20
REMARK   13  A    between atoms: C_20  and  C_21
REMARK                            x       y       z     vdW  Elec       q    Type
REMARK                         _______ _______ _______ _____ _____    ______ ____
ROOT
ATOM      1  C   UNL     1      31.989  -9.518 -21.254  0.00  0.00    -0.073 C 
ENDROOT
BRANCH   1   2
ATOM      2  N   UNL     1      32.415  -8.888 -22.524  0.00  0.00    +0.390 N 
ATOM      3  C   UNL     1      33.094  -9.914 -23.443  0.00  0.00    -0.095 C 
ATOM      4  C   UNL     1      33.413  -7.750 -22.264  0.00  0.00    -0.095 C 
BRANCH   2   5
ATOM      5  C   UNL     1      31.210  -8.301 -23.276  0.00  0.00    -0.046 C 
BRANCH   5   6
ATOM      6  C   UNL     1      31.268  -6.807 -23.401  0.00  0.00    -0.043 C 
ATOM      7  C   UNL     1      31.788  -6.223 -24.557  0.00  0.00    -0.006 C 
ATOM      8  C   UNL     1      30.800  -6.001 -22.363  0.00  0.00    -0.006 C 
ATOM      9  C   UNL     1      31.841  -4.835 -24.674  0.00  0.00    -0.000 C 
ATOM     10  C   UNL     1      30.854  -4.612 -22.481  0.00  0.00    -0.000 C 
ATOM     11  C   UNL     1      31.374  -4.029 -23.635  0.00  0.00    -0.000 C 
ENDBRANCH   5   6
ENDBRANCH   2   5
ENDBRANCH   1   2
BRANCH   1  12
ATOM     12  C   UNL     1      31.267 -10.833 -21.520  0.00  0.00    -0.022 C 
BRANCH  12  13
ATOM     13  C   UNL     1      31.718 -12.026 -20.669  0.00  0.00    -0.002 C 
BRANCH  13  14
ATOM     14  C   UNL     1      32.352 -13.190 -21.436  0.00  0.00    -0.000 C 
BRANCH  14  15
ATOM     15  C   UNL     1      32.690 -14.392 -20.549  0.00  0.00    -0.000 C 
BRANCH  15  16
ATOM     16  C   UNL     1      34.131 -14.857 -20.777  0.00  0.00    -0.000 C 
BRANCH  16  17
ATOM     17  C   UNL     1      34.241 -16.049 -21.733  0.00  0.00    +0.000 C 
BRANCH  17  18
ATOM     18  C   UNL     1      35.141 -17.168 -21.206  0.00  0.00    +0.000 C 
BRANCH  18  19
ATOM     19  C   UNL     1      35.450 -18.191 -22.303  0.00  0.00    +0.000 C 
BRANCH  19  20
ATOM     20  C   UNL     1      34.511 -19.397 -22.219  0.00  0.00    +0.000 C 
BRANCH  20  21
ATOM     21  C   UNL     1      34.300 -19.836 -20.771  0.00  0.00    +0.000 C 
ATOM     22  C   UNL     1      32.838 -20.144 -20.489  0.00  0.00    +0.000 C 
ENDBRANCH  20  21
ENDBRANCH  19  20
ENDBRANCH  18  19
ENDBRANCH  17  18
ENDBRANCH  16  17
ENDBRANCH  15  16
ENDBRANCH  14  15
ENDBRANCH  13  14
ENDBRANCH  12  13
ENDBRANCH   1  12
TORSDOF 13
ENDMDL
MODEL 9
REMARK VINA RESULT:      -7.7      3.242      8.985
REMARK  Name = 8754
REMARK  13 active torsions:
REMARK  status: ('A' for Active; 'I' for Inactive)
REMARK    1  A    between atoms: C_1  and  N_2
REMARK    2  A    between atoms: C_1  and  C_12
REMARK    3  A    between atoms: N_2  and  C_5
REMARK    4  A    between atoms: C_5  and  C_6
REMARK    5  A    between atoms: C_12  and  C_13
REMARK    6  A    between atoms: C_13  and  C_14
REMARK    7  A    between atoms: C_14  and  C_15
REMARK    8  A    between atoms: C_15  and  C_16
REMARK    9  A    between atoms: C_16  and  C_17
REMARK   10  A    between atoms: C_17  and  C_18
REMARK   11  A    between atoms: C_18  and  C_19
REMARK   12  A    between atoms: C_19  and  C_20
REMARK   13  A    between atoms: C_20  and  C_21
REMARK                            x       y       z     vdW  Elec       q    Type
REMARK                         _______ _______ _______ _____ _____    ______ ____
ROOT
ATOM      1  C   UNL     1      32.966  -9.168 -24.058  0.00  0.00    -0.073 C 
ENDROOT
BRANCH   1   2
ATOM      2  N   UNL     1      32.916  -7.920 -23.263  0.00  0.00    +0.390 N 
ATOM      3  C   UNL     1      32.816  -6.692 -24.179  0.00  0.00    -0.095 C 
ATOM      4  C   UNL     1      34.179  -7.768 -22.401  0.00  0.00    -0.095 C 
BRANCH   2   5
ATOM      5  C   UNL     1      31.698  -7.916 -22.327  0.00  0.00    -0.046 C 
BRANCH   5   6
ATOM      6  C   UNL     1      31.657  -9.103 -21.410  0.00  0.00    -0.043 C 
ATOM      7  C   UNL     1      32.136  -8.993 -20.104  0.00  0.00    -0.006 C 
ATOM      8  C   UNL     1      31.139 -10.316 -21.863  0.00  0.00    -0.006 C 
ATOM      9  C   UNL     1      32.097 -10.096 -19.252  0.00  0.00    -0.000 C 
ATOM     10  C   UNL     1      31.101 -11.419 -21.010  0.00  0.00    -0.000 C 
ATOM     11  C   UNL     1      31.580 -11.310 -19.706  0.00  0.00    -0.000 C 
ENDBRANCH   5   6
ENDBRANCH   2   5
ENDBRANCH   1   2
BRANCH   1  12
ATOM     12  C   UNL     1      34.368  -9.764 -24.035  0.00  0.00    -0.022 C 
BRANCH  12  13
ATOM     13  C   UNL     1      34.503 -11.176 -24.619  0.00  0.00    -0.002 C 
BRANCH  13  14
ATOM     14  C   UNL     1      33.356 -12.141 -24.302  0.00  0.00    -0.000 C 
BRANCH  14  15
ATOM     15  C   UNL     1      33.787 -13.340 -23.453  0.00  0.00    -0.000 C 
BRANCH  15  16
ATOM     16  C   UNL     1      32.580 -14.003 -22.784  0.00  0.00    -0.000 C 
BRANCH  16  17
ATOM     17  C   UNL     1      32.894 -14.585 -21.402  0.00  0.00    +0.000 C 
BRANCH  17  18
ATOM     18  C   UNL     1      34.392 -14.758 -21.142  0.00  0.00    +0.000 C 
BRANCH  18  19
ATOM     19  C   UNL     1      34.715 -16.188 -20.701  0.00  0.00    +0.000 C 
BRANCH  19  20
ATOM     20  C   UNL     1      34.563 -17.175 -21.861  0.00  0.00    +0.000 C 
BRANCH  20  21
ATOM     21  C   UNL     1      35.356 -16.719 -23.086  0.00  0.00    +0.000 C 
ATOM     22  C   UNL     1      34.572 -16.939 -24.370  0.00  0.00    +0.000 C 
ENDBRANCH  20  21
ENDBRANCH  19  20
ENDBRANCH  18  19
ENDBRANCH  17  18
ENDBRANCH  16  17
ENDBRANCH  15  16
ENDBRANCH  14  15
ENDBRANCH  13  14
ENDBRANCH  12  13
ENDBRANCH   1  12
TORSDOF 13
ENDMDL
