MODEL 1
REMARK VINA RESULT:      -8.7      0.000      0.000
REMARK  Name = 17749729
REMARK  6 active torsions:
REMARK  status: ('A' for Active; 'I' for Inactive)
REMARK    1  A    between atoms: C_1  and  C_13
REMARK    2  A    between atoms: C_2  and  C_4
REMARK    3  A    between atoms: C_5  and  O_6
REMARK    4  A    between atoms: C_5  and  C_9
REMARK    5  A    between atoms: C_9  and  O_10
REMARK    6  A    between atoms: C_13  and  C_14
REMARK                            x       y       z     vdW  Elec       q    Type
REMARK                         _______ _______ _______ _____ _____    ______ ____
ROOT
ATOM      1  C   UNL     1      34.909 -17.337 -21.761  0.00  0.00    +0.043 C 
ATOM      2  C   UNL     1      35.058 -16.628 -22.890  0.00  0.00    +0.018 C 
ENDROOT
BRANCH   2   4
ATOM      3 CL   UNL     1      34.175 -14.331 -21.843  0.00  0.00    -0.079 Cl
ATOM      4  C   UNL     1      34.295 -15.434 -23.195  0.00  0.00    +0.098 C 
ATOM      5  C   UNL     1      33.706 -15.114 -24.364  0.00  0.00    +0.221 C 
BRANCH   5   6
ATOM      6  O   UNL     1      33.023 -13.915 -24.501  0.00  0.00    -0.500 OA
ATOM      7  H   UNL     1      32.101 -13.879 -24.336  0.00  0.00    +0.292 HD
ENDBRANCH   5   6
BRANCH   5   9
ATOM      8  O   UNL     1      33.933 -17.210 -25.561  0.00  0.00    -0.242 OA
ATOM      9  C   UNL     1      33.769 -16.002 -25.561  0.00  0.00    +0.373 C 
BRANCH   9  10
ATOM     10  O   UNL     1      33.631 -15.258 -26.685  0.00  0.00    -0.475 OA
ATOM     11  H   UNL     1      33.662 -15.671 -27.526  0.00  0.00    +0.296 HD
ENDBRANCH   9  10
ENDBRANCH   5   9
ENDBRANCH   2   4
BRANCH   1  13
ATOM     12  O   UNL     1      36.899 -18.635 -21.942  0.00  0.00    -0.287 OA
ATOM     13  C   UNL     1      35.749 -18.542 -21.528  0.00  0.00    +0.196 C 
BRANCH  13  14
ATOM     14  C   UNL     1      35.138 -19.676 -20.792  0.00  0.00    +0.039 C 
ATOM     15  C   UNL     1      33.750 -19.799 -20.728  0.00  0.00    +0.003 C 
ATOM     16  C   UNL     1      35.951 -20.619 -20.164  0.00  0.00    +0.003 C 
ATOM     17  C   UNL     1      33.175 -20.865 -20.036  0.00  0.00    +0.000 C 
ATOM     18  C   UNL     1      35.376 -21.686 -19.472  0.00  0.00    +0.000 C 
ATOM     19  C   UNL     1      33.988 -21.808 -19.408  0.00  0.00    +0.000 C 
ENDBRANCH  13  14
ENDBRANCH   1  13
TORSDOF 6
ENDMDL
MODEL 2
REMARK VINA RESULT:      -8.6      1.650      2.497
REMARK  Name = 17749729
REMARK  6 active torsions:
REMARK  status: ('A' for Active; 'I' for Inactive)
REMARK    1  A    between atoms: C_1  and  C_13
REMARK    2  A    between atoms: C_2  and  C_4
REMARK    3  A    between atoms: C_5  and  O_6
REMARK    4  A    between atoms: C_5  and  C_9
REMARK    5  A    between atoms: C_9  and  O_10
REMARK    6  A    between atoms: C_13  and  C_14
REMARK                            x       y       z     vdW  Elec       q    Type
REMARK                         _______ _______ _______ _____ _____    ______ ____
ROOT
ATOM      1  C   UNL     1      35.228 -18.619 -22.663  0.00  0.00    +0.043 C 
ATOM      2  C   UNL     1      35.110 -17.292 -22.813  0.00  0.00    +0.018 C 
ENDROOT
BRANCH   2   4
ATOM      3 CL   UNL     1      34.724 -17.568 -25.444  0.00  0.00    -0.079 Cl
ATOM      4  C   UNL     1      34.493 -16.665 -23.965  0.00  0.00    +0.098 C 
ATOM      5  C   UNL     1      33.792 -15.514 -23.994  0.00  0.00    +0.221 C 
BRANCH   5   6
ATOM      6  O   UNL     1      33.245 -15.056 -25.184  0.00  0.00    -0.500 OA
ATOM      7  H   UNL     1      33.664 -14.362 -25.655  0.00  0.00    +0.292 HD
ENDBRANCH   5   6
BRANCH   5   9
ATOM      8  O   UNL     1      32.610 -14.798 -22.003  0.00  0.00    -0.242 OA
ATOM      9  C   UNL     1      33.550 -14.693 -22.773  0.00  0.00    +0.373 C 
BRANCH   9  10
ATOM     10  O   UNL     1      34.538 -13.776 -22.639  0.00  0.00    -0.475 OA
ATOM     11  H   UNL     1      35.434 -14.053 -22.613  0.00  0.00    +0.296 HD
ENDBRANCH   9  10
ENDBRANCH   5   9
ENDBRANCH   2   4
BRANCH   1  13
ATOM     12  O   UNL     1      37.010 -18.895 -21.106  0.00  0.00    -0.287 OA
ATOM     13  C   UNL     1      35.863 -19.173 -21.438  0.00  0.00    +0.196 C 
BRANCH  13  14
ATOM     14  C   UNL     1      35.070 -20.124 -20.621  0.00  0.00    +0.039 C 
ATOM     15  C   UNL     1      35.716 -21.110 -19.875  0.00  0.00    +0.003 C 
ATOM     16  C   UNL     1      33.679 -20.031 -20.598  0.00  0.00    +0.003 C 
ATOM     17  C   UNL     1      34.970 -22.004 -19.107  0.00  0.00    +0.000 C 
ATOM     18  C   UNL     1      32.933 -20.925 -19.829  0.00  0.00    +0.000 C 
ATOM     19  C   UNL     1      33.579 -21.911 -19.084  0.00  0.00    +0.000 C 
ENDBRANCH  13  14
ENDBRANCH   1  13
TORSDOF 6
ENDMDL
MODEL 3
REMARK VINA RESULT:      -8.6      6.198      9.639
REMARK  Name = 17749729
REMARK  6 active torsions:
REMARK  status: ('A' for Active; 'I' for Inactive)
REMARK    1  A    between atoms: C_1  and  C_13
REMARK    2  A    between atoms: C_2  and  C_4
REMARK    3  A    between atoms: C_5  and  O_6
REMARK    4  A    between atoms: C_5  and  C_9
REMARK    5  A    between atoms: C_9  and  O_10
REMARK    6  A    between atoms: C_13  and  C_14
REMARK                            x       y       z     vdW  Elec       q    Type
REMARK                         _______ _______ _______ _____ _____    ______ ____
ROOT
ATOM      1  C   UNL     1      34.604 -22.717 -17.350  0.00  0.00    +0.043 C 
ATOM      2  C   UNL     1      33.989 -23.449 -16.410  0.00  0.00    +0.018 C 
ENDROOT
BRANCH   2   4
ATOM      3 CL   UNL     1      35.998 -22.897 -14.734  0.00  0.00    -0.079 Cl
ATOM      4  C   UNL     1      34.354 -23.426 -15.007  0.00  0.00    +0.098 C 
ATOM      5  C   UNL     1      33.580 -23.753 -13.954  0.00  0.00    +0.221 C 
BRANCH   5   6
ATOM      6  O   UNL     1      34.076 -23.657 -12.662  0.00  0.00    -0.500 OA
ATOM      7  H   UNL     1      33.542 -23.297 -11.981  0.00  0.00    +0.292 HD
ENDBRANCH   5   6
BRANCH   5   9
ATOM      8  O   UNL     1      31.207 -23.510 -14.388  0.00  0.00    -0.242 OA
ATOM      9  C   UNL     1      32.168 -24.208 -14.109  0.00  0.00    +0.373 C 
BRANCH   9  10
ATOM     10  O   UNL     1      32.092 -25.540 -13.875  0.00  0.00    -0.475 OA
ATOM     11  H   UNL     1      32.502 -26.143 -14.464  0.00  0.00    +0.296 HD
ENDBRANCH   9  10
ENDBRANCH   5   9
ENDBRANCH   2   4
BRANCH   1  13
ATOM     12  O   UNL     1      33.785 -23.843 -19.283  0.00  0.00    -0.287 OA
ATOM     13  C   UNL     1      34.150 -22.794 -18.764  0.00  0.00    +0.196 C 
BRANCH  13  14
ATOM     14  C   UNL     1      34.183 -21.548 -19.567  0.00  0.00    +0.039 C 
ATOM     15  C   UNL     1      35.404 -21.020 -19.987  0.00  0.00    +0.003 C 
ATOM     16  C   UNL     1      32.992 -20.904 -19.903  0.00  0.00    +0.003 C 
ATOM     17  C   UNL     1      35.434 -19.847 -20.742  0.00  0.00    +0.000 C 
ATOM     18  C   UNL     1      33.022 -19.732 -20.659  0.00  0.00    +0.000 C 
ATOM     19  C   UNL     1      34.244 -19.203 -21.078  0.00  0.00    +0.000 C 
ENDBRANCH  13  14
ENDBRANCH   1  13
TORSDOF 6
ENDMDL
MODEL 4
REMARK VINA RESULT:      -8.6      5.970      9.444
REMARK  Name = 17749729
REMARK  6 active torsions:
REMARK  status: ('A' for Active; 'I' for Inactive)
REMARK    1  A    between atoms: C_1  and  C_13
REMARK    2  A    between atoms: C_2  and  C_4
REMARK    3  A    between atoms: C_5  and  O_6
REMARK    4  A    between atoms: C_5  and  C_9
REMARK    5  A    between atoms: C_9  and  O_10
REMARK    6  A    between atoms: C_13  and  C_14
REMARK                            x       y       z     vdW  Elec       q    Type
REMARK                         _______ _______ _______ _____ _____    ______ ____
ROOT
ATOM      1  C   UNL     1      34.076 -22.705 -17.339  0.00  0.00    +0.043 C 
ATOM      2  C   UNL     1      33.285 -23.486 -16.588  0.00  0.00    +0.018 C 
ENDROOT
BRANCH   2   4
ATOM      3 CL   UNL     1      31.777 -22.727 -14.515  0.00  0.00    -0.079 Cl
ATOM      4  C   UNL     1      33.248 -23.437 -15.140  0.00  0.00    +0.098 C 
ATOM      5  C   UNL     1      34.192 -23.870 -14.281  0.00  0.00    +0.221 C 
BRANCH   5   6
ATOM      6  O   UNL     1      33.994 -23.768 -12.912  0.00  0.00    -0.500 OA
ATOM      7  H   UNL     1      33.436 -24.380 -12.473  0.00  0.00    +0.292 HD
ENDBRANCH   5   6
BRANCH   5   9
ATOM      8  O   UNL     1      36.493 -23.903 -15.042  0.00  0.00    -0.242 OA
ATOM      9  C   UNL     1      35.468 -24.491 -14.741  0.00  0.00    +0.373 C 
BRANCH   9  10
ATOM     10  O   UNL     1      35.325 -25.837 -14.795  0.00  0.00    -0.475 OA
ATOM     11  H   UNL     1      35.394 -26.347 -14.013  0.00  0.00    +0.296 HD
ENDBRANCH   9  10
ENDBRANCH   5   9
ENDBRANCH   2   4
BRANCH   1  13
ATOM     12  O   UNL     1      33.924 -23.891 -19.400  0.00  0.00    -0.287 OA
ATOM     13  C   UNL     1      34.034 -22.816 -18.822  0.00  0.00    +0.196 C 
BRANCH  13  14
ATOM     14  C   UNL     1      34.168 -21.566 -19.609  0.00  0.00    +0.039 C 
ATOM     15  C   UNL     1      33.029 -20.849 -19.978  0.00  0.00    +0.003 C 
ATOM     16  C   UNL     1      35.432 -21.108 -19.980  0.00  0.00    +0.003 C 
ATOM     17  C   UNL     1      33.155 -19.674 -20.719  0.00  0.00    +0.000 C 
ATOM     18  C   UNL     1      35.557 -19.931 -20.720  0.00  0.00    +0.000 C 
ATOM     19  C   UNL     1      34.418 -19.215 -21.090  0.00  0.00    +0.000 C 
ENDBRANCH  13  14
ENDBRANCH   1  13
TORSDOF 6
ENDMDL
MODEL 5
REMARK VINA RESULT:      -8.6      1.655      2.182
REMARK  Name = 17749729
REMARK  6 active torsions:
REMARK  status: ('A' for Active; 'I' for Inactive)
REMARK    1  A    between atoms: C_1  and  C_13
REMARK    2  A    between atoms: C_2  and  C_4
REMARK    3  A    between atoms: C_5  and  O_6
REMARK    4  A    between atoms: C_5  and  C_9
REMARK    5  A    between atoms: C_9  and  O_10
REMARK    6  A    between atoms: C_13  and  C_14
REMARK                            x       y       z     vdW  Elec       q    Type
REMARK                         _______ _______ _______ _____ _____    ______ ____
ROOT
ATOM      1  C   UNL     1      34.928 -18.515 -22.638  0.00  0.00    +0.043 C 
ATOM      2  C   UNL     1      35.157 -17.250 -23.019  0.00  0.00    +0.018 C 
ENDROOT
BRANCH   2   4
ATOM      3 CL   UNL     1      34.663 -17.474 -25.637  0.00  0.00    -0.079 Cl
ATOM      4  C   UNL     1      34.478 -16.609 -24.128  0.00  0.00    +0.098 C 
ATOM      5  C   UNL     1      33.754 -15.473 -24.100  0.00  0.00    +0.221 C 
BRANCH   5   6
ATOM      6  O   UNL     1      33.148 -14.999 -25.254  0.00  0.00    -0.500 OA
ATOM      7  H   UNL     1      32.566 -15.552 -25.738  0.00  0.00    +0.292 HD
ENDBRANCH   5   6
BRANCH   5   9
ATOM      8  O   UNL     1      32.669 -14.853 -22.023  0.00  0.00    -0.242 OA
ATOM      9  C   UNL     1      33.549 -14.686 -22.850  0.00  0.00    +0.373 C 
BRANCH   9  10
ATOM     10  O   UNL     1      34.494 -13.719 -22.763  0.00  0.00    -0.475 OA
ATOM     11  H   UNL     1      34.991 -13.619 -21.974  0.00  0.00    +0.296 HD
ENDBRANCH   9  10
ENDBRANCH   5   9
ENDBRANCH   2   4
BRANCH   1  13
ATOM     12  O   UNL     1      36.819 -18.778 -21.213  0.00  0.00    -0.287 OA
ATOM     13  C   UNL     1      35.662 -19.084 -21.476  0.00  0.00    +0.196 C 
BRANCH  13  14
ATOM     14  C   UNL     1      34.956 -20.083 -20.638  0.00  0.00    +0.039 C 
ATOM     15  C   UNL     1      33.563 -20.070 -20.560  0.00  0.00    +0.003 C 
ATOM     16  C   UNL     1      35.686 -21.037 -19.928  0.00  0.00    +0.003 C 
ATOM     17  C   UNL     1      32.900 -21.010 -19.771  0.00  0.00    +0.000 C 
ATOM     18  C   UNL     1      35.021 -21.978 -19.140  0.00  0.00    +0.000 C 
ATOM     19  C   UNL     1      33.629 -21.963 -19.061  0.00  0.00    +0.000 C 
ENDBRANCH  13  14
ENDBRANCH   1  13
TORSDOF 6
ENDMDL
MODEL 6
REMARK VINA RESULT:      -8.5      1.428      2.111
REMARK  Name = 17749729
REMARK  6 active torsions:
REMARK  status: ('A' for Active; 'I' for Inactive)
REMARK    1  A    between atoms: C_1  and  C_13
REMARK    2  A    between atoms: C_2  and  C_4
REMARK    3  A    between atoms: C_5  and  O_6
REMARK    4  A    between atoms: C_5  and  C_9
REMARK    5  A    between atoms: C_9  and  O_10
REMARK    6  A    between atoms: C_13  and  C_14
REMARK                            x       y       z     vdW  Elec       q    Type
REMARK                         _______ _______ _______ _____ _____    ______ ____
ROOT
ATOM      1  C   UNL     1      33.953 -17.498 -21.428  0.00  0.00    +0.043 C 
ATOM      2  C   UNL     1      34.223 -16.185 -21.471  0.00  0.00    +0.018 C 
ENDROOT
BRANCH   2   4
ATOM      3 CL   UNL     1      32.360 -15.056 -19.921  0.00  0.00    -0.079 Cl
ATOM      4  C   UNL     1      33.204 -15.154 -21.450  0.00  0.00    +0.098 C 
ATOM      5  C   UNL     1      32.871 -14.310 -22.445  0.00  0.00    +0.221 C 
BRANCH   5   6
ATOM      6  O   UNL     1      31.879 -13.359 -22.257  0.00  0.00    -0.500 OA
ATOM      7  H   UNL     1      31.412 -13.017 -22.995  0.00  0.00    +0.292 HD
ENDBRANCH   5   6
BRANCH   5   9
ATOM      8  O   UNL     1      33.506 -15.231 -24.596  0.00  0.00    -0.242 OA
ATOM      9  C   UNL     1      33.550 -14.331 -23.773  0.00  0.00    +0.373 C 
BRANCH   9  10
ATOM     10  O   UNL     1      34.256 -13.188 -23.941  0.00  0.00    -0.475 OA
ATOM     11  H   UNL     1      33.848 -12.358 -23.790  0.00  0.00    +0.296 HD
ENDBRANCH   9  10
ENDBRANCH   5   9
ENDBRANCH   2   4
BRANCH   1  13
ATOM     12  O   UNL     1      36.103 -18.301 -22.066  0.00  0.00    -0.287 OA
ATOM     13  C   UNL     1      35.066 -18.484 -21.439  0.00  0.00    +0.196 C 
BRANCH  13  14
ATOM     14  C   UNL     1      34.876 -19.746 -20.683  0.00  0.00    +0.039 C 
ATOM     15  C   UNL     1      35.985 -20.467 -20.239  0.00  0.00    +0.003 C 
ATOM     16  C   UNL     1      33.589 -20.211 -20.415  0.00  0.00    +0.003 C 
ATOM     17  C   UNL     1      35.806 -21.653 -19.528  0.00  0.00    +0.000 C 
ATOM     18  C   UNL     1      33.411 -21.398 -19.703  0.00  0.00    +0.000 C 
ATOM     19  C   UNL     1      34.519 -22.119 -19.260  0.00  0.00    +0.000 C 
ENDBRANCH  13  14
ENDBRANCH   1  13
TORSDOF 6
ENDMDL
MODEL 7
REMARK VINA RESULT:      -8.4      7.464     11.114
REMARK  Name = 17749729
REMARK  6 active torsions:
REMARK  status: ('A' for Active; 'I' for Inactive)
REMARK    1  A    between atoms: C_1  and  C_13
REMARK    2  A    between atoms: C_2  and  C_4
REMARK    3  A    between atoms: C_5  and  O_6
REMARK    4  A    between atoms: C_5  and  C_9
REMARK    5  A    between atoms: C_9  and  O_10
REMARK    6  A    between atoms: C_13  and  C_14
REMARK                            x       y       z     vdW  Elec       q    Type
REMARK                         _______ _______ _______ _____ _____    ______ ____
ROOT
ATOM      1  C   UNL     1      36.340 -23.268 -15.113  0.00  0.00    +0.043 C 
ATOM      2  C   UNL     1      37.322 -23.698 -14.307  0.00  0.00    +0.018 C 
ENDROOT
BRANCH   2   4
ATOM      3 CL   UNL     1      36.826 -23.639 -11.680  0.00  0.00    -0.079 Cl
ATOM      4  C   UNL     1      37.100 -24.544 -13.151  0.00  0.00    +0.098 C 
ATOM      5  C   UNL     1      37.082 -25.890 -13.113  0.00  0.00    +0.221 C 
BRANCH   5   6
ATOM      6  O   UNL     1      36.834 -26.555 -11.921  0.00  0.00    -0.500 OA
ATOM      7  H   UNL     1      37.538 -26.733 -11.329  0.00  0.00    +0.292 HD
ENDBRANCH   5   6
BRANCH   5   9
ATOM      8  O   UNL     1      38.372 -27.152 -14.732  0.00  0.00    -0.242 OA
ATOM      9  C   UNL     1      37.302 -26.728 -14.327  0.00  0.00    +0.373 C 
BRANCH   9  10
ATOM     10  O   UNL     1      36.118 -26.949 -14.947  0.00  0.00    -0.475 OA
ATOM     11  H   UNL     1      35.793 -26.328 -15.570  0.00  0.00    +0.296 HD
ENDBRANCH   9  10
ENDBRANCH   5   9
ENDBRANCH   2   4
BRANCH   1  13
ATOM     12  O   UNL     1      37.711 -21.781 -16.372  0.00  0.00    -0.287 OA
ATOM     13  C   UNL     1      36.665 -22.414 -16.287  0.00  0.00    +0.196 C 
BRANCH  13  14
ATOM     14  C   UNL     1      35.654 -22.314 -17.367  0.00  0.00    +0.039 C 
ATOM     15  C   UNL     1      35.971 -21.665 -18.561  0.00  0.00    +0.003 C 
ATOM     16  C   UNL     1      34.387 -22.869 -17.189  0.00  0.00    +0.003 C 
ATOM     17  C   UNL     1      35.019 -21.571 -19.577  0.00  0.00    +0.000 C 
ATOM     18  C   UNL     1      33.436 -22.776 -18.206  0.00  0.00    +0.000 C 
ATOM     19  C   UNL     1      33.752 -22.126 -19.400  0.00  0.00    +0.000 C 
ENDBRANCH  13  14
ENDBRANCH   1  13
TORSDOF 6
ENDMDL
MODEL 8
REMARK VINA RESULT:      -8.3      6.752      9.903
REMARK  Name = 17749729
REMARK  6 active torsions:
REMARK  status: ('A' for Active; 'I' for Inactive)
REMARK    1  A    between atoms: C_1  and  C_13
REMARK    2  A    between atoms: C_2  and  C_4
REMARK    3  A    between atoms: C_5  and  O_6
REMARK    4  A    between atoms: C_5  and  C_9
REMARK    5  A    between atoms: C_9  and  O_10
REMARK    6  A    between atoms: C_13  and  C_14
REMARK                            x       y       z     vdW  Elec       q    Type
REMARK                         _______ _______ _______ _____ _____    ______ ____
ROOT
ATOM      1  C   UNL     1      32.455 -23.320 -17.341  0.00  0.00    +0.043 C 
ATOM      2  C   UNL     1      31.896 -23.134 -16.136  0.00  0.00    +0.018 C 
ENDROOT
BRANCH   2   4
ATOM      3 CL   UNL     1      29.372 -22.716 -16.914  0.00  0.00    -0.079 Cl
ATOM      4  C   UNL     1      30.520 -23.467 -15.829  0.00  0.00    +0.098 C 
ATOM      5  C   UNL     1      30.071 -24.264 -14.840  0.00  0.00    +0.221 C 
BRANCH   5   6
ATOM      6  O   UNL     1      28.713 -24.500 -14.690  0.00  0.00    -0.500 OA
ATOM      7  H   UNL     1      28.190 -24.718 -15.437  0.00  0.00    +0.292 HD
ENDBRANCH   5   6
BRANCH   5   9
ATOM      8  O   UNL     1      32.022 -25.530 -14.155  0.00  0.00    -0.242 OA
ATOM      9  C   UNL     1      30.989 -24.942 -13.880  0.00  0.00    +0.373 C 
BRANCH   9  10
ATOM     10  O   UNL     1      30.498 -24.827 -12.623  0.00  0.00    -0.475 OA
ATOM     11  H   UNL     1      30.003 -25.528 -12.247  0.00  0.00    +0.296 HD
ENDBRANCH   9  10
ENDBRANCH   5   9
ENDBRANCH   2   4
BRANCH   1  13
ATOM     12  O   UNL     1      34.787 -23.396 -16.855  0.00  0.00    -0.287 OA
ATOM     13  C   UNL     1      33.882 -22.961 -17.559  0.00  0.00    +0.196 C 
BRANCH  13  14
ATOM     14  C   UNL     1      34.194 -22.012 -18.656  0.00  0.00    +0.039 C 
ATOM     15  C   UNL     1      33.161 -21.356 -19.326  0.00  0.00    +0.003 C 
ATOM     16  C   UNL     1      35.520 -21.776 -19.016  0.00  0.00    +0.003 C 
ATOM     17  C   UNL     1      33.455 -20.464 -20.357  0.00  0.00    +0.000 C 
ATOM     18  C   UNL     1      35.814 -20.882 -20.047  0.00  0.00    +0.000 C 
ATOM     19  C   UNL     1      34.781 -20.227 -20.718  0.00  0.00    +0.000 C 
ENDBRANCH  13  14
ENDBRANCH   1  13
TORSDOF 6
ENDMDL
MODEL 9
REMARK VINA RESULT:      -8.2      7.605     11.476
REMARK  Name = 17749729
REMARK  6 active torsions:
REMARK  status: ('A' for Active; 'I' for Inactive)
REMARK    1  A    between atoms: C_1  and  C_13
REMARK    2  A    between atoms: C_2  and  C_4
REMARK    3  A    between atoms: C_5  and  O_6
REMARK    4  A    between atoms: C_5  and  C_9
REMARK    5  A    between atoms: C_9  and  O_10
REMARK    6  A    between atoms: C_13  and  C_14
REMARK                            x       y       z     vdW  Elec       q    Type
REMARK                         _______ _______ _______ _____ _____    ______ ____
ROOT
ATOM      1  C   UNL     1      36.546 -23.596 -15.310  0.00  0.00    +0.043 C 
ATOM      2  C   UNL     1      37.547 -24.234 -14.685  0.00  0.00    +0.018 C 
ENDROOT
BRANCH   2   4
ATOM      3 CL   UNL     1      37.010 -26.853 -14.625  0.00  0.00    -0.079 Cl
ATOM      4  C   UNL     1      37.348 -25.355 -13.788  0.00  0.00    +0.098 C 
ATOM      5  C   UNL     1      37.402 -25.347 -12.442  0.00  0.00    +0.221 C 
BRANCH   5   6
ATOM      6  O   UNL     1      37.207 -26.518 -11.724  0.00  0.00    -0.500 OA
ATOM      7  H   UNL     1      36.811 -26.487 -10.875  0.00  0.00    +0.292 HD
ENDBRANCH   5   6
BRANCH   5   9
ATOM      8  O   UNL     1      38.664 -23.386 -11.779  0.00  0.00    -0.242 OA
ATOM      9  C   UNL     1      37.690 -24.110 -11.660  0.00  0.00    +0.373 C 
BRANCH   9  10
ATOM     10  O   UNL     1      36.698 -23.900 -10.761  0.00  0.00    -0.475 OA
ATOM     11  H   UNL     1      36.293 -23.058 -10.698  0.00  0.00    +0.296 HD
ENDBRANCH   9  10
ENDBRANCH   5   9
ENDBRANCH   2   4
BRANCH   1  13
ATOM     12  O   UNL     1      37.791 -21.702 -16.045  0.00  0.00    -0.287 OA
ATOM     13  C   UNL     1      36.848 -22.464 -16.226  0.00  0.00    +0.196 C 
BRANCH  13  14
ATOM     14  C   UNL     1      35.938 -22.248 -17.377  0.00  0.00    +0.039 C 
ATOM     15  C   UNL     1      36.386 -21.553 -18.500  0.00  0.00    +0.003 C 
ATOM     16  C   UNL     1      34.634 -22.741 -17.335  0.00  0.00    +0.003 C 
ATOM     17  C   UNL     1      35.529 -21.350 -19.582  0.00  0.00    +0.000 C 
ATOM     18  C   UNL     1      33.777 -22.538 -18.419  0.00  0.00    +0.000 C 
ATOM     19  C   UNL     1      34.226 -21.842 -19.542  0.00  0.00    +0.000 C 
ENDBRANCH  13  14
ENDBRANCH   1  13
TORSDOF 6
ENDMDL
