MODEL 1
REMARK VINA RESULT:     -11.5      0.000      0.000
REMARK  Name = 2398
REMARK  6 active torsions:
REMARK  status: ('A' for Active; 'I' for Inactive)
REMARK    1  A    between atoms: C_4  and  C_20
REMARK    2  A    between atoms: C_5  and  C_10
REMARK    3  A    between atoms: N_19  and  C_28
REMARK    4  A    between atoms: C_28  and  C_29
REMARK    5  A    between atoms: C_29  and  C_30
REMARK    6  A    between atoms: C_30  and  N_31
REMARK                            x       y       z     vdW  Elec       q    Type
REMARK                         _______ _______ _______ _____ _____    ______ ____
ROOT
ATOM      1  O   UNL     1      32.472 -13.167 -26.910  0.00  0.00    -0.270 OA
ATOM      2  O   UNL     1      34.381 -17.153 -25.718  0.00  0.00    -0.270 OA
ATOM      3  N   UNL     1      33.404 -15.283 -26.688  0.00  0.00    -0.248 N 
ATOM      4  C   UNL     1      33.259 -14.014 -24.798  0.00  0.00    +0.059 C 
ATOM      5  C   UNL     1      33.810 -15.190 -24.445  0.00  0.00    +0.059 C 
ATOM      6  C   UNL     1      32.984 -14.059 -26.257  0.00  0.00    +0.252 C 
ATOM      7  C   UNL     1      33.914 -16.028 -25.667  0.00  0.00    +0.252 C 
ATOM      8  H   UNL     1      33.344 -15.590 -27.622  0.00  0.00    +0.158 HD
ENDROOT
BRANCH   5  10
ATOM      9  N   UNL     1      34.897 -15.582 -21.038  0.00  0.00    -0.312 N 
ATOM     10  C   UNL     1      34.265 -15.634 -23.165  0.00  0.00    +0.020 C 
ATOM     11  C   UNL     1      34.591 -16.960 -22.764  0.00  0.00    +0.015 C 
ATOM     12  C   UNL     1      34.985 -16.900 -21.426  0.00  0.00    +0.048 C 
ATOM     13  C   UNL     1      34.463 -14.810 -22.081  0.00  0.00    +0.062 C 
ATOM     14  C   UNL     1      34.589 -18.211 -23.415  0.00  0.00    +0.001 C 
ATOM     15  C   UNL     1      35.378 -18.031 -20.702  0.00  0.00    +0.015 C 
ATOM     16  C   UNL     1      34.980 -19.351 -22.703  0.00  0.00    +0.000 C 
ATOM     17  C   UNL     1      35.368 -19.260 -21.368  0.00  0.00    +0.001 C 
ATOM     18  H   UNL     1      35.115 -15.243 -20.139  0.00  0.00    +0.152 HD
ENDBRANCH   5  10
BRANCH   4  20
ATOM     19  N   UNL     1      31.961 -11.630 -22.431  0.00  0.00    -0.286 N 
ATOM     20  C   UNL     1      32.938 -12.880 -23.987  0.00  0.00    +0.021 C 
ATOM     21  C   UNL     1      33.502 -11.573 -24.043  0.00  0.00    +0.015 C 
ATOM     22  C   UNL     1      32.871 -10.810 -23.057  0.00  0.00    +0.052 C 
ATOM     23  C   UNL     1      31.994 -12.882 -22.984  0.00  0.00    +0.066 C 
ATOM     24  C   UNL     1      34.491 -10.965 -24.842  0.00  0.00    +0.001 C 
ATOM     25  C   UNL     1      33.182  -9.465 -22.829  0.00  0.00    +0.015 C 
ATOM     26  C   UNL     1      34.812  -9.620 -24.624  0.00  0.00    +0.000 C 
ATOM     27  C   UNL     1      34.167  -8.884 -23.633  0.00  0.00    +0.001 C 
BRANCH  19  28
ATOM     28  C   UNL     1      31.089 -11.243 -21.342  0.00  0.00    +0.093 C 
BRANCH  28  29
ATOM     29  C   UNL     1      31.660 -11.638 -19.980  0.00  0.00    -0.002 C 
BRANCH  29  30
ATOM     30  C   UNL     1      31.497 -10.506 -18.968  0.00  0.00    -0.084 C 
BRANCH  30  31
ATOM     31  N   UNL     1      32.497  -9.471 -19.201  0.00  0.00    +0.380 N 
ATOM     32  H   UNL     1      33.191  -9.495 -18.453  0.00  0.00    -0.089 HD
ATOM     33  H   UNL     1      32.045  -8.557 -19.216  0.00  0.00    -0.089 HD
ATOM     34  H   UNL     1      32.957  -9.637 -20.096  0.00  0.00    -0.089 HD
ENDBRANCH  30  31
ENDBRANCH  29  30
ENDBRANCH  28  29
ENDBRANCH  19  28
ENDBRANCH   4  20
TORSDOF 6
ENDMDL
MODEL 2
REMARK VINA RESULT:     -10.6      2.894      7.457
REMARK  Name = 2398
REMARK  6 active torsions:
REMARK  status: ('A' for Active; 'I' for Inactive)
REMARK    1  A    between atoms: C_4  and  C_20
REMARK    2  A    between atoms: C_5  and  C_10
REMARK    3  A    between atoms: N_19  and  C_28
REMARK    4  A    between atoms: C_28  and  C_29
REMARK    5  A    between atoms: C_29  and  C_30
REMARK    6  A    between atoms: C_30  and  N_31
REMARK                            x       y       z     vdW  Elec       q    Type
REMARK                         _______ _______ _______ _____ _____    ______ ____
ROOT
ATOM      1  O   UNL     1      32.953 -14.399 -21.202  0.00  0.00    -0.270 OA
ATOM      2  O   UNL     1      30.946 -10.758 -19.285  0.00  0.00    -0.270 OA
ATOM      3  N   UNL     1      31.911 -12.777 -19.905  0.00  0.00    -0.248 N 
ATOM      4  C   UNL     1      32.432 -12.207 -22.052  0.00  0.00    +0.059 C 
ATOM      5  C   UNL     1      31.831 -11.140 -21.493  0.00  0.00    +0.059 C 
ATOM      6  C   UNL     1      32.488 -13.285 -21.032  0.00  0.00    +0.252 C 
ATOM      7  C   UNL     1      31.489 -11.495 -20.092  0.00  0.00    +0.252 C 
ATOM      8  H   UNL     1      31.811 -13.277 -19.062  0.00  0.00    +0.158 HD
ENDROOT
BRANCH   5  10
ATOM      9  N   UNL     1      30.803  -8.303 -23.450  0.00  0.00    -0.312 N 
ATOM     10  C   UNL     1      31.553  -9.855 -22.053  0.00  0.00    +0.020 C 
ATOM     11  C   UNL     1      31.897  -8.579 -21.526  0.00  0.00    +0.015 C 
ATOM     12  C   UNL     1      31.415  -7.622 -22.422  0.00  0.00    +0.048 C 
ATOM     13  C   UNL     1      30.881  -9.652 -23.236  0.00  0.00    +0.062 C 
ATOM     14  C   UNL     1      32.574  -8.144 -20.369  0.00  0.00    +0.001 C 
ATOM     15  C   UNL     1      31.577  -6.247 -22.218  0.00  0.00    +0.015 C 
ATOM     16  C   UNL     1      32.743  -6.771 -20.152  0.00  0.00    +0.000 C 
ATOM     17  C   UNL     1      32.252  -5.839 -21.064  0.00  0.00    +0.001 C 
ATOM     18  H   UNL     1      30.371  -7.880 -24.228  0.00  0.00    +0.152 HD
ENDBRANCH   5  10
BRANCH   4  20
ATOM     19  N   UNL     1      33.308 -13.275 -25.378  0.00  0.00    -0.286 N 
ATOM     20  C   UNL     1      32.934 -12.375 -23.381  0.00  0.00    +0.021 C 
ATOM     21  C   UNL     1      33.781 -11.497 -24.117  0.00  0.00    +0.015 C 
ATOM     22  C   UNL     1      34.000 -12.086 -25.364  0.00  0.00    +0.052 C 
ATOM     23  C   UNL     1      32.660 -13.459 -24.186  0.00  0.00    +0.066 C 
ATOM     24  C   UNL     1      34.385 -10.255 -23.837  0.00  0.00    +0.001 C 
ATOM     25  C   UNL     1      34.794 -11.491 -26.351  0.00  0.00    +0.015 C 
ATOM     26  C   UNL     1      35.182  -9.649 -24.815  0.00  0.00    +0.000 C 
ATOM     27  C   UNL     1      35.382 -10.259 -26.052  0.00  0.00    +0.001 C 
BRANCH  19  28
ATOM     28  C   UNL     1      33.258 -14.207 -26.484  0.00  0.00    +0.093 C 
BRANCH  28  29
ATOM     29  C   UNL     1      33.062 -15.649 -26.014  0.00  0.00    -0.002 C 
BRANCH  29  30
ATOM     30  C   UNL     1      34.361 -16.225 -25.457  0.00  0.00    -0.084 C 
BRANCH  30  31
ATOM     31  N   UNL     1      34.188 -17.634 -25.124  0.00  0.00    +0.380 N 
ATOM     32  H   UNL     1      34.729 -17.854 -24.288  0.00  0.00    -0.089 HD
ATOM     33  H   UNL     1      34.514 -18.210 -25.900  0.00  0.00    -0.089 HD
ATOM     34  H   UNL     1      33.202 -17.823 -24.950  0.00  0.00    -0.089 HD
ENDBRANCH  30  31
ENDBRANCH  29  30
ENDBRANCH  28  29
ENDBRANCH  19  28
ENDBRANCH   4  20
TORSDOF 6
ENDMDL
MODEL 3
REMARK VINA RESULT:     -10.1      1.521      5.730
REMARK  Name = 2398
REMARK  6 active torsions:
REMARK  status: ('A' for Active; 'I' for Inactive)
REMARK    1  A    between atoms: C_4  and  C_20
REMARK    2  A    between atoms: C_5  and  C_10
REMARK    3  A    between atoms: N_19  and  C_28
REMARK    4  A    between atoms: C_28  and  C_29
REMARK    5  A    between atoms: C_29  and  C_30
REMARK    6  A    between atoms: C_30  and  N_31
REMARK                            x       y       z     vdW  Elec       q    Type
REMARK                         _______ _______ _______ _____ _____    ______ ____
ROOT
ATOM      1  O   UNL     1      32.706 -15.676 -25.604  0.00  0.00    -0.270 OA
ATOM      2  O   UNL     1      33.967 -11.853 -27.783  0.00  0.00    -0.270 OA
ATOM      3  N   UNL     1      33.282 -13.943 -27.041  0.00  0.00    -0.248 N 
ATOM      4  C   UNL     1      33.387 -13.509 -24.803  0.00  0.00    +0.059 C 
ATOM      5  C   UNL     1      33.769 -12.388 -25.443  0.00  0.00    +0.059 C 
ATOM      6  C   UNL     1      33.070 -14.535 -25.830  0.00  0.00    +0.252 C 
ATOM      7  C   UNL     1      33.702 -12.654 -26.903  0.00  0.00    +0.252 C 
ATOM      8  H   UNL     1      33.148 -14.394 -27.906  0.00  0.00    +0.158 HD
ENDROOT
BRANCH   5  10
ATOM      9  N   UNL     1      35.410  -9.353 -24.427  0.00  0.00    -0.312 N 
ATOM     10  C   UNL     1      34.160 -11.123 -24.907  0.00  0.00    +0.020 C 
ATOM     11  C   UNL     1      33.380 -10.226 -24.124  0.00  0.00    +0.015 C 
ATOM     12  C   UNL     1      34.188  -9.124 -23.836  0.00  0.00    +0.048 C 
ATOM     13  C   UNL     1      35.403 -10.557 -25.077  0.00  0.00    +0.062 C 
ATOM     14  C   UNL     1      32.060 -10.247 -23.631  0.00  0.00    +0.001 C 
ATOM     15  C   UNL     1      33.740  -8.037 -23.077  0.00  0.00    +0.015 C 
ATOM     16  C   UNL     1      31.599  -9.166 -22.870  0.00  0.00    +0.000 C 
ATOM     17  C   UNL     1      32.428  -8.080 -22.598  0.00  0.00    +0.001 C 
ATOM     18  H   UNL     1      36.178  -8.738 -24.389  0.00  0.00    +0.152 HD
ENDBRANCH   5  10
BRANCH   4  20
ATOM     19  N   UNL     1      32.702 -13.562 -21.268  0.00  0.00    -0.286 N 
ATOM     20  C   UNL     1      33.296 -13.769 -23.400  0.00  0.00    +0.021 C 
ATOM     21  C   UNL     1      33.926 -14.808 -22.656  0.00  0.00    +0.015 C 
ATOM     22  C   UNL     1      33.537 -14.655 -21.323  0.00  0.00    +0.052 C 
ATOM     23  C   UNL     1      32.549 -13.021 -22.516  0.00  0.00    +0.066 C 
ATOM     24  C   UNL     1      34.792 -15.867 -22.993  0.00  0.00    +0.001 C 
ATOM     25  C   UNL     1      33.973 -15.511 -20.306  0.00  0.00    +0.015 C 
ATOM     26  C   UNL     1      35.237 -16.731 -21.985  0.00  0.00    +0.000 C 
ATOM     27  C   UNL     1      34.832 -16.555 -20.664  0.00  0.00    +0.001 C 
BRANCH  19  28
ATOM     28  C   UNL     1      32.067 -13.048 -20.073  0.00  0.00    +0.093 C 
BRANCH  28  29
ATOM     29  C   UNL     1      31.510 -11.639 -20.278  0.00  0.00    -0.002 C 
BRANCH  29  30
ATOM     30  C   UNL     1      31.544 -10.842 -18.977  0.00  0.00    -0.084 C 
BRANCH  30  31
ATOM     31  N   UNL     1      32.444  -9.703 -19.105  0.00  0.00    +0.380 N 
ATOM     32  H   UNL     1      33.267  -9.978 -19.640  0.00  0.00    -0.089 HD
ATOM     33  H   UNL     1      32.732  -9.391 -18.177  0.00  0.00    -0.089 HD
ATOM     34  H   UNL     1      31.965  -8.942 -19.585  0.00  0.00    -0.089 HD
ENDBRANCH  30  31
ENDBRANCH  29  30
ENDBRANCH  28  29
ENDBRANCH  19  28
ENDBRANCH   4  20
TORSDOF 6
ENDMDL
MODEL 4
REMARK VINA RESULT:      -9.9      1.388      2.010
REMARK  Name = 2398
REMARK  6 active torsions:
REMARK  status: ('A' for Active; 'I' for Inactive)
REMARK    1  A    between atoms: C_4  and  C_20
REMARK    2  A    between atoms: C_5  and  C_10
REMARK    3  A    between atoms: N_19  and  C_28
REMARK    4  A    between atoms: C_28  and  C_29
REMARK    5  A    between atoms: C_29  and  C_30
REMARK    6  A    between atoms: C_30  and  N_31
REMARK                            x       y       z     vdW  Elec       q    Type
REMARK                         _______ _______ _______ _____ _____    ______ ____
ROOT
ATOM      1  O   UNL     1      32.000 -13.044 -27.326  0.00  0.00    -0.270 OA
ATOM      2  O   UNL     1      33.350 -17.225 -26.041  0.00  0.00    -0.270 OA
ATOM      3  N   UNL     1      32.550 -15.281 -27.027  0.00  0.00    -0.248 N 
ATOM      4  C   UNL     1      33.053 -13.856 -25.318  0.00  0.00    +0.059 C 
ATOM      5  C   UNL     1      33.440 -15.087 -24.935  0.00  0.00    +0.059 C 
ATOM      6  C   UNL     1      32.466 -13.965 -26.679  0.00  0.00    +0.252 C 
ATOM      7  C   UNL     1      33.122 -16.027 -26.040  0.00  0.00    +0.252 C 
ATOM      8  H   UNL     1      32.235 -15.646 -27.887  0.00  0.00    +0.158 HD
ENDROOT
BRANCH   5  10
ATOM      9  N   UNL     1      35.560 -16.403 -22.344  0.00  0.00    -0.312 N 
ATOM     10  C   UNL     1      34.069 -15.507 -23.723  0.00  0.00    +0.020 C 
ATOM     11  C   UNL     1      33.599 -15.342 -22.390  0.00  0.00    +0.015 C 
ATOM     12  C   UNL     1      34.552 -15.912 -21.545  0.00  0.00    +0.048 C 
ATOM     13  C   UNL     1      35.278 -16.163 -23.662  0.00  0.00    +0.062 C 
ATOM     14  C   UNL     1      32.449 -14.760 -21.820  0.00  0.00    +0.001 C 
ATOM     15  C   UNL     1      34.414 -15.929 -20.153  0.00  0.00    +0.015 C 
ATOM     16  C   UNL     1      32.297 -14.769 -20.429  0.00  0.00    +0.000 C 
ATOM     17  C   UNL     1      33.265 -15.346 -19.610  0.00  0.00    +0.001 C 
ATOM     18  H   UNL     1      36.368 -16.860 -22.016  0.00  0.00    +0.152 HD
ENDBRANCH   5  10
BRANCH   4  20
ATOM     19  N   UNL     1      32.717 -11.047 -23.089  0.00  0.00    -0.286 N 
ATOM     20  C   UNL     1      33.128 -12.617 -24.608  0.00  0.00    +0.021 C 
ATOM     21  C   UNL     1      33.958 -11.493 -24.888  0.00  0.00    +0.015 C 
ATOM     22  C   UNL     1      33.680 -10.524 -23.922  0.00  0.00    +0.052 C 
ATOM     23  C   UNL     1      32.378 -12.310 -23.494  0.00  0.00    +0.066 C 
ATOM     24  C   UNL     1      34.922 -11.209 -25.876  0.00  0.00    +0.001 C 
ATOM     25  C   UNL     1      34.320  -9.280 -23.894  0.00  0.00    +0.015 C 
ATOM     26  C   UNL     1      35.570  -9.968 -25.860  0.00  0.00    +0.000 C 
ATOM     27  C   UNL     1      35.272  -9.020 -24.883  0.00  0.00    +0.001 C 
BRANCH  19  28
ATOM     28  C   UNL     1      32.138 -10.374 -21.946  0.00  0.00    +0.093 C 
BRANCH  28  29
ATOM     29  C   UNL     1      31.266 -11.310 -21.109  0.00  0.00    -0.002 C 
BRANCH  29  30
ATOM     30  C   UNL     1      31.616 -11.206 -19.627  0.00  0.00    -0.084 C 
BRANCH  30  31
ATOM     31  N   UNL     1      32.050  -9.852 -19.303  0.00  0.00    +0.380 N 
ATOM     32  H   UNL     1      31.251  -9.307 -18.979  0.00  0.00    -0.089 HD
ATOM     33  H   UNL     1      32.445  -9.414 -20.135  0.00  0.00    -0.089 HD
ATOM     34  H   UNL     1      32.757  -9.887 -18.570  0.00  0.00    -0.089 HD
ENDBRANCH  30  31
ENDBRANCH  29  30
ENDBRANCH  28  29
ENDBRANCH  19  28
ENDBRANCH   4  20
TORSDOF 6
ENDMDL
MODEL 5
REMARK VINA RESULT:      -9.8      1.438      2.867
REMARK  Name = 2398
REMARK  6 active torsions:
REMARK  status: ('A' for Active; 'I' for Inactive)
REMARK    1  A    between atoms: C_4  and  C_20
REMARK    2  A    between atoms: C_5  and  C_10
REMARK    3  A    between atoms: N_19  and  C_28
REMARK    4  A    between atoms: C_28  and  C_29
REMARK    5  A    between atoms: C_29  and  C_30
REMARK    6  A    between atoms: C_30  and  N_31
REMARK                            x       y       z     vdW  Elec       q    Type
REMARK                         _______ _______ _______ _____ _____    ______ ____
ROOT
ATOM      1  O   UNL     1      32.815 -12.537 -27.280  0.00  0.00    -0.270 OA
ATOM      2  O   UNL     1      33.610 -16.759 -25.700  0.00  0.00    -0.270 OA
ATOM      3  N   UNL     1      33.135 -14.796 -26.847  0.00  0.00    -0.248 N 
ATOM      4  C   UNL     1      33.456 -13.355 -25.108  0.00  0.00    +0.059 C 
ATOM      5  C   UNL     1      33.679 -14.597 -24.640  0.00  0.00    +0.059 C 
ATOM      6  C   UNL     1      33.096 -13.467 -26.545  0.00  0.00    +0.252 C 
ATOM      7  C   UNL     1      33.477 -15.548 -25.763  0.00  0.00    +0.252 C 
ATOM      8  H   UNL     1      32.940 -15.166 -27.739  0.00  0.00    +0.158 HD
ENDROOT
BRANCH   5  10
ATOM      9  N   UNL     1      34.411 -14.982 -21.139  0.00  0.00    -0.312 N 
ATOM     10  C   UNL     1      34.066 -15.021 -23.331  0.00  0.00    +0.020 C 
ATOM     11  C   UNL     1      34.632 -16.269 -22.947  0.00  0.00    +0.015 C 
ATOM     12  C   UNL     1      34.839 -16.219 -21.568  0.00  0.00    +0.048 C 
ATOM     13  C   UNL     1      33.942 -14.252 -22.197  0.00  0.00    +0.062 C 
ATOM     14  C   UNL     1      34.989 -17.441 -23.644  0.00  0.00    +0.001 C 
ATOM     15  C   UNL     1      35.387 -17.285 -20.846  0.00  0.00    +0.015 C 
ATOM     16  C   UNL     1      35.538 -18.516 -22.935  0.00  0.00    +0.000 C 
ATOM     17  C   UNL     1      35.734 -18.437 -21.558  0.00  0.00    +0.001 C 
ATOM     18  H   UNL     1      34.437 -14.669 -20.206  0.00  0.00    +0.152 HD
ENDBRANCH   5  10
BRANCH   4  20
ATOM     19  N   UNL     1      34.149 -10.051 -23.855  0.00  0.00    -0.286 N 
ATOM     20  C   UNL     1      33.508 -12.102 -24.421  0.00  0.00    +0.021 C 
ATOM     21  C   UNL     1      32.688 -11.657 -23.343  0.00  0.00    +0.015 C 
ATOM     22  C   UNL     1      33.113 -10.369 -23.008  0.00  0.00    +0.052 C 
ATOM     23  C   UNL     1      34.395 -11.089 -24.712  0.00  0.00    +0.066 C 
ATOM     24  C   UNL     1      31.624 -12.231 -22.620  0.00  0.00    +0.001 C 
ATOM     25  C   UNL     1      32.522  -9.623 -21.982  0.00  0.00    +0.015 C 
ATOM     26  C   UNL     1      31.025 -11.496 -21.590  0.00  0.00    +0.000 C 
ATOM     27  C   UNL     1      31.468 -10.212 -21.278  0.00  0.00    +0.001 C 
BRANCH  19  28
ATOM     28  C   UNL     1      34.883  -8.803 -23.855  0.00  0.00    +0.093 C 
BRANCH  28  29
ATOM     29  C   UNL     1      34.220  -7.746 -24.738  0.00  0.00    -0.002 C 
BRANCH  29  30
ATOM     30  C   UNL     1      33.445  -6.736 -23.895  0.00  0.00    -0.084 C 
BRANCH  30  31
ATOM     31  N   UNL     1      32.051  -6.684 -24.322  0.00  0.00    +0.380 N 
ATOM     32  H   UNL     1      31.674  -5.754 -24.140  0.00  0.00    -0.089 HD
ATOM     33  H   UNL     1      31.511  -7.377 -23.803  0.00  0.00    -0.089 HD
ATOM     34  H   UNL     1      31.993  -6.886 -25.319  0.00  0.00    -0.089 HD
ENDBRANCH  30  31
ENDBRANCH  29  30
ENDBRANCH  28  29
ENDBRANCH  19  28
ENDBRANCH   4  20
TORSDOF 6
ENDMDL
MODEL 6
REMARK VINA RESULT:      -9.5      3.523      5.957
REMARK  Name = 2398
REMARK  6 active torsions:
REMARK  status: ('A' for Active; 'I' for Inactive)
REMARK    1  A    between atoms: C_4  and  C_20
REMARK    2  A    between atoms: C_5  and  C_10
REMARK    3  A    between atoms: N_19  and  C_28
REMARK    4  A    between atoms: C_28  and  C_29
REMARK    5  A    between atoms: C_29  and  C_30
REMARK    6  A    between atoms: C_30  and  N_31
REMARK                            x       y       z     vdW  Elec       q    Type
REMARK                         _______ _______ _______ _____ _____    ______ ____
ROOT
ATOM      1  O   UNL     1      30.445 -11.021 -20.278  0.00  0.00    -0.270 OA
ATOM      2  O   UNL     1      32.980 -14.081 -22.550  0.00  0.00    -0.270 OA
ATOM      3  N   UNL     1      31.587 -12.836 -21.172  0.00  0.00    -0.248 N 
ATOM      4  C   UNL     1      31.900 -10.816 -22.186  0.00  0.00    +0.059 C 
ATOM      5  C   UNL     1      32.654 -11.713 -22.847  0.00  0.00    +0.059 C 
ATOM      6  C   UNL     1      31.200 -11.531 -21.087  0.00  0.00    +0.252 C 
ATOM      7  C   UNL     1      32.459 -13.035 -22.200  0.00  0.00    +0.252 C 
ATOM      8  H   UNL     1      31.275 -13.545 -20.563  0.00  0.00    +0.158 HD
ENDROOT
BRANCH   5  10
ATOM      9  N   UNL     1      35.065 -10.680 -25.309  0.00  0.00    -0.312 N 
ATOM     10  C   UNL     1      33.499 -11.529 -23.985  0.00  0.00    +0.020 C 
ATOM     11  C   UNL     1      33.521 -12.285 -25.190  0.00  0.00    +0.015 C 
ATOM     12  C   UNL     1      34.512 -11.733 -26.003  0.00  0.00    +0.048 C 
ATOM     13  C   UNL     1      34.460 -10.550 -24.088  0.00  0.00    +0.062 C 
ATOM     14  C   UNL     1      32.790 -13.391 -25.668  0.00  0.00    +0.001 C 
ATOM     15  C   UNL     1      34.810 -12.232 -27.276  0.00  0.00    +0.015 C 
ATOM     16  C   UNL     1      33.078 -13.902 -26.939  0.00  0.00    +0.000 C 
ATOM     17  C   UNL     1      34.072 -13.329 -27.729  0.00  0.00    +0.001 C 
ATOM     18  H   UNL     1      35.792 -10.105 -25.642  0.00  0.00    +0.152 HD
ENDBRANCH   5  10
BRANCH   4  20
ATOM     19  N   UNL     1      31.298  -7.491 -23.432  0.00  0.00    -0.286 N 
ATOM     20  C   UNL     1      31.752  -9.411 -22.409  0.00  0.00    +0.021 C 
ATOM     21  C   UNL     1      32.016  -8.345 -21.500  0.00  0.00    +0.015 C 
ATOM     22  C   UNL     1      31.724  -7.154 -22.167  0.00  0.00    +0.052 C 
ATOM     23  C   UNL     1      31.311  -8.851 -23.588  0.00  0.00    +0.066 C 
ATOM     24  C   UNL     1      32.478  -8.283 -20.170  0.00  0.00    +0.001 C 
ATOM     25  C   UNL     1      31.870  -5.897 -21.568  0.00  0.00    +0.015 C 
ATOM     26  C   UNL     1      32.630  -7.033 -19.559  0.00  0.00    +0.000 C 
ATOM     27  C   UNL     1      32.329  -5.860 -20.249  0.00  0.00    +0.001 C 
BRANCH  19  28
ATOM     28  C   UNL     1      30.890  -6.557 -24.459  0.00  0.00    +0.093 C 
BRANCH  28  29
ATOM     29  C   UNL     1      32.073  -5.771 -25.025  0.00  0.00    -0.002 C 
BRANCH  29  30
ATOM     30  C   UNL     1      31.784  -4.272 -25.029  0.00  0.00    -0.084 C 
BRANCH  30  31
ATOM     31  N   UNL     1      30.515  -4.000 -24.365  0.00  0.00    +0.380 N 
ATOM     32  H   UNL     1      29.746  -4.265 -24.981  0.00  0.00    -0.089 HD
ATOM     33  H   UNL     1      30.450  -3.005 -24.149  0.00  0.00    -0.089 HD
ATOM     34  H   UNL     1      30.459  -4.539 -23.502  0.00  0.00    -0.089 HD
ENDBRANCH  30  31
ENDBRANCH  29  30
ENDBRANCH  28  29
ENDBRANCH  19  28
ENDBRANCH   4  20
TORSDOF 6
ENDMDL
MODEL 7
REMARK VINA RESULT:      -9.2      3.382      8.685
REMARK  Name = 2398
REMARK  6 active torsions:
REMARK  status: ('A' for Active; 'I' for Inactive)
REMARK    1  A    between atoms: C_4  and  C_20
REMARK    2  A    between atoms: C_5  and  C_10
REMARK    3  A    between atoms: N_19  and  C_28
REMARK    4  A    between atoms: C_28  and  C_29
REMARK    5  A    between atoms: C_29  and  C_30
REMARK    6  A    between atoms: C_30  and  N_31
REMARK                            x       y       z     vdW  Elec       q    Type
REMARK                         _______ _______ _______ _____ _____    ______ ____
ROOT
ATOM      1  O   UNL     1      31.472 -10.856 -19.744  0.00  0.00    -0.270 OA
ATOM      2  O   UNL     1      32.132  -6.367 -20.347  0.00  0.00    -0.270 OA
ATOM      3  N   UNL     1      31.640  -8.540 -19.694  0.00  0.00    -0.248 N 
ATOM      4  C   UNL     1      32.450  -9.595 -21.547  0.00  0.00    +0.059 C 
ATOM      5  C   UNL     1      32.634  -8.274 -21.730  0.00  0.00    +0.059 C 
ATOM      6  C   UNL     1      31.798  -9.785 -20.226  0.00  0.00    +0.252 C 
ATOM      7  C   UNL     1      32.114  -7.573 -20.529  0.00  0.00    +0.252 C 
ATOM      8  H   UNL     1      31.232  -8.363 -18.815  0.00  0.00    +0.158 HD
ENDROOT
BRANCH   5  10
ATOM      9  N   UNL     1      34.758  -6.899 -24.288  0.00  0.00    -0.312 N 
ATOM     10  C   UNL     1      33.231  -7.582 -22.828  0.00  0.00    +0.020 C 
ATOM     11  C   UNL     1      32.613  -6.663 -23.723  0.00  0.00    +0.015 C 
ATOM     12  C   UNL     1      33.593  -6.250 -24.628  0.00  0.00    +0.048 C 
ATOM     13  C   UNL     1      34.549  -7.706 -23.202  0.00  0.00    +0.062 C 
ATOM     14  C   UNL     1      31.310  -6.141 -23.849  0.00  0.00    +0.001 C 
ATOM     15  C   UNL     1      33.334  -5.338 -25.657  0.00  0.00    +0.015 C 
ATOM     16  C   UNL     1      31.036  -5.228 -24.875  0.00  0.00    +0.000 C 
ATOM     17  C   UNL     1      32.034  -4.834 -25.763  0.00  0.00    +0.001 C 
ATOM     18  H   UNL     1      35.618  -6.799 -24.758  0.00  0.00    +0.152 HD
ENDBRANCH   5  10
BRANCH   4  20
ATOM     19  N   UNL     1      33.415 -11.798 -24.227  0.00  0.00    -0.286 N 
ATOM     20  C   UNL     1      32.767 -10.686 -22.416  0.00  0.00    +0.021 C 
ATOM     21  C   UNL     1      32.687 -12.081 -22.138  0.00  0.00    +0.015 C 
ATOM     22  C   UNL     1      33.098 -12.755 -23.290  0.00  0.00    +0.052 C 
ATOM     23  C   UNL     1      33.219 -10.546 -23.710  0.00  0.00    +0.066 C 
ATOM     24  C   UNL     1      32.302 -12.835 -21.011  0.00  0.00    +0.001 C 
ATOM     25  C   UNL     1      33.145 -14.151 -23.372  0.00  0.00    +0.015 C 
ATOM     26  C   UNL     1      32.343 -14.233 -21.080  0.00  0.00    +0.000 C 
ATOM     27  C   UNL     1      32.759 -14.878 -22.243  0.00  0.00    +0.001 C 
BRANCH  19  28
ATOM     28  C   UNL     1      33.890 -12.060 -25.569  0.00  0.00    +0.093 C 
BRANCH  28  29
ATOM     29  C   UNL     1      32.813 -12.698 -26.446  0.00  0.00    -0.002 C 
BRANCH  29  30
ATOM     30  C   UNL     1      33.302 -14.016 -27.044  0.00  0.00    -0.084 C 
BRANCH  30  31
ATOM     31  N   UNL     1      32.414 -15.106 -26.659  0.00  0.00    +0.380 N 
ATOM     32  H   UNL     1      32.897 -15.724 -26.008  0.00  0.00    -0.089 HD
ATOM     33  H   UNL     1      32.143 -15.633 -27.489  0.00  0.00    -0.089 HD
ATOM     34  H   UNL     1      31.581 -14.725 -26.211  0.00  0.00    -0.089 HD
ENDBRANCH  30  31
ENDBRANCH  29  30
ENDBRANCH  28  29
ENDBRANCH  19  28
ENDBRANCH   4  20
TORSDOF 6
ENDMDL
MODEL 8
REMARK VINA RESULT:      -9.2      1.913      6.292
REMARK  Name = 2398
REMARK  6 active torsions:
REMARK  status: ('A' for Active; 'I' for Inactive)
REMARK    1  A    between atoms: C_4  and  C_20
REMARK    2  A    between atoms: C_5  and  C_10
REMARK    3  A    between atoms: N_19  and  C_28
REMARK    4  A    between atoms: C_28  and  C_29
REMARK    5  A    between atoms: C_29  and  C_30
REMARK    6  A    between atoms: C_30  and  N_31
REMARK                            x       y       z     vdW  Elec       q    Type
REMARK                         _______ _______ _______ _____ _____    ______ ____
ROOT
ATOM      1  O   UNL     1      32.592 -16.464 -26.390  0.00  0.00    -0.270 OA
ATOM      2  O   UNL     1      32.511 -12.097 -27.759  0.00  0.00    -0.270 OA
ATOM      3  N   UNL     1      32.384 -14.390 -27.414  0.00  0.00    -0.248 N 
ATOM      4  C   UNL     1      33.312 -14.425 -25.330  0.00  0.00    +0.059 C 
ATOM      5  C   UNL     1      33.298 -13.142 -25.736  0.00  0.00    +0.059 C 
ATOM      6  C   UNL     1      32.723 -15.253 -26.414  0.00  0.00    +0.252 C 
ATOM      7  C   UNL     1      32.694 -13.102 -27.092  0.00  0.00    +0.252 C 
ATOM      8  H   UNL     1      31.968 -14.664 -28.264  0.00  0.00    +0.158 HD
ENDROOT
BRANCH   5  10
ATOM      9  N   UNL     1      35.022 -10.262 -24.442  0.00  0.00    -0.312 N 
ATOM     10  C   UNL     1      33.738 -11.967 -25.053  0.00  0.00    +0.020 C 
ATOM     11  C   UNL     1      33.048 -11.225 -24.054  0.00  0.00    +0.015 C 
ATOM     12  C   UNL     1      33.874 -10.162 -23.688  0.00  0.00    +0.048 C 
ATOM     13  C   UNL     1      34.949 -11.349 -25.270  0.00  0.00    +0.062 C 
ATOM     14  C   UNL     1      31.794 -11.358 -23.424  0.00  0.00    +0.001 C 
ATOM     15  C   UNL     1      33.509  -9.219 -22.720  0.00  0.00    +0.015 C 
ATOM     16  C   UNL     1      31.415 -10.422 -22.454  0.00  0.00    +0.000 C 
ATOM     17  C   UNL     1      32.261  -9.371 -22.108  0.00  0.00    +0.001 C 
ATOM     18  H   UNL     1      35.785  -9.641 -24.393  0.00  0.00    +0.152 HD
ENDBRANCH   5  10
BRANCH   4  20
ATOM     19  N   UNL     1      35.017 -16.216 -22.712  0.00  0.00    -0.286 N 
ATOM     20  C   UNL     1      33.802 -14.988 -24.110  0.00  0.00    +0.021 C 
ATOM     21  C   UNL     1      33.360 -14.724 -22.781  0.00  0.00    +0.015 C 
ATOM     22  C   UNL     1      34.138 -15.507 -21.925  0.00  0.00    +0.052 C 
ATOM     23  C   UNL     1      34.823 -15.909 -24.032  0.00  0.00    +0.066 C 
ATOM     24  C   UNL     1      32.368 -13.891 -22.226  0.00  0.00    +0.001 C 
ATOM     25  C   UNL     1      33.973 -15.498 -20.536  0.00  0.00    +0.015 C 
ATOM     26  C   UNL     1      32.193 -13.873 -20.837  0.00  0.00    +0.000 C 
ATOM     27  C   UNL     1      32.984 -14.664 -20.007  0.00  0.00    +0.001 C 
BRANCH  19  28
ATOM     28  C   UNL     1      36.010 -17.152 -22.230  0.00  0.00    +0.093 C 
BRANCH  28  29
ATOM     29  C   UNL     1      35.558 -18.604 -22.389  0.00  0.00    -0.002 C 
BRANCH  29  30
ATOM     30  C   UNL     1      35.006 -19.153 -21.076  0.00  0.00    -0.084 C 
BRANCH  30  31
ATOM     31  N   UNL     1      33.695 -19.753 -21.290  0.00  0.00    +0.380 N 
ATOM     32  H   UNL     1      33.049 -19.045 -21.639  0.00  0.00    -0.089 HD
ATOM     33  H   UNL     1      33.344 -20.128 -20.409  0.00  0.00    -0.089 HD
ATOM     34  H   UNL     1      33.773 -20.507 -21.972  0.00  0.00    -0.089 HD
ENDBRANCH  30  31
ENDBRANCH  29  30
ENDBRANCH  28  29
ENDBRANCH  19  28
ENDBRANCH   4  20
TORSDOF 6
ENDMDL
MODEL 9
REMARK VINA RESULT:      -9.1      3.438      8.410
REMARK  Name = 2398
REMARK  6 active torsions:
REMARK  status: ('A' for Active; 'I' for Inactive)
REMARK    1  A    between atoms: C_4  and  C_20
REMARK    2  A    between atoms: C_5  and  C_10
REMARK    3  A    between atoms: N_19  and  C_28
REMARK    4  A    between atoms: C_28  and  C_29
REMARK    5  A    between atoms: C_29  and  C_30
REMARK    6  A    between atoms: C_30  and  N_31
REMARK                            x       y       z     vdW  Elec       q    Type
REMARK                         _______ _______ _______ _____ _____    ______ ____
ROOT
ATOM      1  O   UNL     1      32.698  -9.956 -19.329  0.00  0.00    -0.270 OA
ATOM      2  O   UNL     1      31.598  -5.670 -20.506  0.00  0.00    -0.270 OA
ATOM      3  N   UNL     1      32.140  -7.710 -19.537  0.00  0.00    -0.248 N 
ATOM      4  C   UNL     1      32.354  -8.905 -21.469  0.00  0.00    +0.059 C 
ATOM      5  C   UNL     1      32.020  -7.648 -21.815  0.00  0.00    +0.059 C 
ATOM      6  C   UNL     1      32.433  -8.964 -19.986  0.00  0.00    +0.252 C 
ATOM      7  C   UNL     1      31.880  -6.855 -20.567  0.00  0.00    +0.252 C 
ATOM      8  H   UNL     1      32.119  -7.455 -18.586  0.00  0.00    +0.158 HD
ENDROOT
BRANCH   5  10
ATOM      9  N   UNL     1      30.822  -6.321 -24.937  0.00  0.00    -0.312 N 
ATOM     10  C   UNL     1      31.834  -7.080 -23.113  0.00  0.00    +0.020 C 
ATOM     11  C   UNL     1      32.832  -6.625 -24.019  0.00  0.00    +0.015 C 
ATOM     12  C   UNL     1      32.171  -6.154 -25.155  0.00  0.00    +0.048 C 
ATOM     13  C   UNL     1      30.609  -6.880 -23.706  0.00  0.00    +0.062 C 
ATOM     14  C   UNL     1      34.240  -6.569 -23.982  0.00  0.00    +0.001 C 
ATOM     15  C   UNL     1      32.849  -5.627 -26.260  0.00  0.00    +0.015 C 
ATOM     16  C   UNL     1      34.932  -6.043 -25.080  0.00  0.00    +0.000 C 
ATOM     17  C   UNL     1      34.245  -5.581 -26.200  0.00  0.00    +0.001 C 
ATOM     18  H   UNL     1      30.113  -6.074 -25.574  0.00  0.00    +0.152 HD
ENDBRANCH   5  10
BRANCH   4  20
ATOM     19  N   UNL     1      32.419 -12.102 -23.126  0.00  0.00    -0.286 N 
ATOM     20  C   UNL     1      32.587 -10.045 -22.299  0.00  0.00    +0.021 C 
ATOM     21  C   UNL     1      33.491 -10.164 -23.395  0.00  0.00    +0.015 C 
ATOM     22  C   UNL     1      33.365 -11.463 -23.893  0.00  0.00    +0.052 C 
ATOM     23  C   UNL     1      31.942 -11.255 -22.162  0.00  0.00    +0.066 C 
ATOM     24  C   UNL     1      34.407  -9.287 -24.009  0.00  0.00    +0.001 C 
ATOM     25  C   UNL     1      34.112 -11.929 -24.981  0.00  0.00    +0.015 C 
ATOM     26  C   UNL     1      35.161  -9.741 -25.097  0.00  0.00    +0.000 C 
ATOM     27  C   UNL     1      35.014 -11.041 -25.574  0.00  0.00    +0.001 C 
BRANCH  19  28
ATOM     28  C   UNL     1      31.977 -13.469 -23.301  0.00  0.00    +0.093 C 
BRANCH  28  29
ATOM     29  C   UNL     1      32.675 -14.427 -22.335  0.00  0.00    -0.002 C 
BRANCH  29  30
ATOM     30  C   UNL     1      33.796 -15.191 -23.035  0.00  0.00    -0.084 C 
BRANCH  30  31
ATOM     31  N   UNL     1      33.508 -15.320 -24.459  0.00  0.00    +0.380 N 
ATOM     32  H   UNL     1      33.249 -14.409 -24.837  0.00  0.00    -0.089 HD
ATOM     33  H   UNL     1      32.737 -15.974 -24.591  0.00  0.00    -0.089 HD
ATOM     34  H   UNL     1      34.335 -15.667 -24.943  0.00  0.00    -0.089 HD
ENDBRANCH  30  31
ENDBRANCH  29  30
ENDBRANCH  28  29
ENDBRANCH  19  28
ENDBRANCH   4  20
TORSDOF 6
ENDMDL
