MODEL 1
REMARK VINA RESULT:      -9.8      0.000      0.000
REMARK  Name = 17182
REMARK  10 active torsions:
REMARK  status: ('A' for Active; 'I' for Inactive)
REMARK    1  A    between atoms: C_1  and  C_3
REMARK    2  A    between atoms: C_1  and  C_19
REMARK    3  A    between atoms: C_3  and  N_4
REMARK    4  A    between atoms: N_5  and  C_12
REMARK    5  A    between atoms: C_12  and  C_13
REMARK    6  A    between atoms: C_13  and  O_14
REMARK    7  A    between atoms: O_14  and  C_15
REMARK    8  A    between atoms: C_15  and  C_16
REMARK    9  A    between atoms: C_16  and  O_17
REMARK   10  A    between atoms: C_19  and  N_21
REMARK                            x       y       z     vdW  Elec       q    Type
REMARK                         _______ _______ _______ _____ _____    ______ ____
ROOT
ATOM      1  C   UNL     1      33.578 -10.580 -23.974  0.00  0.00    -0.001 C 
ATOM      2  C   UNL     1      34.688  -9.539 -24.165  0.00  0.00    -0.000 C 
ENDROOT
BRANCH   1   3
ATOM      3  C   UNL     1      33.743 -11.715 -25.001  0.00  0.00    -0.076 C 
BRANCH   3   4
ATOM      4  N   UNL     1      34.127 -12.976 -24.367  0.00  0.00    +0.384 N 
ATOM      5  N   UNL     1      33.570 -15.361 -22.831  0.00  0.00    +0.386 N 
ATOM      6  C   UNL     1      33.911 -12.915 -22.916  0.00  0.00    -0.101 C 
ATOM      7  C   UNL     1      33.383 -14.100 -24.948  0.00  0.00    -0.101 C 
ATOM      8  C   UNL     1      34.311 -14.236 -22.249  0.00  0.00    -0.101 C 
ATOM      9  C   UNL     1      33.784 -15.421 -24.282  0.00  0.00    -0.101 C 
ATOM     10  H   UNL     1      35.122 -13.124 -24.538  0.00  0.00    -0.080 HD
ATOM     11  H   UNL     1      32.575 -15.213 -22.659  0.00  0.00    -0.080 HD
BRANCH   5  12
ATOM     12  C   UNL     1      33.955 -16.620 -22.197  0.00  0.00    -0.045 C 
BRANCH  12  13
ATOM     13  C   UNL     1      34.769 -16.361 -20.939  0.00  0.00    +0.120 C 
BRANCH  13  14
ATOM     14  O   UNL     1      35.499 -17.537 -20.617  0.00  0.00    -0.353 OA
BRANCH  14  15
ATOM     15  C   UNL     1      35.266 -18.571 -21.563  0.00  0.00    +0.174 C 
BRANCH  15  16
ATOM     16  C   UNL     1      35.313 -19.911 -20.853  0.00  0.00    +0.169 C 
BRANCH  16  17
ATOM     17  O   UNL     1      36.409 -19.919 -19.948  0.00  0.00    -0.379 OA
ATOM     18  H   UNL     1      36.942 -19.119 -20.079  0.00  0.00    +0.211 HD
ENDBRANCH  16  17
ENDBRANCH  15  16
ENDBRANCH  14  15
ENDBRANCH  13  14
ENDBRANCH  12  13
ENDBRANCH   5  12
ENDBRANCH   3   4
ENDBRANCH   1   3
BRANCH   1  19
ATOM     19  C   UNL     1      32.188  -9.919 -23.998  0.00  0.00    +0.093 C 
BRANCH  19  21
ATOM     20  S   UNL     1      32.374  -7.335 -20.276  0.00  0.00    -0.084 S 
ATOM     21  N   UNL     1      31.955  -9.093 -22.806  0.00  0.00    -0.286 N 
ATOM     22  C   UNL     1      31.810  -7.696 -22.996  0.00  0.00    +0.058 C 
ATOM     23  C   UNL     1      31.826  -9.764 -21.563  0.00  0.00    +0.058 C 
ATOM     24  C   UNL     1      31.953  -6.797 -21.921  0.00  0.00    +0.043 C 
ATOM     25  C   UNL     1      31.971  -9.070 -20.346  0.00  0.00    +0.043 C 
ATOM     26  C   UNL     1      31.483  -7.143 -24.255  0.00  0.00    +0.015 C 
ATOM     27  C   UNL     1      31.514 -11.138 -21.484  0.00  0.00    +0.015 C 
ATOM     28  C   UNL     1      31.801  -5.413 -22.115  0.00  0.00    +0.008 C 
ATOM     29  C   UNL     1      31.835  -9.738 -19.115  0.00  0.00    +0.008 C 
ATOM     30  C   UNL     1      31.328  -5.766 -24.441  0.00  0.00    +0.001 C 
ATOM     31  C   UNL     1      31.375 -11.797 -20.259  0.00  0.00    +0.001 C 
ATOM     32  C   UNL     1      31.491  -4.900 -23.370  0.00  0.00    +0.001 C 
ATOM     33  C   UNL     1      31.539 -11.096 -19.074  0.00  0.00    +0.001 C 
ENDBRANCH  19  21
ENDBRANCH   1  19
TORSDOF 10
ENDMDL
MODEL 2
REMARK VINA RESULT:      -8.8      2.801      5.619
REMARK  Name = 17182
REMARK  10 active torsions:
REMARK  status: ('A' for Active; 'I' for Inactive)
REMARK    1  A    between atoms: C_1  and  C_3
REMARK    2  A    between atoms: C_1  and  C_19
REMARK    3  A    between atoms: C_3  and  N_4
REMARK    4  A    between atoms: N_5  and  C_12
REMARK    5  A    between atoms: C_12  and  C_13
REMARK    6  A    between atoms: C_13  and  O_14
REMARK    7  A    between atoms: O_14  and  C_15
REMARK    8  A    between atoms: C_15  and  C_16
REMARK    9  A    between atoms: C_16  and  O_17
REMARK   10  A    between atoms: C_19  and  N_21
REMARK                            x       y       z     vdW  Elec       q    Type
REMARK                         _______ _______ _______ _____ _____    ______ ____
ROOT
ATOM      1  C   UNL     1      33.749 -15.273 -21.730  0.00  0.00    -0.001 C 
ATOM      2  C   UNL     1      34.808 -14.164 -21.744  0.00  0.00    -0.000 C 
ENDROOT
BRANCH   1   3
ATOM      3  C   UNL     1      34.279 -16.511 -22.477  0.00  0.00    -0.076 C 
BRANCH   3   4
ATOM      4  N   UNL     1      34.757 -17.543 -21.558  0.00  0.00    +0.384 N 
ATOM      5  N   UNL     1      35.648 -20.219 -20.928  0.00  0.00    +0.386 N 
ATOM      6  C   UNL     1      33.814 -18.666 -21.502  0.00  0.00    -0.101 C 
ATOM      7  C   UNL     1      36.091 -18.013 -21.949  0.00  0.00    -0.101 C 
ATOM      8  C   UNL     1      34.313 -19.751 -20.540  0.00  0.00    -0.101 C 
ATOM      9  C   UNL     1      36.591 -19.095 -20.985  0.00  0.00    -0.101 C 
ATOM     10  H   UNL     1      34.820 -17.130 -20.627  0.00  0.00    -0.080 HD
ATOM     11  H   UNL     1      35.585 -20.634 -21.859  0.00  0.00    -0.080 HD
BRANCH   5  12
ATOM     12  C   UNL     1      36.125 -21.250 -20.008  0.00  0.00    -0.045 C 
BRANCH  12  13
ATOM     13  C   UNL     1      34.964 -21.860 -19.238  0.00  0.00    +0.120 C 
BRANCH  13  14
ATOM     14  O   UNL     1      35.450 -22.363 -18.000  0.00  0.00    -0.353 OA
BRANCH  14  15
ATOM     15  C   UNL     1      36.728 -21.828 -17.686  0.00  0.00    +0.174 C 
BRANCH  15  16
ATOM     16  C   UNL     1      37.060 -22.152 -16.242  0.00  0.00    +0.169 C 
BRANCH  16  17
ATOM     17  O   UNL     1      37.120 -23.564 -16.086  0.00  0.00    -0.379 OA
ATOM     18  H   UNL     1      36.387 -23.974 -16.571  0.00  0.00    +0.211 HD
ENDBRANCH  16  17
ENDBRANCH  15  16
ENDBRANCH  14  15
ENDBRANCH  13  14
ENDBRANCH  12  13
ENDBRANCH   5  12
ENDBRANCH   3   4
ENDBRANCH   1   3
BRANCH   1  19
ATOM     19  C   UNL     1      32.399 -14.758 -22.261  0.00  0.00    +0.093 C 
BRANCH  19  21
ATOM     20  S   UNL     1      33.684 -10.807 -24.077  0.00  0.00    -0.084 S 
ATOM     21  N   UNL     1      32.537 -13.466 -22.945  0.00  0.00    -0.286 N 
ATOM     22  C   UNL     1      32.900 -13.486 -24.314  0.00  0.00    +0.058 C 
ATOM     23  C   UNL     1      32.233 -12.298 -22.199  0.00  0.00    +0.058 C 
ATOM     24  C   UNL     1      33.410 -12.336 -24.949  0.00  0.00    +0.043 C 
ATOM     25  C   UNL     1      32.677 -11.030 -22.623  0.00  0.00    +0.043 C 
ATOM     26  C   UNL     1      32.737 -14.640 -25.113  0.00  0.00    +0.015 C 
ATOM     27  C   UNL     1      31.448 -12.343 -21.026  0.00  0.00    +0.015 C 
ATOM     28  C   UNL     1      33.760 -12.360 -26.310  0.00  0.00    +0.008 C 
ATOM     29  C   UNL     1      32.366  -9.874 -21.885  0.00  0.00    +0.008 C 
ATOM     30  C   UNL     1      33.082 -14.657 -26.468  0.00  0.00    +0.001 C 
ATOM     31  C   UNL     1      31.139 -11.190 -20.298  0.00  0.00    +0.001 C 
ATOM     32  C   UNL     1      33.598 -13.517 -27.065  0.00  0.00    +0.001 C 
ATOM     33  C   UNL     1      31.601  -9.956 -20.727  0.00  0.00    +0.001 C 
ENDBRANCH  19  21
ENDBRANCH   1  19
TORSDOF 10
ENDMDL
MODEL 3
REMARK VINA RESULT:      -8.8     12.518     15.774
REMARK  Name = 17182
REMARK  10 active torsions:
REMARK  status: ('A' for Active; 'I' for Inactive)
REMARK    1  A    between atoms: C_1  and  C_3
REMARK    2  A    between atoms: C_1  and  C_19
REMARK    3  A    between atoms: C_3  and  N_4
REMARK    4  A    between atoms: N_5  and  C_12
REMARK    5  A    between atoms: C_12  and  C_13
REMARK    6  A    between atoms: C_13  and  O_14
REMARK    7  A    between atoms: O_14  and  C_15
REMARK    8  A    between atoms: C_15  and  C_16
REMARK    9  A    between atoms: C_16  and  O_17
REMARK   10  A    between atoms: C_19  and  N_21
REMARK                            x       y       z     vdW  Elec       q    Type
REMARK                         _______ _______ _______ _____ _____    ______ ____
ROOT
ATOM      1  C   UNL     1      34.066 -23.845 -13.325  0.00  0.00    -0.001 C 
ATOM      2  C   UNL     1      34.837 -24.255 -12.064  0.00  0.00    -0.000 C 
ENDROOT
BRANCH   1   3
ATOM      3  C   UNL     1      32.560 -23.768 -13.013  0.00  0.00    -0.076 C 
BRANCH   3   4
ATOM      4  N   UNL     1      31.742 -24.029 -14.197  0.00  0.00    +0.384 N 
ATOM      5  N   UNL     1      29.249 -24.013 -15.661  0.00  0.00    +0.386 N 
ATOM      6  C   UNL     1      30.672 -24.986 -13.890  0.00  0.00    -0.101 C 
ATOM      7  C   UNL     1      31.178 -22.782 -14.727  0.00  0.00    -0.101 C 
ATOM      8  C   UNL     1      29.812 -25.260 -15.128  0.00  0.00    -0.101 C 
ATOM      9  C   UNL     1      30.320 -23.057 -15.967  0.00  0.00    -0.101 C 
ATOM     10  H   UNL     1      32.344 -24.440 -14.911  0.00  0.00    -0.080 HD
ATOM     11  H   UNL     1      28.646 -23.603 -14.947  0.00  0.00    -0.080 HD
BRANCH   5  12
ATOM     12  C   UNL     1      28.433 -24.276 -16.845  0.00  0.00    -0.045 C 
BRANCH  12  13
ATOM     13  C   UNL     1      27.687 -23.021 -17.271  0.00  0.00    +0.120 C 
BRANCH  13  14
ATOM     14  O   UNL     1      27.066 -22.448 -16.127  0.00  0.00    -0.353 OA
BRANCH  14  15
ATOM     15  C   UNL     1      25.891 -21.730 -16.476  0.00  0.00    +0.174 C 
BRANCH  15  16
ATOM     16  C   UNL     1      26.009 -21.256 -17.912  0.00  0.00    +0.169 C 
BRANCH  16  17
ATOM     17  O   UNL     1      26.036 -19.834 -17.930  0.00  0.00    -0.379 OA
ATOM     18  H   UNL     1      26.320 -19.505 -17.063  0.00  0.00    +0.211 HD
ENDBRANCH  16  17
ENDBRANCH  15  16
ENDBRANCH  14  15
ENDBRANCH  13  14
ENDBRANCH  12  13
ENDBRANCH   5  12
ENDBRANCH   3   4
ENDBRANCH   1   3
BRANCH   1  19
ATOM     19  C   UNL     1      34.409 -24.767 -14.508  0.00  0.00    +0.093 C 
BRANCH  19  21
ATOM     20  S   UNL     1      37.720 -22.374 -16.476  0.00  0.00    -0.084 S 
ATOM     21  N   UNL     1      35.493 -24.218 -15.334  0.00  0.00    -0.286 N 
ATOM     22  C   UNL     1      36.821 -24.573 -14.990  0.00  0.00    +0.058 C 
ATOM     23  C   UNL     1      35.123 -23.427 -16.452  0.00  0.00    +0.058 C 
ATOM     24  C   UNL     1      37.918 -23.828 -15.466  0.00  0.00    +0.043 C 
ATOM     25  C   UNL     1      36.052 -22.569 -17.072  0.00  0.00    +0.043 C 
ATOM     26  C   UNL     1      37.110 -25.700 -14.190  0.00  0.00    +0.015 C 
ATOM     27  C   UNL     1      33.830 -23.487 -17.016  0.00  0.00    +0.015 C 
ATOM     28  C   UNL     1      39.234 -24.190 -15.128  0.00  0.00    +0.008 C 
ATOM     29  C   UNL     1      35.683 -21.793 -18.186  0.00  0.00    +0.008 C 
ATOM     30  C   UNL     1      38.420 -26.059 -13.861  0.00  0.00    +0.001 C 
ATOM     31  C   UNL     1      33.470 -22.717 -18.125  0.00  0.00    +0.001 C 
ATOM     32  C   UNL     1      39.483 -25.300 -14.328  0.00  0.00    +0.001 C 
ATOM     33  C   UNL     1      34.397 -21.867 -18.709  0.00  0.00    +0.001 C 
ENDBRANCH  19  21
ENDBRANCH   1  19
TORSDOF 10
ENDMDL
MODEL 4
REMARK VINA RESULT:      -8.8      6.791     12.483
REMARK  Name = 17182
REMARK  10 active torsions:
REMARK  status: ('A' for Active; 'I' for Inactive)
REMARK    1  A    between atoms: C_1  and  C_3
REMARK    2  A    between atoms: C_1  and  C_19
REMARK    3  A    between atoms: C_3  and  N_4
REMARK    4  A    between atoms: N_5  and  C_12
REMARK    5  A    between atoms: C_12  and  C_13
REMARK    6  A    between atoms: C_13  and  O_14
REMARK    7  A    between atoms: O_14  and  C_15
REMARK    8  A    between atoms: C_15  and  C_16
REMARK    9  A    between atoms: C_16  and  O_17
REMARK   10  A    between atoms: C_19  and  N_21
REMARK                            x       y       z     vdW  Elec       q    Type
REMARK                         _______ _______ _______ _____ _____    ______ ____
ROOT
ATOM      1  C   UNL     1      33.963 -21.065 -19.369  0.00  0.00    -0.001 C 
ATOM      2  C   UNL     1      32.627 -20.507 -19.874  0.00  0.00    -0.000 C 
ENDROOT
BRANCH   1   3
ATOM      3  C   UNL     1      35.074 -20.767 -20.394  0.00  0.00    -0.076 C 
BRANCH   3   4
ATOM      4  N   UNL     1      34.759 -19.602 -21.220  0.00  0.00    +0.384 N 
ATOM      5  N   UNL     1      35.446 -17.512 -23.095  0.00  0.00    +0.386 N 
ATOM      6  C   UNL     1      35.557 -18.441 -20.808  0.00  0.00    -0.101 C 
ATOM      7  C   UNL     1      34.978 -19.896 -22.641  0.00  0.00    -0.101 C 
ATOM      8  C   UNL     1      35.230 -17.219 -21.674  0.00  0.00    -0.101 C 
ATOM      9  C   UNL     1      34.649 -18.674 -23.507  0.00  0.00    -0.101 C 
ATOM     10  H   UNL     1      33.772 -19.379 -21.085  0.00  0.00    -0.080 HD
ATOM     11  H   UNL     1      36.432 -17.735 -23.231  0.00  0.00    -0.080 HD
BRANCH   5  12
ATOM     12  C   UNL     1      35.129 -16.348 -23.920  0.00  0.00    -0.045 C 
BRANCH  12  13
ATOM     13  C   UNL     1      34.165 -16.725 -25.034  0.00  0.00    +0.120 C 
BRANCH  13  14
ATOM     14  O   UNL     1      34.218 -15.724 -26.042  0.00  0.00    -0.353 OA
BRANCH  14  15
ATOM     15  C   UNL     1      32.931 -15.184 -26.308  0.00  0.00    +0.174 C 
BRANCH  15  16
ATOM     16  C   UNL     1      33.077 -13.726 -26.699  0.00  0.00    +0.169 C 
BRANCH  16  17
ATOM     17  O   UNL     1      33.924 -13.634 -27.838  0.00  0.00    -0.379 OA
ATOM     18  H   UNL     1      33.392 -13.730 -28.644  0.00  0.00    +0.211 HD
ENDBRANCH  16  17
ENDBRANCH  15  16
ENDBRANCH  14  15
ENDBRANCH  13  14
ENDBRANCH  12  13
ENDBRANCH   5  12
ENDBRANCH   3   4
ENDBRANCH   1   3
BRANCH   1  19
ATOM     19  C   UNL     1      33.840 -22.554 -19.003  0.00  0.00    +0.093 C 
BRANCH  19  21
ATOM     20  S   UNL     1      34.274 -24.102 -14.763  0.00  0.00    -0.084 S 
ATOM     21  N   UNL     1      33.953 -22.773 -17.555  0.00  0.00    -0.286 N 
ATOM     22  C   UNL     1      35.246 -22.693 -16.980  0.00  0.00    +0.058 C 
ATOM     23  C   UNL     1      32.751 -22.981 -16.831  0.00  0.00    +0.058 C 
ATOM     24  C   UNL     1      35.512 -23.237 -15.708  0.00  0.00    +0.043 C 
ATOM     25  C   UNL     1      32.769 -23.554 -15.545  0.00  0.00    +0.043 C 
ATOM     26  C   UNL     1      36.314 -22.039 -17.633  0.00  0.00    +0.015 C 
ATOM     27  C   UNL     1      31.493 -22.596 -17.344  0.00  0.00    +0.015 C 
ATOM     28  C   UNL     1      36.794 -23.148 -15.140  0.00  0.00    +0.008 C 
ATOM     29  C   UNL     1      31.574 -23.752 -14.828  0.00  0.00    +0.008 C 
ATOM     30  C   UNL     1      37.587 -21.948 -17.062  0.00  0.00    +0.001 C 
ATOM     31  C   UNL     1      30.310 -22.790 -16.625  0.00  0.00    +0.001 C 
ATOM     32  C   UNL     1      37.828 -22.507 -15.815  0.00  0.00    +0.001 C 
ATOM     33  C   UNL     1      30.351 -23.372 -15.368  0.00  0.00    +0.001 C 
ENDBRANCH  19  21
ENDBRANCH   1  19
TORSDOF 10
ENDMDL
MODEL 5
REMARK VINA RESULT:      -8.7      2.262      4.548
REMARK  Name = 17182
REMARK  10 active torsions:
REMARK  status: ('A' for Active; 'I' for Inactive)
REMARK    1  A    between atoms: C_1  and  C_3
REMARK    2  A    between atoms: C_1  and  C_19
REMARK    3  A    between atoms: C_3  and  N_4
REMARK    4  A    between atoms: N_5  and  C_12
REMARK    5  A    between atoms: C_12  and  C_13
REMARK    6  A    between atoms: C_13  and  O_14
REMARK    7  A    between atoms: O_14  and  C_15
REMARK    8  A    between atoms: C_15  and  C_16
REMARK    9  A    between atoms: C_16  and  O_17
REMARK   10  A    between atoms: C_19  and  N_21
REMARK                            x       y       z     vdW  Elec       q    Type
REMARK                         _______ _______ _______ _____ _____    ______ ____
ROOT
ATOM      1  C   UNL     1      33.552 -13.638 -23.781  0.00  0.00    -0.001 C 
ATOM      2  C   UNL     1      33.191 -14.734 -24.792  0.00  0.00    -0.000 C 
ENDROOT
BRANCH   1   3
ATOM      3  C   UNL     1      34.259 -14.263 -22.564  0.00  0.00    -0.076 C 
BRANCH   3   4
ATOM      4  N   UNL     1      34.011 -15.701 -22.465  0.00  0.00    +0.384 N 
ATOM      5  N   UNL     1      34.475 -18.324 -21.344  0.00  0.00    +0.386 N 
ATOM      6  C   UNL     1      35.225 -16.461 -22.783  0.00  0.00    -0.101 C 
ATOM      7  C   UNL     1      33.520 -16.055 -21.128  0.00  0.00    -0.101 C 
ATOM      8  C   UNL     1      34.969 -17.969 -22.679  0.00  0.00    -0.101 C 
ATOM      9  C   UNL     1      33.262 -17.563 -21.026  0.00  0.00    -0.101 C 
ATOM     10  H   UNL     1      33.292 -15.943 -23.148  0.00  0.00    -0.080 HD
ATOM     11  H   UNL     1      35.195 -18.083 -20.661  0.00  0.00    -0.080 HD
BRANCH   5  12
ATOM     12  C   UNL     1      34.227 -19.761 -21.247  0.00  0.00    -0.045 C 
BRANCH  12  13
ATOM     13  C   UNL     1      32.805 -20.029 -20.779  0.00  0.00    +0.120 C 
BRANCH  13  14
ATOM     14  O   UNL     1      32.841 -21.002 -19.742  0.00  0.00    -0.353 OA
BRANCH  14  15
ATOM     15  C   UNL     1      34.173 -21.397 -19.445  0.00  0.00    +0.174 C 
BRANCH  15  16
ATOM     16  C   UNL     1      34.138 -22.617 -18.544  0.00  0.00    +0.169 C 
BRANCH  16  17
ATOM     17  O   UNL     1      33.821 -23.762 -19.325  0.00  0.00    -0.379 OA
ATOM     18  H   UNL     1      34.477 -23.861 -20.033  0.00  0.00    +0.211 HD
ENDBRANCH  16  17
ENDBRANCH  15  16
ENDBRANCH  14  15
ENDBRANCH  13  14
ENDBRANCH  12  13
ENDBRANCH   5  12
ENDBRANCH   3   4
ENDBRANCH   1   3
BRANCH   1  19
ATOM     19  C   UNL     1      32.320 -12.791 -23.417  0.00  0.00    +0.093 C 
BRANCH  19  21
ATOM     20  S   UNL     1      32.721  -8.384 -22.427  0.00  0.00    -0.084 S 
ATOM     21  N   UNL     1      32.696 -11.447 -22.959  0.00  0.00    -0.286 N 
ATOM     22  C   UNL     1      32.242 -11.041 -21.679  0.00  0.00    +0.058 C 
ATOM     23  C   UNL     1      33.540 -10.683 -23.804  0.00  0.00    +0.058 C 
ATOM     24  C   UNL     1      32.228  -9.682 -21.310  0.00  0.00    +0.043 C 
ATOM     25  C   UNL     1      33.654  -9.288 -23.647  0.00  0.00    +0.043 C 
ATOM     26  C   UNL     1      31.819 -11.974 -20.706  0.00  0.00    +0.015 C 
ATOM     27  C   UNL     1      34.328 -11.280 -24.813  0.00  0.00    +0.015 C 
ATOM     28  C   UNL     1      31.784  -9.286 -20.037  0.00  0.00    +0.008 C 
ATOM     29  C   UNL     1      34.499  -8.535 -24.483  0.00  0.00    +0.008 C 
ATOM     30  C   UNL     1      31.383 -11.576 -19.439  0.00  0.00    +0.001 C 
ATOM     31  C   UNL     1      35.169 -10.528 -25.638  0.00  0.00    +0.001 C 
ATOM     32  C   UNL     1      31.362 -10.230 -19.106  0.00  0.00    +0.001 C 
ATOM     33  C   UNL     1      35.251  -9.154 -25.475  0.00  0.00    +0.001 C 
ENDBRANCH  19  21
ENDBRANCH   1  19
TORSDOF 10
ENDMDL
MODEL 6
REMARK VINA RESULT:      -8.6      4.278      8.838
REMARK  Name = 17182
REMARK  10 active torsions:
REMARK  status: ('A' for Active; 'I' for Inactive)
REMARK    1  A    between atoms: C_1  and  C_3
REMARK    2  A    between atoms: C_1  and  C_19
REMARK    3  A    between atoms: C_3  and  N_4
REMARK    4  A    between atoms: N_5  and  C_12
REMARK    5  A    between atoms: C_12  and  C_13
REMARK    6  A    between atoms: C_13  and  O_14
REMARK    7  A    between atoms: O_14  and  C_15
REMARK    8  A    between atoms: C_15  and  C_16
REMARK    9  A    between atoms: C_16  and  O_17
REMARK   10  A    between atoms: C_19  and  N_21
REMARK                            x       y       z     vdW  Elec       q    Type
REMARK                         _______ _______ _______ _____ _____    ______ ____
ROOT
ATOM      1  C   UNL     1      32.952 -14.157 -21.157  0.00  0.00    -0.001 C 
ATOM      2  C   UNL     1      32.338 -15.558 -21.275  0.00  0.00    -0.000 C 
ENDROOT
BRANCH   1   3
ATOM      3  C   UNL     1      31.945 -13.102 -21.654  0.00  0.00    -0.076 C 
BRANCH   3   4
ATOM      4  N   UNL     1      32.298 -11.755 -21.208  0.00  0.00    +0.384 N 
ATOM      5  N   UNL     1      31.652  -9.051 -20.417  0.00  0.00    +0.386 N 
ATOM      6  C   UNL     1      31.877 -10.753 -22.194  0.00  0.00    -0.101 C 
ATOM      7  C   UNL     1      31.703 -11.466 -19.898  0.00  0.00    -0.101 C 
ATOM      8  C   UNL     1      32.245  -9.340 -21.729  0.00  0.00    -0.101 C 
ATOM      9  C   UNL     1      32.073 -10.054 -19.432  0.00  0.00    -0.101 C 
ATOM     10  H   UNL     1      33.314 -11.710 -21.118  0.00  0.00    -0.080 HD
ATOM     11  H   UNL     1      30.637  -9.095 -20.508  0.00  0.00    -0.080 HD
BRANCH   5  12
ATOM     12  C   UNL     1      32.008  -7.705 -19.973  0.00  0.00    -0.045 C 
BRANCH  12  13
ATOM     13  C   UNL     1      32.275  -6.799 -21.164  0.00  0.00    +0.120 C 
BRANCH  13  14
ATOM     14  O   UNL     1      31.130  -5.988 -21.388  0.00  0.00    -0.353 OA
BRANCH  14  15
ATOM     15  C   UNL     1      30.907  -5.770 -22.774  0.00  0.00    +0.174 C 
BRANCH  15  16
ATOM     16  C   UNL     1      31.094  -4.296 -23.081  0.00  0.00    +0.169 C 
BRANCH  16  17
ATOM     17  O   UNL     1      30.381  -3.529 -22.120  0.00  0.00    -0.379 OA
ATOM     18  H   UNL     1      29.586  -3.154 -22.532  0.00  0.00    +0.211 HD
ENDBRANCH  16  17
ENDBRANCH  15  16
ENDBRANCH  14  15
ENDBRANCH  13  14
ENDBRANCH  12  13
ENDBRANCH   5  12
ENDBRANCH   3   4
ENDBRANCH   1   3
BRANCH   1  19
ATOM     19  C   UNL     1      34.319 -14.089 -21.860  0.00  0.00    +0.093 C 
BRANCH  19  21
ATOM     20  S   UNL     1      33.320 -16.130 -25.784  0.00  0.00    -0.084 S 
ATOM     21  N   UNL     1      34.278 -14.698 -23.197  0.00  0.00    -0.286 N 
ATOM     22  C   UNL     1      33.972 -13.851 -24.291  0.00  0.00    +0.058 C 
ATOM     23  C   UNL     1      34.611 -16.072 -23.297  0.00  0.00    +0.058 C 
ATOM     24  C   UNL     1      33.550 -14.382 -25.526  0.00  0.00    +0.043 C 
ATOM     25  C   UNL     1      34.253 -16.824 -24.433  0.00  0.00    +0.043 C 
ATOM     26  C   UNL     1      34.107 -12.447 -24.210  0.00  0.00    +0.015 C 
ATOM     27  C   UNL     1      35.344 -16.740 -22.292  0.00  0.00    +0.015 C 
ATOM     28  C   UNL     1      33.256 -13.538 -26.610  0.00  0.00    +0.008 C 
ATOM     29  C   UNL     1      34.593 -18.186 -24.532  0.00  0.00    +0.008 C 
ATOM     30  C   UNL     1      33.818 -11.612 -25.294  0.00  0.00    +0.001 C 
ATOM     31  C   UNL     1      35.683 -18.092 -22.397  0.00  0.00    +0.001 C 
ATOM     32  C   UNL     1      33.388 -12.159 -26.494  0.00  0.00    +0.001 C 
ATOM     33  C   UNL     1      35.304 -18.816 -23.517  0.00  0.00    +0.001 C 
ENDBRANCH  19  21
ENDBRANCH   1  19
TORSDOF 10
ENDMDL
MODEL 7
REMARK VINA RESULT:      -8.5      5.835     12.377
REMARK  Name = 17182
REMARK  10 active torsions:
REMARK  status: ('A' for Active; 'I' for Inactive)
REMARK    1  A    between atoms: C_1  and  C_3
REMARK    2  A    between atoms: C_1  and  C_19
REMARK    3  A    between atoms: C_3  and  N_4
REMARK    4  A    between atoms: N_5  and  C_12
REMARK    5  A    between atoms: C_12  and  C_13
REMARK    6  A    between atoms: C_13  and  O_14
REMARK    7  A    between atoms: O_14  and  C_15
REMARK    8  A    between atoms: C_15  and  C_16
REMARK    9  A    between atoms: C_16  and  O_17
REMARK   10  A    between atoms: C_19  and  N_21
REMARK                            x       y       z     vdW  Elec       q    Type
REMARK                         _______ _______ _______ _____ _____    ______ ____
ROOT
ATOM      1  C   UNL     1      33.948 -21.074 -19.383  0.00  0.00    -0.001 C 
ATOM      2  C   UNL     1      32.596 -20.520 -19.851  0.00  0.00    -0.000 C 
ENDROOT
BRANCH   1   3
ATOM      3  C   UNL     1      35.029 -20.771 -20.438  0.00  0.00    -0.076 C 
BRANCH   3   4
ATOM      4  N   UNL     1      34.730 -19.556 -21.195  0.00  0.00    +0.384 N 
ATOM      5  N   UNL     1      35.440 -17.383 -22.963  0.00  0.00    +0.386 N 
ATOM      6  C   UNL     1      35.557 -18.437 -20.732  0.00  0.00    -0.101 C 
ATOM      7  C   UNL     1      34.925 -19.777 -22.633  0.00  0.00    -0.101 C 
ATOM      8  C   UNL     1      35.247 -17.163 -21.525  0.00  0.00    -0.101 C 
ATOM      9  C   UNL     1      34.613 -18.503 -23.427  0.00  0.00    -0.101 C 
ATOM     10  H   UNL     1      33.750 -19.319 -21.036  0.00  0.00    -0.080 HD
ATOM     11  H   UNL     1      36.420 -17.618 -23.124  0.00  0.00    -0.080 HD
BRANCH   5  12
ATOM     12  C   UNL     1      35.139 -16.168 -23.719  0.00  0.00    -0.045 C 
BRANCH  12  13
ATOM     13  C   UNL     1      34.487 -15.126 -22.824  0.00  0.00    +0.120 C 
BRANCH  13  14
ATOM     14  O   UNL     1      34.240 -13.955 -23.591  0.00  0.00    -0.353 OA
BRANCH  14  15
ATOM     15  C   UNL     1      32.855 -13.640 -23.630  0.00  0.00    +0.174 C 
BRANCH  15  16
ATOM     16  C   UNL     1      32.347 -13.463 -22.212  0.00  0.00    +0.169 C 
BRANCH  16  17
ATOM     17  O   UNL     1      31.413 -12.391 -22.184  0.00  0.00    -0.379 OA
ATOM     18  H   UNL     1      31.588 -11.830 -21.412  0.00  0.00    +0.211 HD
ENDBRANCH  16  17
ENDBRANCH  15  16
ENDBRANCH  14  15
ENDBRANCH  13  14
ENDBRANCH  12  13
ENDBRANCH   5  12
ENDBRANCH   3   4
ENDBRANCH   1   3
BRANCH   1  19
ATOM     19  C   UNL     1      33.840 -22.564 -19.015  0.00  0.00    +0.093 C 
BRANCH  19  21
ATOM     20  S   UNL     1      34.272 -24.102 -14.771  0.00  0.00    -0.084 S 
ATOM     21  N   UNL     1      33.951 -22.779 -17.566  0.00  0.00    -0.286 N 
ATOM     22  C   UNL     1      35.244 -22.695 -16.991  0.00  0.00    +0.058 C 
ATOM     23  C   UNL     1      32.749 -22.988 -16.844  0.00  0.00    +0.058 C 
ATOM     24  C   UNL     1      35.509 -23.236 -15.717  0.00  0.00    +0.043 C 
ATOM     25  C   UNL     1      32.767 -23.559 -15.556  0.00  0.00    +0.043 C 
ATOM     26  C   UNL     1      36.312 -22.040 -17.644  0.00  0.00    +0.015 C 
ATOM     27  C   UNL     1      31.491 -22.606 -17.358  0.00  0.00    +0.015 C 
ATOM     28  C   UNL     1      36.791 -23.143 -15.148  0.00  0.00    +0.008 C 
ATOM     29  C   UNL     1      31.572 -23.757 -14.840  0.00  0.00    +0.008 C 
ATOM     30  C   UNL     1      37.584 -21.946 -17.071  0.00  0.00    +0.001 C 
ATOM     31  C   UNL     1      30.308 -22.802 -16.641  0.00  0.00    +0.001 C 
ATOM     32  C   UNL     1      37.824 -22.502 -15.823  0.00  0.00    +0.001 C 
ATOM     33  C   UNL     1      30.349 -23.381 -15.382  0.00  0.00    +0.001 C 
ENDBRANCH  19  21
ENDBRANCH   1  19
TORSDOF 10
ENDMDL
MODEL 8
REMARK VINA RESULT:      -7.9      6.400     12.927
REMARK  Name = 17182
REMARK  10 active torsions:
REMARK  status: ('A' for Active; 'I' for Inactive)
REMARK    1  A    between atoms: C_1  and  C_3
REMARK    2  A    between atoms: C_1  and  C_19
REMARK    3  A    between atoms: C_3  and  N_4
REMARK    4  A    between atoms: N_5  and  C_12
REMARK    5  A    between atoms: C_12  and  C_13
REMARK    6  A    between atoms: C_13  and  O_14
REMARK    7  A    between atoms: O_14  and  C_15
REMARK    8  A    between atoms: C_15  and  C_16
REMARK    9  A    between atoms: C_16  and  O_17
REMARK   10  A    between atoms: C_19  and  N_21
REMARK                            x       y       z     vdW  Elec       q    Type
REMARK                         _______ _______ _______ _____ _____    ______ ____
ROOT
ATOM      1  C   UNL     1      33.856 -21.871 -18.600  0.00  0.00    -0.001 C 
ATOM      2  C   UNL     1      32.528 -21.366 -19.178  0.00  0.00    -0.000 C 
ENDROOT
BRANCH   1   3
ATOM      3  C   UNL     1      34.972 -21.725 -19.652  0.00  0.00    -0.076 C 
BRANCH   3   4
ATOM      4  N   UNL     1      35.085 -20.353 -20.143  0.00  0.00    +0.384 N 
ATOM      5  N   UNL     1      35.514 -18.387 -22.219  0.00  0.00    +0.386 N 
ATOM      6  C   UNL     1      36.423 -20.105 -20.693  0.00  0.00    -0.101 C 
ATOM      7  C   UNL     1      34.057 -20.074 -21.153  0.00  0.00    -0.101 C 
ATOM      8  C   UNL     1      36.543 -18.668 -21.211  0.00  0.00    -0.101 C 
ATOM      9  C   UNL     1      34.176 -18.635 -21.669  0.00  0.00    -0.101 C 
ATOM     10  H   UNL     1      34.941 -19.723 -19.353  0.00  0.00    -0.080 HD
ATOM     11  H   UNL     1      35.659 -19.015 -23.009  0.00  0.00    -0.080 HD
BRANCH   5  12
ATOM     12  C   UNL     1      35.627 -17.014 -22.708  0.00  0.00    -0.045 C 
BRANCH  12  13
ATOM     13  C   UNL     1      34.258 -16.355 -22.778  0.00  0.00    +0.120 C 
BRANCH  13  14
ATOM     14  O   UNL     1      34.379 -15.004 -22.351  0.00  0.00    -0.353 OA
BRANCH  14  15
ATOM     15  C   UNL     1      34.119 -14.872 -20.961  0.00  0.00    +0.174 C 
BRANCH  15  16
ATOM     16  C   UNL     1      32.838 -14.083 -20.769  0.00  0.00    +0.169 C 
BRANCH  16  17
ATOM     17  O   UNL     1      32.275 -13.797 -22.043  0.00  0.00    -0.379 OA
ATOM     18  H   UNL     1      31.618 -14.475 -22.266  0.00  0.00    +0.211 HD
ENDBRANCH  16  17
ENDBRANCH  15  16
ENDBRANCH  14  15
ENDBRANCH  13  14
ENDBRANCH  12  13
ENDBRANCH   5  12
ENDBRANCH   3   4
ENDBRANCH   1   3
BRANCH   1  19
ATOM     19  C   UNL     1      33.712 -23.298 -18.042  0.00  0.00    +0.093 C 
BRANCH  19  21
ATOM     20  S   UNL     1      33.589 -24.234 -13.607  0.00  0.00    -0.084 S 
ATOM     21  N   UNL     1      33.660 -23.309 -16.574  0.00  0.00    -0.286 N 
ATOM     22  C   UNL     1      34.891 -23.231 -15.876  0.00  0.00    +0.058 C 
ATOM     23  C   UNL     1      32.378 -23.331 -15.968  0.00  0.00    +0.058 C 
ATOM     24  C   UNL     1      34.982 -23.599 -14.519  0.00  0.00    +0.043 C 
ATOM     25  C   UNL     1      32.220 -23.710 -14.620  0.00  0.00    +0.043 C 
ATOM     26  C   UNL     1      36.069 -22.750 -16.490  0.00  0.00    +0.015 C 
ATOM     27  C   UNL     1      31.214 -22.943 -16.666  0.00  0.00    +0.015 C 
ATOM     28  C   UNL     1      36.203 -23.512 -13.830  0.00  0.00    +0.008 C 
ATOM     29  C   UNL     1      30.947 -23.722 -14.021  0.00  0.00    +0.008 C 
ATOM     30  C   UNL     1      37.280 -22.661 -15.798  0.00  0.00    +0.001 C 
ATOM     31  C   UNL     1      29.952 -22.953 -16.064  0.00  0.00    +0.001 C 
ATOM     32  C   UNL     1      37.348 -23.045 -14.467  0.00  0.00    +0.001 C 
ATOM     33  C   UNL     1      29.819 -23.346 -14.741  0.00  0.00    +0.001 C 
ENDBRANCH  19  21
ENDBRANCH   1  19
TORSDOF 10
ENDMDL
MODEL 9
REMARK VINA RESULT:      -7.9      2.588      4.866
REMARK  Name = 17182
REMARK  10 active torsions:
REMARK  status: ('A' for Active; 'I' for Inactive)
REMARK    1  A    between atoms: C_1  and  C_3
REMARK    2  A    between atoms: C_1  and  C_19
REMARK    3  A    between atoms: C_3  and  N_4
REMARK    4  A    between atoms: N_5  and  C_12
REMARK    5  A    between atoms: C_12  and  C_13
REMARK    6  A    between atoms: C_13  and  O_14
REMARK    7  A    between atoms: O_14  and  C_15
REMARK    8  A    between atoms: C_15  and  C_16
REMARK    9  A    between atoms: C_16  and  O_17
REMARK   10  A    between atoms: C_19  and  N_21
REMARK                            x       y       z     vdW  Elec       q    Type
REMARK                         _______ _______ _______ _____ _____    ______ ____
ROOT
ATOM      1  C   UNL     1      33.415  -9.251 -23.908  0.00  0.00    -0.001 C 
ATOM      2  C   UNL     1      32.503  -9.776 -22.791  0.00  0.00    -0.000 C 
ENDROOT
BRANCH   1   3
ATOM      3  C   UNL     1      34.370 -10.368 -24.369  0.00  0.00    -0.076 C 
BRANCH   3   4
ATOM      4  N   UNL     1      33.649 -11.498 -24.954  0.00  0.00    +0.384 N 
ATOM      5  N   UNL     1      33.498 -14.170 -26.046  0.00  0.00    +0.386 N 
ATOM      6  C   UNL     1      34.159 -11.802 -26.296  0.00  0.00    -0.101 C 
ATOM      7  C   UNL     1      33.744 -12.680 -24.090  0.00  0.00    -0.101 C 
ATOM      8  C   UNL     1      33.407 -12.988 -26.911  0.00  0.00    -0.101 C 
ATOM      9  C   UNL     1      32.989 -13.865 -24.704  0.00  0.00    -0.101 C 
ATOM     10  H   UNL     1      32.666 -11.236 -25.036  0.00  0.00    -0.080 HD
ATOM     11  H   UNL     1      34.481 -14.433 -25.966  0.00  0.00    -0.080 HD
BRANCH   5  12
ATOM     12  C   UNL     1      32.776 -15.298 -26.631  0.00  0.00    -0.045 C 
BRANCH  12  13
ATOM     13  C   UNL     1      33.135 -16.593 -25.918  0.00  0.00    +0.120 C 
BRANCH  13  14
ATOM     14  O   UNL     1      34.549 -16.673 -25.801  0.00  0.00    -0.353 OA
BRANCH  14  15
ATOM     15  C   UNL     1      34.940 -17.674 -24.872  0.00  0.00    +0.174 C 
BRANCH  15  16
ATOM     16  C   UNL     1      34.871 -17.101 -23.469  0.00  0.00    +0.169 C 
BRANCH  16  17
ATOM     17  O   UNL     1      35.591 -15.876 -23.432  0.00  0.00    -0.379 OA
ATOM     18  H   UNL     1      35.805 -15.655 -22.512  0.00  0.00    +0.211 HD
ENDBRANCH  16  17
ENDBRANCH  15  16
ENDBRANCH  14  15
ENDBRANCH  13  14
ENDBRANCH  12  13
ENDBRANCH   5  12
ENDBRANCH   3   4
ENDBRANCH   1   3
BRANCH   1  19
ATOM     19  C   UNL     1      34.132  -7.960 -23.477  0.00  0.00    +0.093 C 
BRANCH  19  21
ATOM     20  S   UNL     1      31.057  -4.864 -24.712  0.00  0.00    -0.084 S 
ATOM     21  N   UNL     1      33.321  -6.766 -23.751  0.00  0.00    -0.286 N 
ATOM     22  C   UNL     1      32.391  -6.365 -22.759  0.00  0.00    +0.058 C 
ATOM     23  C   UNL     1      33.576  -6.068 -24.958  0.00  0.00    +0.058 C 
ATOM     24  C   UNL     1      31.334  -5.487 -23.066  0.00  0.00    +0.043 C 
ATOM     25  C   UNL     1      32.636  -5.160 -25.484  0.00  0.00    +0.043 C 
ATOM     26  C   UNL     1      32.499  -6.795 -21.417  0.00  0.00    +0.015 C 
ATOM     27  C   UNL     1      34.788  -6.219 -25.668  0.00  0.00    +0.015 C 
ATOM     28  C   UNL     1      30.420  -5.086 -22.076  0.00  0.00    +0.008 C 
ATOM     29  C   UNL     1      32.898  -4.464 -26.678  0.00  0.00    +0.008 C 
ATOM     30  C   UNL     1      31.590  -6.390 -20.435  0.00  0.00    +0.001 C 
ATOM     31  C   UNL     1      35.044  -5.521 -26.852  0.00  0.00    +0.001 C 
ATOM     32  C   UNL     1      30.547  -5.538 -20.767  0.00  0.00    +0.001 C 
ATOM     33  C   UNL     1      34.096  -4.646 -27.359  0.00  0.00    +0.001 C 
ENDBRANCH  19  21
ENDBRANCH   1  19
TORSDOF 10
ENDMDL
