MODEL 1
REMARK VINA RESULT:     -10.8      0.000      0.000
REMARK  Name = 86677874
REMARK  5 active torsions:
REMARK  status: ('A' for Active; 'I' for Inactive)
REMARK    1  A    between atoms: C_3  and  C_11
REMARK    2  A    between atoms: C_4  and  O_31
REMARK    3  A    between atoms: C_5  and  C_16
REMARK    4  A    between atoms: C_16  and  N_18
REMARK    5  A    between atoms: O_31  and  C_32
REMARK                            x       y       z     vdW  Elec       q    Type
REMARK                         _______ _______ _______ _____ _____    ______ ____
ROOT
ATOM      1 CL   UNL     1      31.089 -11.832 -20.093  0.00  0.00    -0.080 Cl
ATOM      2  F   UNL     1      31.413  -9.168 -21.333  0.00  0.00    -0.204 F 
ATOM      3  C   UNL     1      32.601  -9.889 -23.250  0.00  0.00    +0.042 C 
ATOM      4  C   UNL     1      33.169 -10.925 -23.993  0.00  0.00    +0.134 C 
ATOM      5  C   UNL     1      33.093 -12.239 -23.530  0.00  0.00    +0.032 C 
ATOM      6  C   UNL     1      31.958 -10.168 -22.044  0.00  0.00    +0.150 C 
ATOM      7  C   UNL     1      32.449 -12.516 -22.323  0.00  0.00    +0.014 C 
ATOM      8  C   UNL     1      31.881 -11.482 -21.581  0.00  0.00    +0.085 C 
ENDROOT
BRANCH   3  11
ATOM      9  O   UNL     1      30.948  -5.406 -24.381  0.00  0.00    -0.275 OA
ATOM     10  N   UNL     1      32.815  -6.191 -23.207  0.00  0.00    -0.304 N 
ATOM     11  C   UNL     1      32.675  -8.460 -23.739  0.00  0.00    +0.056 C 
ATOM     12  C   UNL     1      33.332  -7.462 -22.784  0.00  0.00    +0.094 C 
ATOM     13  C   UNL     1      31.323  -7.781 -24.032  0.00  0.00    +0.091 C 
ATOM     14  C   UNL     1      31.638  -6.309 -23.933  0.00  0.00    +0.223 C 
ATOM     15  H   UNL     1      33.246  -5.330 -23.003  0.00  0.00    +0.149 HD
ENDBRANCH   3  11
BRANCH   5  16
ATOM     16  C   UNL     1      33.693 -13.359 -24.312  0.00  0.00    +0.123 C 
ATOM     17  C   UNL     1      32.854 -13.807 -25.535  0.00  0.00    +0.029 C 
BRANCH  16  18
ATOM     18  N   UNL     1      34.095 -14.551 -23.436  0.00  0.00    -0.196 N 
ATOM     19  N   UNL     1      34.218 -14.387 -22.106  0.00  0.00    -0.185 NA
ATOM     20  N   UNL     1      34.321 -16.281 -25.115  0.00  0.00    -0.231 NA
ATOM     21  N   UNL     1      34.974 -18.414 -24.130  0.00  0.00    -0.234 NA
ATOM     22  C   UNL     1      34.361 -15.821 -23.854  0.00  0.00    +0.137 C 
ATOM     23  C   UNL     1      34.681 -16.540 -22.716  0.00  0.00    +0.146 C 
ATOM     24  C   UNL     1      34.574 -15.601 -21.673  0.00  0.00    +0.068 C 
ATOM     25  C   UNL     1      34.995 -17.884 -22.884  0.00  0.00    +0.111 C 
ATOM     26  C   UNL     1      34.800 -15.813 -20.232  0.00  0.00    +0.050 C 
ATOM     27  C   UNL     1      34.643 -17.591 -25.154  0.00  0.00    +0.252 C 
ATOM     28  N   UNL     1      35.332 -18.695 -21.786  0.00  0.00    -0.346 N 
ATOM     29  H   UNL     1      35.552 -19.645 -21.924  0.00  0.00    +0.143 HD
ATOM     30  H   UNL     1      35.347 -18.313 -20.878  0.00  0.00    +0.143 HD
ENDBRANCH  16  18
ENDBRANCH   5  16
BRANCH   4  31
ATOM     31  O   UNL     1      33.797 -10.653 -25.172  0.00  0.00    -0.476 OA
BRANCH  31  32
ATOM     32  C   UNL     1      35.166 -10.262 -25.100  0.00  0.00    +0.205 C 
ATOM     33  C   UNL     1      35.789 -10.391 -26.473  0.00  0.00    +0.051 C 
ENDBRANCH  31  32
ENDBRANCH   4  31
TORSDOF 5
ENDMDL
MODEL 2
REMARK VINA RESULT:     -10.3      2.190      8.289
REMARK  Name = 86677874
REMARK  5 active torsions:
REMARK  status: ('A' for Active; 'I' for Inactive)
REMARK    1  A    between atoms: C_3  and  C_11
REMARK    2  A    between atoms: C_4  and  O_31
REMARK    3  A    between atoms: C_5  and  C_16
REMARK    4  A    between atoms: C_16  and  N_18
REMARK    5  A    between atoms: O_31  and  C_32
REMARK                            x       y       z     vdW  Elec       q    Type
REMARK                         _______ _______ _______ _____ _____    ______ ____
ROOT
ATOM      1 CL   UNL     1      30.250 -11.503 -20.953  0.00  0.00    -0.080 Cl
ATOM      2  F   UNL     1      31.854 -13.727 -22.057  0.00  0.00    -0.204 F 
ATOM      3  C   UNL     1      33.313 -12.402 -23.369  0.00  0.00    +0.042 C 
ATOM      4  C   UNL     1      33.719 -11.144 -23.816  0.00  0.00    +0.134 C 
ATOM      5  C   UNL     1      33.053 -10.000 -23.377  0.00  0.00    +0.032 C 
ATOM      6  C   UNL     1      32.241 -12.515 -22.484  0.00  0.00    +0.150 C 
ATOM      7  C   UNL     1      31.980 -10.114 -22.491  0.00  0.00    +0.014 C 
ATOM      8  C   UNL     1      31.575 -11.371 -22.045  0.00  0.00    +0.085 C 
ENDROOT
BRANCH   3  11
ATOM      9  O   UNL     1      35.208 -16.919 -23.031  0.00  0.00    -0.275 OA
ATOM     10  N   UNL     1      33.864 -15.846 -24.619  0.00  0.00    -0.304 N 
ATOM     11  C   UNL     1      34.025 -13.652 -23.836  0.00  0.00    +0.056 C 
ATOM     12  C   UNL     1      33.225 -14.569 -24.763  0.00  0.00    +0.094 C 
ATOM     13  C   UNL     1      34.466 -14.626 -22.725  0.00  0.00    +0.091 C 
ATOM     14  C   UNL     1      34.599 -15.945 -23.445  0.00  0.00    +0.223 C 
ATOM     15  H   UNL     1      33.790 -16.572 -25.279  0.00  0.00    +0.149 HD
ENDBRANCH   3  11
BRANCH   5  16
ATOM     16  C   UNL     1      33.474  -8.646 -23.843  0.00  0.00    +0.123 C 
ATOM     17  C   UNL     1      35.008  -8.426 -23.862  0.00  0.00    +0.029 C 
BRANCH  16  18
ATOM     18  N   UNL     1      32.749  -7.510 -23.112  0.00  0.00    -0.196 N 
ATOM     19  N   UNL     1      32.664  -7.532 -21.769  0.00  0.00    -0.185 NA
ATOM     20  N   UNL     1      32.070  -6.137 -24.988  0.00  0.00    -0.231 NA
ATOM     21  N   UNL     1      30.841  -4.161 -24.260  0.00  0.00    -0.234 NA
ATOM     22  C   UNL     1      32.146  -6.426 -23.679  0.00  0.00    +0.137 C 
ATOM     23  C   UNL     1      31.628  -5.686 -22.631  0.00  0.00    +0.146 C 
ATOM     24  C   UNL     1      31.981  -6.419 -21.482  0.00  0.00    +0.068 C 
ATOM     25  C   UNL     1      30.955  -4.514 -22.957  0.00  0.00    +0.111 C 
ATOM     26  C   UNL     1      31.690  -6.096 -20.073  0.00  0.00    +0.050 C 
ATOM     27  C   UNL     1      31.397  -4.983 -25.181  0.00  0.00    +0.252 C 
ATOM     28  N   UNL     1      30.396  -3.694 -21.960  0.00  0.00    -0.346 N 
ATOM     29  H   UNL     1      29.923  -2.868 -22.210  0.00  0.00    +0.143 HD
ATOM     30  H   UNL     1      30.479  -3.947 -21.012  0.00  0.00    +0.143 HD
ENDBRANCH  16  18
ENDBRANCH   5  16
BRANCH   4  31
ATOM     31  O   UNL     1      34.768 -11.033 -24.681  0.00  0.00    -0.476 OA
BRANCH  31  32
ATOM     32  C   UNL     1      34.491 -11.250 -26.062  0.00  0.00    +0.205 C 
ATOM     33  C   UNL     1      35.644 -10.716 -26.885  0.00  0.00    +0.051 C 
ENDBRANCH  31  32
ENDBRANCH   4  31
TORSDOF 5
ENDMDL
MODEL 3
REMARK VINA RESULT:     -10.2      2.301      3.526
REMARK  Name = 86677874
REMARK  5 active torsions:
REMARK  status: ('A' for Active; 'I' for Inactive)
REMARK    1  A    between atoms: C_3  and  C_11
REMARK    2  A    between atoms: C_4  and  O_31
REMARK    3  A    between atoms: C_5  and  C_16
REMARK    4  A    between atoms: C_16  and  N_18
REMARK    5  A    between atoms: O_31  and  C_32
REMARK                            x       y       z     vdW  Elec       q    Type
REMARK                         _______ _______ _______ _____ _____    ______ ____
ROOT
ATOM      1 CL   UNL     1      35.765 -10.350 -25.771  0.00  0.00    -0.080 Cl
ATOM      2  F   UNL     1      34.715  -7.843 -24.608  0.00  0.00    -0.204 F 
ATOM      3  C   UNL     1      33.128  -8.842 -23.163  0.00  0.00    +0.042 C 
ATOM      4  C   UNL     1      32.519  -9.992 -22.658  0.00  0.00    +0.134 C 
ATOM      5  C   UNL     1      32.914 -11.249 -23.115  0.00  0.00    +0.032 C 
ATOM      6  C   UNL     1      34.132  -8.951 -24.126  0.00  0.00    +0.150 C 
ATOM      7  C   UNL     1      33.918 -11.357 -24.078  0.00  0.00    +0.014 C 
ATOM      8  C   UNL     1      34.527 -10.209 -24.583  0.00  0.00    +0.085 C 
ENDROOT
BRANCH   3  11
ATOM      9  O   UNL     1      30.042  -5.231 -21.921  0.00  0.00    -0.275 OA
ATOM     10  N   UNL     1      31.949  -6.143 -20.916  0.00  0.00    -0.304 N 
ATOM     11  C   UNL     1      32.711  -7.472 -22.678  0.00  0.00    +0.056 C 
ATOM     12  C   UNL     1      32.859  -7.223 -21.176  0.00  0.00    +0.094 C 
ATOM     13  C   UNL     1      31.237  -7.094 -22.922  0.00  0.00    +0.091 C 
ATOM     14  C   UNL     1      30.973  -6.021 -21.895  0.00  0.00    +0.223 C 
ATOM     15  H   UNL     1      32.009  -5.555 -20.129  0.00  0.00    +0.149 HD
ENDBRANCH   3  11
BRANCH   5  16
ATOM     16  C   UNL     1      32.274 -12.489 -22.585  0.00  0.00    +0.123 C 
ATOM     17  C   UNL     1      31.983 -12.457 -21.063  0.00  0.00    +0.029 C 
BRANCH  16  18
ATOM     18  N   UNL     1      33.018 -13.766 -22.992  0.00  0.00    -0.196 N 
ATOM     19  N   UNL     1      33.721 -14.448 -22.069  0.00  0.00    -0.185 NA
ATOM     20  N   UNL     1      32.464 -13.872 -25.347  0.00  0.00    -0.231 NA
ATOM     21  N   UNL     1      33.478 -15.810 -26.424  0.00  0.00    -0.234 NA
ATOM     22  C   UNL     1      33.064 -14.325 -24.234  0.00  0.00    +0.137 C 
ATOM     23  C   UNL     1      33.854 -15.456 -24.115  0.00  0.00    +0.146 C 
ATOM     24  C   UNL     1      34.227 -15.476 -22.758  0.00  0.00    +0.068 C 
ATOM     25  C   UNL     1      34.054 -16.210 -25.265  0.00  0.00    +0.111 C 
ATOM     26  C   UNL     1      35.070 -16.464 -22.061  0.00  0.00    +0.050 C 
ATOM     27  C   UNL     1      32.730 -14.682 -26.393  0.00  0.00    +0.252 C 
ATOM     28  N   UNL     1      34.841 -17.376 -25.243  0.00  0.00    -0.346 N 
ATOM     29  H   UNL     1      34.972 -17.898 -26.067  0.00  0.00    +0.143 HD
ATOM     30  H   UNL     1      35.260 -17.670 -24.402  0.00  0.00    +0.143 HD
ENDBRANCH  16  18
ENDBRANCH   5  16
BRANCH   4  31
ATOM     31  O   UNL     1      31.538  -9.885 -21.717  0.00  0.00    -0.476 OA
BRANCH  31  32
ATOM     32  C   UNL     1      31.956  -9.714 -20.365  0.00  0.00    +0.205 C 
ATOM     33  C   UNL     1      30.848 -10.177 -19.443  0.00  0.00    +0.051 C 
ENDBRANCH  31  32
ENDBRANCH   4  31
TORSDOF 5
ENDMDL
MODEL 4
REMARK VINA RESULT:     -10.2      2.179      3.613
REMARK  Name = 86677874
REMARK  5 active torsions:
REMARK  status: ('A' for Active; 'I' for Inactive)
REMARK    1  A    between atoms: C_3  and  C_11
REMARK    2  A    between atoms: C_4  and  O_31
REMARK    3  A    between atoms: C_5  and  C_16
REMARK    4  A    between atoms: C_16  and  N_18
REMARK    5  A    between atoms: O_31  and  C_32
REMARK                            x       y       z     vdW  Elec       q    Type
REMARK                         _______ _______ _______ _____ _____    ______ ____
ROOT
ATOM      1 CL   UNL     1      35.292 -10.627 -25.569  0.00  0.00    -0.080 Cl
ATOM      2  F   UNL     1      33.755  -8.351 -24.475  0.00  0.00    -0.204 F 
ATOM      3  C   UNL     1      32.432  -9.602 -22.962  0.00  0.00    +0.042 C 
ATOM      4  C   UNL     1      32.084 -10.833 -22.404  0.00  0.00    +0.134 C 
ATOM      5  C   UNL     1      32.728 -11.997 -22.824  0.00  0.00    +0.032 C 
ATOM      6  C   UNL     1      33.424  -9.536 -23.941  0.00  0.00    +0.150 C 
ATOM      7  C   UNL     1      33.720 -11.930 -23.803  0.00  0.00    +0.014 C 
ATOM      8  C   UNL     1      34.068 -10.700 -24.361  0.00  0.00    +0.085 C 
ENDROOT
BRANCH   3  11
ATOM      9  O   UNL     1      32.030  -4.855 -21.773  0.00  0.00    -0.275 OA
ATOM     10  N   UNL     1      30.764  -6.297 -23.114  0.00  0.00    -0.304 N 
ATOM     11  C   UNL     1      31.743  -8.331 -22.517  0.00  0.00    +0.056 C 
ATOM     12  C   UNL     1      30.845  -7.660 -23.557  0.00  0.00    +0.094 C 
ATOM     13  C   UNL     1      32.674  -7.174 -22.103  0.00  0.00    +0.091 C 
ATOM     14  C   UNL     1      31.809  -5.950 -22.268  0.00  0.00    +0.223 C 
ATOM     15  H   UNL     1      30.049  -5.677 -23.380  0.00  0.00    +0.149 HD
ENDBRANCH   3  11
BRANCH   5  16
ATOM     16  C   UNL     1      32.370 -13.321 -22.236  0.00  0.00    +0.123 C 
ATOM     17  C   UNL     1      32.466 -13.382 -20.690  0.00  0.00    +0.029 C 
BRANCH  16  18
ATOM     18  N   UNL     1      33.115 -14.488 -22.894  0.00  0.00    -0.196 N 
ATOM     19  N   UNL     1      33.032 -14.662 -24.226  0.00  0.00    -0.185 NA
ATOM     20  N   UNL     1      34.150 -15.504 -20.956  0.00  0.00    -0.231 NA
ATOM     21  N   UNL     1      35.470 -17.463 -21.562  0.00  0.00    -0.234 NA
ATOM     22  C   UNL     1      33.886 -15.422 -22.270  0.00  0.00    +0.137 C 
ATOM     23  C   UNL     1      34.342 -16.269 -23.266  0.00  0.00    +0.146 C 
ATOM     24  C   UNL     1      33.782 -15.747 -24.447  0.00  0.00    +0.068 C 
ATOM     25  C   UNL     1      35.163 -17.321 -22.874  0.00  0.00    +0.111 C 
ATOM     26  C   UNL     1      33.934 -16.249 -25.824  0.00  0.00    +0.050 C 
ATOM     27  C   UNL     1      34.952 -16.559 -20.698  0.00  0.00    +0.252 C 
ATOM     28  N   UNL     1      35.676 -18.232 -23.814  0.00  0.00    -0.346 N 
ATOM     29  H   UNL     1      36.255 -18.971 -23.519  0.00  0.00    +0.143 HD
ATOM     30  H   UNL     1      35.455 -18.130 -24.768  0.00  0.00    +0.143 HD
ENDBRANCH  16  18
ENDBRANCH   5  16
BRANCH   4  31
ATOM     31  O   UNL     1      31.115 -10.897 -21.446  0.00  0.00    -0.476 OA
BRANCH  31  32
ATOM     32  C   UNL     1      31.276 -10.056 -20.306  0.00  0.00    +0.205 C 
ATOM     33  C   UNL     1      31.233 -10.907 -19.055  0.00  0.00    +0.051 C 
ENDBRANCH  31  32
ENDBRANCH   4  31
TORSDOF 5
ENDMDL
MODEL 5
REMARK VINA RESULT:      -9.4      0.891      1.991
REMARK  Name = 86677874
REMARK  5 active torsions:
REMARK  status: ('A' for Active; 'I' for Inactive)
REMARK    1  A    between atoms: C_3  and  C_11
REMARK    2  A    between atoms: C_4  and  O_31
REMARK    3  A    between atoms: C_5  and  C_16
REMARK    4  A    between atoms: C_16  and  N_18
REMARK    5  A    between atoms: O_31  and  C_32
REMARK                            x       y       z     vdW  Elec       q    Type
REMARK                         _______ _______ _______ _____ _____    ______ ____
ROOT
ATOM      1 CL   UNL     1      31.182 -12.653 -20.427  0.00  0.00    -0.080 Cl
ATOM      2  F   UNL     1      31.528  -9.880 -21.390  0.00  0.00    -0.204 F 
ATOM      3  C   UNL     1      32.716 -10.411 -23.368  0.00  0.00    +0.042 C 
ATOM      4  C   UNL     1      33.278 -11.371 -24.210  0.00  0.00    +0.134 C 
ATOM      5  C   UNL     1      33.191 -12.724 -23.883  0.00  0.00    +0.032 C 
ATOM      6  C   UNL     1      32.067 -10.806 -22.197  0.00  0.00    +0.150 C 
ATOM      7  C   UNL     1      32.542 -13.118 -22.712  0.00  0.00    +0.014 C 
ATOM      8  C   UNL     1      31.980 -12.159 -21.870  0.00  0.00    +0.085 C 
ENDROOT
BRANCH   3  11
ATOM      9  O   UNL     1      31.126  -5.800 -23.928  0.00  0.00    -0.275 OA
ATOM     10  N   UNL     1      33.033  -6.744 -22.953  0.00  0.00    -0.304 N 
ATOM     11  C   UNL     1      32.802  -8.941 -23.708  0.00  0.00    +0.056 C 
ATOM     12  C   UNL     1      33.538  -8.063 -22.695  0.00  0.00    +0.094 C 
ATOM     13  C   UNL     1      31.454  -8.206 -23.850  0.00  0.00    +0.091 C 
ATOM     14  C   UNL     1      31.815  -6.760 -23.618  0.00  0.00    +0.223 C 
ATOM     15  H   UNL     1      33.499  -5.918 -22.686  0.00  0.00    +0.149 HD
ENDBRANCH   3  11
BRANCH   5  16
ATOM     16  C   UNL     1      33.785 -13.764 -24.774  0.00  0.00    +0.123 C 
ATOM     17  C   UNL     1      32.979 -14.032 -26.070  0.00  0.00    +0.029 C 
BRANCH  16  18
ATOM     18  N   UNL     1      34.115 -15.066 -24.035  0.00  0.00    -0.196 N 
ATOM     19  N   UNL     1      34.119 -16.230 -24.710  0.00  0.00    -0.185 NA
ATOM     20  N   UNL     1      34.486 -14.224 -21.795  0.00  0.00    -0.231 NA
ATOM     21  N   UNL     1      35.050 -16.017 -20.241  0.00  0.00    -0.234 NA
ATOM     22  C   UNL     1      34.416 -15.203 -22.712  0.00  0.00    +0.137 C 
ATOM     23  C   UNL     1      34.632 -16.554 -22.507  0.00  0.00    +0.146 C 
ATOM     24  C   UNL     1      34.435 -17.132 -23.775  0.00  0.00    +0.068 C 
ATOM     25  C   UNL     1      34.961 -16.953 -21.216  0.00  0.00    +0.111 C 
ATOM     26  C   UNL     1      34.541 -18.553 -24.153  0.00  0.00    +0.050 C 
ATOM     27  C   UNL     1      34.810 -14.730 -20.586  0.00  0.00    +0.252 C 
ATOM     28  N   UNL     1      35.201 -18.304 -20.911  0.00  0.00    -0.346 N 
ATOM     29  H   UNL     1      35.432 -18.568 -19.991  0.00  0.00    +0.143 HD
ATOM     30  H   UNL     1      35.138 -18.986 -21.618  0.00  0.00    +0.143 HD
ENDBRANCH  16  18
ENDBRANCH   5  16
BRANCH   4  31
ATOM     31  O   UNL     1      33.911 -10.986 -25.355  0.00  0.00    -0.476 OA
BRANCH  31  32
ATOM     32  C   UNL     1      35.228 -10.458 -25.219  0.00  0.00    +0.205 C 
ATOM     33  C   UNL     1      35.868 -10.368 -26.588  0.00  0.00    +0.051 C 
ENDBRANCH  31  32
ENDBRANCH   4  31
TORSDOF 5
ENDMDL
MODEL 6
REMARK VINA RESULT:      -9.1      4.435      7.091
REMARK  Name = 86677874
REMARK  5 active torsions:
REMARK  status: ('A' for Active; 'I' for Inactive)
REMARK    1  A    between atoms: C_3  and  C_11
REMARK    2  A    between atoms: C_4  and  O_31
REMARK    3  A    between atoms: C_5  and  C_16
REMARK    4  A    between atoms: C_16  and  N_18
REMARK    5  A    between atoms: O_31  and  C_32
REMARK                            x       y       z     vdW  Elec       q    Type
REMARK                         _______ _______ _______ _____ _____    ______ ____
ROOT
ATOM      1 CL   UNL     1      34.471 -20.211 -25.888  0.00  0.00    -0.080 Cl
ATOM      2  F   UNL     1      33.277 -17.507 -25.952  0.00  0.00    -0.204 F 
ATOM      3  C   UNL     1      34.242 -16.722 -23.938  0.00  0.00    +0.042 C 
ATOM      4  C   UNL     1      35.056 -16.948 -22.827  0.00  0.00    +0.134 C 
ATOM      5  C   UNL     1      35.688 -18.181 -22.665  0.00  0.00    +0.032 C 
ATOM      6  C   UNL     1      34.060 -17.729 -24.885  0.00  0.00    +0.150 C 
ATOM      7  C   UNL     1      35.505 -19.188 -23.613  0.00  0.00    +0.014 C 
ATOM      8  C   UNL     1      34.692 -18.962 -24.723  0.00  0.00    +0.085 C 
ENDROOT
BRANCH   3  11
ATOM      9  O   UNL     1      33.812 -11.834 -24.109  0.00  0.00    -0.275 OA
ATOM     10  N   UNL     1      33.116 -13.567 -25.520  0.00  0.00    -0.304 N 
ATOM     11  C   UNL     1      33.551 -15.391 -24.128  0.00  0.00    +0.056 C 
ATOM     12  C   UNL     1      33.252 -14.995 -25.576  0.00  0.00    +0.094 C 
ATOM     13  C   UNL     1      34.316 -14.157 -23.611  0.00  0.00    +0.091 C 
ATOM     14  C   UNL     1      33.724 -13.017 -24.400  0.00  0.00    +0.223 C 
ATOM     15  H   UNL     1      32.645 -13.036 -26.202  0.00  0.00    +0.149 HD
ENDBRANCH   3  11
BRANCH   5  16
ATOM     16  C   UNL     1      36.563 -18.440 -21.483  0.00  0.00    +0.123 C 
ATOM     17  C   UNL     1      38.062 -18.627 -21.828  0.00  0.00    +0.029 C 
BRANCH  16  18
ATOM     18  N   UNL     1      36.042 -19.572 -20.591  0.00  0.00    -0.196 N 
ATOM     19  N   UNL     1      36.890 -20.206 -19.760  0.00  0.00    -0.185 NA
ATOM     20  N   UNL     1      33.710 -19.613 -21.240  0.00  0.00    -0.231 NA
ATOM     21  N   UNL     1      32.468 -21.328 -20.030  0.00  0.00    -0.234 NA
ATOM     22  C   UNL     1      34.766 -20.046 -20.532  0.00  0.00    +0.137 C 
ATOM     23  C   UNL     1      34.779 -21.064 -19.594  0.00  0.00    +0.146 C 
ATOM     24  C   UNL     1      36.115 -21.113 -19.155  0.00  0.00    +0.068 C 
ATOM     25  C   UNL     1      33.574 -21.714 -19.350  0.00  0.00    +0.111 C 
ATOM     26  C   UNL     1      36.710 -22.011 -18.149  0.00  0.00    +0.050 C 
ATOM     27  C   UNL     1      32.603 -20.316 -20.920  0.00  0.00    +0.252 C 
ATOM     28  N   UNL     1      33.488 -22.759 -18.414  0.00  0.00    -0.346 N 
ATOM     29  H   UNL     1      32.627 -23.209 -18.254  0.00  0.00    +0.143 HD
ATOM     30  H   UNL     1      34.290 -23.042 -17.917  0.00  0.00    +0.143 HD
ENDBRANCH  16  18
ENDBRANCH   5  16
BRANCH   4  31
ATOM     31  O   UNL     1      35.235 -15.963 -21.901  0.00  0.00    -0.476 OA
BRANCH  31  32
ATOM     32  C   UNL     1      34.637 -16.162 -20.623  0.00  0.00    +0.205 C 
ATOM     33  C   UNL     1      33.397 -15.299 -20.518  0.00  0.00    +0.051 C 
ENDBRANCH  31  32
ENDBRANCH   4  31
TORSDOF 5
ENDMDL
MODEL 7
REMARK VINA RESULT:      -8.9      2.306      7.909
REMARK  Name = 86677874
REMARK  5 active torsions:
REMARK  status: ('A' for Active; 'I' for Inactive)
REMARK    1  A    between atoms: C_3  and  C_11
REMARK    2  A    between atoms: C_4  and  O_31
REMARK    3  A    between atoms: C_5  and  C_16
REMARK    4  A    between atoms: C_16  and  N_18
REMARK    5  A    between atoms: O_31  and  C_32
REMARK                            x       y       z     vdW  Elec       q    Type
REMARK                         _______ _______ _______ _____ _____    ______ ____
ROOT
ATOM      1 CL   UNL     1      30.612 -11.492 -20.201  0.00  0.00    -0.080 Cl
ATOM      2  F   UNL     1      31.643 -14.068 -21.222  0.00  0.00    -0.204 F 
ATOM      3  C   UNL     1      32.936 -13.175 -22.993  0.00  0.00    +0.042 C 
ATOM      4  C   UNL     1      33.389 -12.066 -23.709  0.00  0.00    +0.134 C 
ATOM      5  C   UNL     1      32.985 -10.783 -23.340  0.00  0.00    +0.032 C 
ATOM      6  C   UNL     1      32.077 -12.999 -21.908  0.00  0.00    +0.150 C 
ATOM      7  C   UNL     1      32.126 -10.609 -22.255  0.00  0.00    +0.014 C 
ATOM      8  C   UNL     1      31.673 -11.716 -21.539  0.00  0.00    +0.085 C 
ENDROOT
BRANCH   3  11
ATOM      9  O   UNL     1      34.433 -16.783 -25.967  0.00  0.00    -0.275 OA
ATOM     10  N   UNL     1      35.113 -16.047 -23.852  0.00  0.00    -0.304 N 
ATOM     11  C   UNL     1      33.365 -14.572 -23.381  0.00  0.00    +0.056 C 
ATOM     12  C   UNL     1      34.776 -14.979 -22.953  0.00  0.00    +0.094 C 
ATOM     13  C   UNL     1      33.390 -14.870 -24.893  0.00  0.00    +0.091 C 
ATOM     14  C   UNL     1      34.343 -16.033 -25.007  0.00  0.00    +0.223 C 
ATOM     15  H   UNL     1      35.812 -16.714 -23.670  0.00  0.00    +0.149 HD
ENDBRANCH   3  11
BRANCH   5  16
ATOM     16  C   UNL     1      33.462  -9.587 -24.094  0.00  0.00    +0.123 C 
ATOM     17  C   UNL     1      34.995  -9.368 -24.041  0.00  0.00    +0.029 C 
BRANCH  16  18
ATOM     18  N   UNL     1      32.696  -8.309 -23.733  0.00  0.00    -0.196 N 
ATOM     19  N   UNL     1      32.056  -7.623 -24.699  0.00  0.00    -0.185 NA
ATOM     20  N   UNL     1      33.106  -8.203 -21.349  0.00  0.00    -0.231 NA
ATOM     21  N   UNL     1      32.039  -6.258 -20.337  0.00  0.00    -0.234 NA
ATOM     22  C   UNL     1      32.578  -7.748 -22.497  0.00  0.00    +0.137 C 
ATOM     23  C   UNL     1      31.804  -6.612 -22.665  0.00  0.00    +0.146 C 
ATOM     24  C   UNL     1      31.514  -6.592 -24.042  0.00  0.00    +0.068 C 
ATOM     25  C   UNL     1      31.538  -5.855 -21.529  0.00  0.00    +0.111 C 
ATOM     26  C   UNL     1      30.715  -5.603 -24.788  0.00  0.00    +0.050 C 
ATOM     27  C   UNL     1      32.781  -7.390 -20.322  0.00  0.00    +0.252 C 
ATOM     28  N   UNL     1      30.760  -4.686 -21.600  0.00  0.00    -0.346 N 
ATOM     29  H   UNL     1      30.582  -4.163 -20.786  0.00  0.00    +0.143 HD
ATOM     30  H   UNL     1      30.393  -4.392 -22.465  0.00  0.00    +0.143 HD
ENDBRANCH  16  18
ENDBRANCH   5  16
BRANCH   4  31
ATOM     31  O   UNL     1      34.230 -12.238 -24.770  0.00  0.00    -0.476 OA
BRANCH  31  32
ATOM     32  C   UNL     1      33.688 -12.006 -26.068  0.00  0.00    +0.205 C 
ATOM     33  C   UNL     1      34.814 -11.656 -27.017  0.00  0.00    +0.051 C 
ENDBRANCH  31  32
ENDBRANCH   4  31
TORSDOF 5
ENDMDL
MODEL 8
REMARK VINA RESULT:      -8.9      9.178     13.389
REMARK  Name = 86677874
REMARK  5 active torsions:
REMARK  status: ('A' for Active; 'I' for Inactive)
REMARK    1  A    between atoms: C_3  and  C_11
REMARK    2  A    between atoms: C_4  and  O_31
REMARK    3  A    between atoms: C_5  and  C_16
REMARK    4  A    between atoms: C_16  and  N_18
REMARK    5  A    between atoms: O_31  and  C_32
REMARK                            x       y       z     vdW  Elec       q    Type
REMARK                         _______ _______ _______ _____ _____    ______ ____
ROOT
ATOM      1 CL   UNL     1      37.588 -22.042 -15.765  0.00  0.00    -0.080 Cl
ATOM      2  F   UNL     1      35.687 -23.033 -13.729  0.00  0.00    -0.204 F 
ATOM      3  C   UNL     1      33.871 -23.419 -15.199  0.00  0.00    +0.042 C 
ATOM      4  C   UNL     1      33.344 -23.390 -16.490  0.00  0.00    +0.134 C 
ATOM      5  C   UNL     1      34.128 -22.945 -17.555  0.00  0.00    +0.032 C 
ATOM      6  C   UNL     1      35.184 -23.003 -14.973  0.00  0.00    +0.150 C 
ATOM      7  C   UNL     1      35.440 -22.529 -17.327  0.00  0.00    +0.014 C 
ATOM      8  C   UNL     1      35.968 -22.558 -16.037  0.00  0.00    +0.085 C 
ENDROOT
BRANCH   3  11
ATOM      9  O   UNL     1      30.109 -23.448 -12.044  0.00  0.00    -0.275 OA
ATOM     10  N   UNL     1      31.180 -25.111 -13.295  0.00  0.00    -0.304 N 
ATOM     11  C   UNL     1      33.034 -23.899 -14.034  0.00  0.00    +0.056 C 
ATOM     12  C   UNL     1      32.230 -25.178 -14.273  0.00  0.00    +0.094 C 
ATOM     13  C   UNL     1      31.946 -22.923 -13.544  0.00  0.00    +0.091 C 
ATOM     14  C   UNL     1      30.961 -23.819 -12.837  0.00  0.00    +0.223 C 
ATOM     15  H   UNL     1      30.671 -25.894 -12.985  0.00  0.00    +0.149 HD
ENDBRANCH   3  11
BRANCH   5  16
ATOM     16  C   UNL     1      33.580 -22.909 -18.942  0.00  0.00    +0.123 C 
ATOM     17  C   UNL     1      34.127 -24.020 -19.875  0.00  0.00    +0.029 C 
BRANCH  16  18
ATOM     18  N   UNL     1      33.688 -21.524 -19.591  0.00  0.00    -0.196 N 
ATOM     19  N   UNL     1      32.567 -20.830 -19.865  0.00  0.00    -0.185 NA
ATOM     20  N   UNL     1      36.091 -21.315 -19.797  0.00  0.00    -0.231 NA
ATOM     21  N   UNL     1      36.727 -19.193 -20.818  0.00  0.00    -0.234 NA
ATOM     22  C   UNL     1      34.832 -20.874 -19.947  0.00  0.00    +0.137 C 
ATOM     23  C   UNL     1      34.431 -19.667 -20.494  0.00  0.00    +0.146 C 
ATOM     24  C   UNL     1      33.026 -19.701 -20.414  0.00  0.00    +0.068 C 
ATOM     25  C   UNL     1      35.433 -18.812 -20.939  0.00  0.00    +0.111 C 
ATOM     26  C   UNL     1      32.066 -18.670 -20.849  0.00  0.00    +0.050 C 
ATOM     27  C   UNL     1      36.972 -20.404 -20.263  0.00  0.00    +0.252 C 
ATOM     28  N   UNL     1      35.123 -17.563 -21.507  0.00  0.00    -0.346 N 
ATOM     29  H   UNL     1      35.845 -16.970 -21.817  0.00  0.00    +0.143 HD
ATOM     30  H   UNL     1      34.184 -17.282 -21.595  0.00  0.00    +0.143 HD
ENDBRANCH  16  18
ENDBRANCH   5  16
BRANCH   4  31
ATOM     31  O   UNL     1      32.061 -23.798 -16.712  0.00  0.00    -0.476 OA
BRANCH  31  32
ATOM     32  C   UNL     1      31.066 -22.781 -16.798  0.00  0.00    +0.205 C 
ATOM     33  C   UNL     1      29.732 -23.360 -16.375  0.00  0.00    +0.051 C 
ENDBRANCH  31  32
ENDBRANCH   4  31
TORSDOF 5
ENDMDL
MODEL 9
REMARK VINA RESULT:      -8.9      1.503      1.965
REMARK  Name = 86677874
REMARK  5 active torsions:
REMARK  status: ('A' for Active; 'I' for Inactive)
REMARK    1  A    between atoms: C_3  and  C_11
REMARK    2  A    between atoms: C_4  and  O_31
REMARK    3  A    between atoms: C_5  and  C_16
REMARK    4  A    between atoms: C_16  and  N_18
REMARK    5  A    between atoms: O_31  and  C_32
REMARK                            x       y       z     vdW  Elec       q    Type
REMARK                         _______ _______ _______ _____ _____    ______ ____
ROOT
ATOM      1 CL   UNL     1      31.151 -11.857 -19.728  0.00  0.00    -0.080 Cl
ATOM      2  F   UNL     1      31.159  -8.926 -20.117  0.00  0.00    -0.204 F 
ATOM      3  C   UNL     1      32.354  -8.913 -22.160  0.00  0.00    +0.042 C 
ATOM      4  C   UNL     1      33.002  -9.615 -23.178  0.00  0.00    +0.134 C 
ATOM      5  C   UNL     1      33.077 -11.007 -23.128  0.00  0.00    +0.032 C 
ATOM      6  C   UNL     1      31.781  -9.605 -21.093  0.00  0.00    +0.150 C 
ATOM      7  C   UNL     1      32.503 -11.697 -22.060  0.00  0.00    +0.014 C 
ATOM      8  C   UNL     1      31.856 -10.997 -21.043  0.00  0.00    +0.085 C 
ENDROOT
BRANCH   3  11
ATOM      9  O   UNL     1      30.223  -4.523 -22.696  0.00  0.00    -0.275 OA
ATOM     10  N   UNL     1      31.682  -5.426 -21.105  0.00  0.00    -0.304 N 
ATOM     11  C   UNL     1      32.265  -7.404 -22.200  0.00  0.00    +0.056 C 
ATOM     12  C   UNL     1      32.294  -6.698 -20.844  0.00  0.00    +0.094 C 
ATOM     13  C   UNL     1      30.985  -6.825 -22.835  0.00  0.00    +0.091 C 
ATOM     14  C   UNL     1      30.898  -5.437 -22.251  0.00  0.00    +0.223 C 
ATOM     15  H   UNL     1      31.804  -4.633 -20.535  0.00  0.00    +0.149 HD
ENDBRANCH   3  11
BRANCH   5  16
ATOM     16  C   UNL     1      33.765 -11.773 -24.208  0.00  0.00    +0.123 C 
ATOM     17  C   UNL     1      33.138 -11.597 -25.615  0.00  0.00    +0.029 C 
BRANCH  16  18
ATOM     18  N   UNL     1      33.962 -13.252 -23.859  0.00  0.00    -0.196 N 
ATOM     19  N   UNL     1      34.371 -13.594 -22.623  0.00  0.00    -0.185 NA
ATOM     20  N   UNL     1      33.367 -14.290 -25.964  0.00  0.00    -0.231 NA
ATOM     21  N   UNL     1      33.552 -16.719 -25.855  0.00  0.00    -0.234 NA
ATOM     22  C   UNL     1      33.770 -14.320 -24.683  0.00  0.00    +0.137 C 
ATOM     23  C   UNL     1      34.076 -15.442 -23.933  0.00  0.00    +0.146 C 
ATOM     24  C   UNL     1      34.438 -14.928 -22.674  0.00  0.00    +0.068 C 
ATOM     25  C   UNL     1      33.955 -16.676 -24.563  0.00  0.00    +0.111 C 
ATOM     26  C   UNL     1      34.857 -15.674 -21.474  0.00  0.00    +0.050 C 
ATOM     27  C   UNL     1      33.287 -15.540 -26.467  0.00  0.00    +0.252 C 
ATOM     28  N   UNL     1      34.241 -17.872 -23.881  0.00  0.00    -0.346 N 
ATOM     29  H   UNL     1      34.151 -18.737 -24.343  0.00  0.00    +0.143 HD
ATOM     30  H   UNL     1      34.533 -17.845 -22.941  0.00  0.00    +0.143 HD
ENDBRANCH  16  18
ENDBRANCH   5  16
BRANCH   4  31
ATOM     31  O   UNL     1      33.561  -8.939 -24.222  0.00  0.00    -0.476 OA
BRANCH  31  32
ATOM     32  C   UNL     1      34.737  -8.181 -23.946  0.00  0.00    +0.205 C 
ATOM     33  C   UNL     1      34.662  -6.865 -24.691  0.00  0.00    +0.051 C 
ENDBRANCH  31  32
ENDBRANCH   4  31
TORSDOF 5
ENDMDL
