MODEL 1
REMARK VINA RESULT:      -5.7      0.000      0.000
REMARK  Name = 1140
REMARK  0 active torsions:
REMARK  status: ('A' for Active; 'I' for Inactive)
REMARK                            x       y       z     vdW  Elec       q    Type
REMARK                         _______ _______ _______ _____ _____    ______ ____
ROOT
ATOM      1  C   UNL     1      35.180 -19.580 -20.920  0.00  0.00    -0.022 C 
ATOM      2  C   UNL     1      35.691 -20.653 -20.189  0.00  0.00    -0.004 C 
ATOM      3  C   UNL     1      33.801 -19.389 -21.005  0.00  0.00    -0.004 C 
ATOM      4  C   UNL     1      36.108 -18.639 -21.610  0.00  0.00    +0.031 C 
ATOM      5  C   UNL     1      34.823 -21.534 -19.543  0.00  0.00    -0.000 C 
ATOM      6  C   UNL     1      32.933 -20.270 -20.359  0.00  0.00    -0.000 C 
ATOM      7  C   UNL     1      33.445 -21.342 -19.628  0.00  0.00    -0.000 C 
ENDROOT
TORSDOF 0
ENDMDL
MODEL 2
REMARK VINA RESULT:      -5.7      0.018      1.826
REMARK  Name = 1140
REMARK  0 active torsions:
REMARK  status: ('A' for Active; 'I' for Inactive)
REMARK                            x       y       z     vdW  Elec       q    Type
REMARK                         _______ _______ _______ _____ _____    ______ ____
ROOT
ATOM      1  C   UNL     1      35.199 -19.578 -20.921  0.00  0.00    -0.022 C 
ATOM      2  C   UNL     1      33.820 -19.381 -21.012  0.00  0.00    -0.004 C 
ATOM      3  C   UNL     1      35.702 -20.652 -20.188  0.00  0.00    -0.004 C 
ATOM      4  C   UNL     1      36.133 -18.640 -21.609  0.00  0.00    +0.031 C 
ATOM      5  C   UNL     1      32.946 -20.258 -20.369  0.00  0.00    -0.000 C 
ATOM      6  C   UNL     1      34.828 -21.529 -19.545  0.00  0.00    -0.000 C 
ATOM      7  C   UNL     1      33.451 -21.332 -19.636  0.00  0.00    -0.000 C 
ENDROOT
TORSDOF 0
ENDMDL
MODEL 3
REMARK VINA RESULT:      -5.6      0.869      3.280
REMARK  Name = 1140
REMARK  0 active torsions:
REMARK  status: ('A' for Active; 'I' for Inactive)
REMARK                            x       y       z     vdW  Elec       q    Type
REMARK                         _______ _______ _______ _____ _____    ______ ____
ROOT
ATOM      1  C   UNL     1      33.974 -21.447 -19.484  0.00  0.00    -0.022 C 
ATOM      2  C   UNL     1      32.956 -20.661 -20.026  0.00  0.00    -0.004 C 
ATOM      3  C   UNL     1      35.304 -21.187 -19.815  0.00  0.00    -0.004 C 
ATOM      4  C   UNL     1      33.640 -22.563 -18.553  0.00  0.00    +0.031 C 
ATOM      5  C   UNL     1      33.268 -19.617 -20.897  0.00  0.00    -0.000 C 
ATOM      6  C   UNL     1      35.616 -20.143 -20.686  0.00  0.00    -0.000 C 
ATOM      7  C   UNL     1      34.598 -19.359 -21.226  0.00  0.00    -0.000 C 
ENDROOT
TORSDOF 0
ENDMDL
MODEL 4
REMARK VINA RESULT:      -5.6      0.716      2.217
REMARK  Name = 1140
REMARK  0 active torsions:
REMARK  status: ('A' for Active; 'I' for Inactive)
REMARK                            x       y       z     vdW  Elec       q    Type
REMARK                         _______ _______ _______ _____ _____    ______ ____
ROOT
ATOM      1  C   UNL     1      35.364 -20.783 -20.083  0.00  0.00    -0.022 C 
ATOM      2  C   UNL     1      35.167 -19.679 -20.913  0.00  0.00    -0.004 C 
ATOM      3  C   UNL     1      34.268 -21.434 -19.518  0.00  0.00    -0.004 C 
ATOM      4  C   UNL     1      36.746 -21.266 -19.800  0.00  0.00    +0.031 C 
ATOM      5  C   UNL     1      33.875 -19.226 -21.177  0.00  0.00    -0.000 C 
ATOM      6  C   UNL     1      32.975 -20.982 -19.783  0.00  0.00    -0.000 C 
ATOM      7  C   UNL     1      32.779 -19.878 -20.612  0.00  0.00    -0.000 C 
ENDROOT
TORSDOF 0
ENDMDL
MODEL 5
REMARK VINA RESULT:      -5.6      0.870      2.797
REMARK  Name = 1140
REMARK  0 active torsions:
REMARK  status: ('A' for Active; 'I' for Inactive)
REMARK                            x       y       z     vdW  Elec       q    Type
REMARK                         _______ _______ _______ _____ _____    ______ ____
ROOT
ATOM      1  C   UNL     1      34.052 -21.527 -19.434  0.00  0.00    -0.022 C 
ATOM      2  C   UNL     1      35.384 -21.270 -19.762  0.00  0.00    -0.004 C 
ATOM      3  C   UNL     1      33.037 -20.734 -19.972  0.00  0.00    -0.004 C 
ATOM      4  C   UNL     1      33.714 -22.647 -18.510  0.00  0.00    +0.031 C 
ATOM      5  C   UNL     1      35.700 -20.222 -20.626  0.00  0.00    -0.000 C 
ATOM      6  C   UNL     1      33.354 -19.686 -20.836  0.00  0.00    -0.000 C 
ATOM      7  C   UNL     1      34.685 -19.431 -21.163  0.00  0.00    -0.000 C 
ENDROOT
TORSDOF 0
ENDMDL
MODEL 6
REMARK VINA RESULT:      -5.5      1.035      2.579
REMARK  Name = 1140
REMARK  0 active torsions:
REMARK  status: ('A' for Active; 'I' for Inactive)
REMARK                            x       y       z     vdW  Elec       q    Type
REMARK                         _______ _______ _______ _____ _____    ______ ____
ROOT
ATOM      1  C   UNL     1      33.887 -20.486 -20.264  0.00  0.00    -0.022 C 
ATOM      2  C   UNL     1      35.136 -19.992 -20.641  0.00  0.00    -0.004 C 
ATOM      3  C   UNL     1      33.800 -21.547 -19.363  0.00  0.00    -0.004 C 
ATOM      4  C   UNL     1      32.646 -19.880 -20.826  0.00  0.00    +0.031 C 
ATOM      5  C   UNL     1      36.298 -20.559 -20.116  0.00  0.00    -0.000 C 
ATOM      6  C   UNL     1      34.962 -22.114 -18.838  0.00  0.00    -0.000 C 
ATOM      7  C   UNL     1      36.210 -21.620 -19.215  0.00  0.00    -0.000 C 
ENDROOT
TORSDOF 0
ENDMDL
MODEL 7
REMARK VINA RESULT:      -5.5      0.994      2.533
REMARK  Name = 1140
REMARK  0 active torsions:
REMARK  status: ('A' for Active; 'I' for Inactive)
REMARK                            x       y       z     vdW  Elec       q    Type
REMARK                         _______ _______ _______ _____ _____    ______ ____
ROOT
ATOM      1  C   UNL     1      33.994 -20.454 -20.291  0.00  0.00    -0.022 C 
ATOM      2  C   UNL     1      34.021 -21.525 -19.397  0.00  0.00    -0.004 C 
ATOM      3  C   UNL     1      35.187 -19.868 -20.712  0.00  0.00    -0.004 C 
ATOM      4  C   UNL     1      32.690 -19.937 -20.795  0.00  0.00    +0.031 C 
ATOM      5  C   UNL     1      35.241 -22.009 -18.925  0.00  0.00    -0.000 C 
ATOM      6  C   UNL     1      36.408 -20.351 -20.240  0.00  0.00    -0.000 C 
ATOM      7  C   UNL     1      36.434 -21.422 -19.346  0.00  0.00    -0.000 C 
ENDROOT
TORSDOF 0
ENDMDL
MODEL 8
REMARK VINA RESULT:      -5.0      2.878      4.778
REMARK  Name = 1140
REMARK  0 active torsions:
REMARK  status: ('A' for Active; 'I' for Inactive)
REMARK                            x       y       z     vdW  Elec       q    Type
REMARK                         _______ _______ _______ _____ _____    ______ ____
ROOT
ATOM      1  C   UNL     1      34.986 -18.497 -22.765  0.00  0.00    -0.022 C 
ATOM      2  C   UNL     1      35.154 -17.125 -22.575  0.00  0.00    -0.004 C 
ATOM      3  C   UNL     1      34.666 -18.991 -24.030  0.00  0.00    -0.004 C 
ATOM      4  C   UNL     1      35.148 -19.434 -21.617  0.00  0.00    +0.031 C 
ATOM      5  C   UNL     1      35.002 -16.248 -23.650  0.00  0.00    -0.000 C 
ATOM      6  C   UNL     1      34.515 -18.115 -25.104  0.00  0.00    -0.000 C 
ATOM      7  C   UNL     1      34.683 -16.743 -24.914  0.00  0.00    -0.000 C 
ENDROOT
TORSDOF 0
ENDMDL
MODEL 9
REMARK VINA RESULT:      -5.0      2.576      3.985
REMARK  Name = 1140
REMARK  0 active torsions:
REMARK  status: ('A' for Active; 'I' for Inactive)
REMARK                            x       y       z     vdW  Elec       q    Type
REMARK                         _______ _______ _______ _____ _____    ______ ____
ROOT
ATOM      1  C   UNL     1      34.744 -16.956 -21.785  0.00  0.00    -0.022 C 
ATOM      2  C   UNL     1      34.956 -16.682 -23.137  0.00  0.00    -0.004 C 
ATOM      3  C   UNL     1      34.592 -18.275 -21.357  0.00  0.00    -0.004 C 
ATOM      4  C   UNL     1      34.679 -15.839 -20.799  0.00  0.00    +0.031 C 
ATOM      5  C   UNL     1      35.016 -17.726 -24.059  0.00  0.00    -0.000 C 
ATOM      6  C   UNL     1      34.652 -19.320 -22.280  0.00  0.00    -0.000 C 
ATOM      7  C   UNL     1      34.864 -19.045 -23.631  0.00  0.00    -0.000 C 
ENDROOT
TORSDOF 0
ENDMDL
