MODEL 1
REMARK VINA RESULT:      -9.1      0.000      0.000
REMARK  Name = 19396
REMARK  4 active torsions:
REMARK  status: ('A' for Active; 'I' for Inactive)
REMARK    1  A    between atoms: N_4  and  C_17
REMARK    2  A    between atoms: C_17  and  C_18
REMARK    3  A    between atoms: C_18  and  C_20
REMARK    4  A    between atoms: C_20  and  N_21
REMARK                            x       y       z     vdW  Elec       q    Type
REMARK                         _______ _______ _______ _____ _____    ______ ____
ROOT
ATOM      1  S   UNL     1      33.313 -23.074 -17.764  0.00  0.00    +0.030 S 
ATOM      2  O   UNL     1      33.465 -24.364 -18.407  0.00  0.00    -0.164 OA
ATOM      3  O   UNL     1      32.642 -21.961 -18.406  0.00  0.00    -0.164 OA
ATOM      4  N   UNL     1      34.607 -23.250 -15.029  0.00  0.00    -0.285 N 
ATOM      5  C   UNL     1      35.396 -22.658 -16.046  0.00  0.00    +0.069 C 
ATOM      6  C   UNL     1      33.201 -23.410 -15.056  0.00  0.00    +0.069 C 
ATOM      7  C   UNL     1      34.924 -22.516 -17.358  0.00  0.00    +0.124 C 
ATOM      8  C   UNL     1      32.473 -23.357 -16.252  0.00  0.00    +0.124 C 
ATOM      9  C   UNL     1      36.688 -22.150 -15.806  0.00  0.00    +0.016 C 
ATOM     10  C   UNL     1      32.437 -23.606 -13.887  0.00  0.00    +0.016 C 
ATOM     11  C   UNL     1      35.678 -21.935 -18.384  0.00  0.00    +0.020 C 
ATOM     12  C   UNL     1      31.084 -23.509 -16.311  0.00  0.00    +0.020 C 
ATOM     13  C   UNL     1      37.458 -21.565 -16.820  0.00  0.00    +0.001 C 
ATOM     14  C   UNL     1      31.046 -23.762 -13.926  0.00  0.00    +0.001 C 
ATOM     15  C   UNL     1      36.954 -21.462 -18.110  0.00  0.00    +0.001 C 
ATOM     16  C   UNL     1      30.369 -23.717 -15.139  0.00  0.00    +0.001 C 
ENDROOT
BRANCH   4  17
ATOM     17  C   UNL     1      35.308 -23.699 -13.818  0.00  0.00    +0.093 C 
BRANCH  17  18
ATOM     18  C   UNL     1      36.309 -24.827 -14.121  0.00  0.00    -0.001 C 
ATOM     19  C   UNL     1      35.730 -25.824 -15.132  0.00  0.00    -0.000 C 
BRANCH  18  20
ATOM     20  C   UNL     1      36.797 -25.580 -12.868  0.00  0.00    -0.076 C 
BRANCH  20  21
ATOM     21  N   UNL     1      38.181 -25.257 -12.540  0.00  0.00    +0.384 N 
ATOM     22  C   UNL     1      38.272 -23.925 -11.941  0.00  0.00    -0.101 C 
ATOM     23  C   UNL     1      39.025 -25.336 -13.734  0.00  0.00    -0.101 C 
ATOM     24  H   UNL     1      38.516 -25.941 -11.861  0.00  0.00    -0.080 HD
ENDBRANCH  20  21
ENDBRANCH  18  20
ENDBRANCH  17  18
ENDBRANCH   4  17
TORSDOF 4
ENDMDL
MODEL 2
REMARK VINA RESULT:      -8.7     14.222     16.720
REMARK  Name = 19396
REMARK  4 active torsions:
REMARK  status: ('A' for Active; 'I' for Inactive)
REMARK    1  A    between atoms: N_4  and  C_17
REMARK    2  A    between atoms: C_17  and  C_18
REMARK    3  A    between atoms: C_18  and  C_20
REMARK    4  A    between atoms: C_20  and  N_21
REMARK                            x       y       z     vdW  Elec       q    Type
REMARK                         _______ _______ _______ _____ _____    ______ ____
ROOT
ATOM      1  S   UNL     1      32.176  -7.561 -20.301  0.00  0.00    +0.030 S 
ATOM      2  O   UNL     1      33.566  -7.345 -19.953  0.00  0.00    -0.164 OA
ATOM      3  O   UNL     1      31.085  -7.047 -19.495  0.00  0.00    -0.164 OA
ATOM      4  N   UNL     1      32.106  -9.181 -22.861  0.00  0.00    -0.285 N 
ATOM      5  C   UNL     1      31.928  -9.915 -21.663  0.00  0.00    +0.069 C 
ATOM      6  C   UNL     1      31.935  -7.784 -23.012  0.00  0.00    +0.069 C 
ATOM      7  C   UNL     1      31.942  -9.294 -20.407  0.00  0.00    +0.124 C 
ATOM      8  C   UNL     1      31.950  -6.914 -21.914  0.00  0.00    +0.124 C 
ATOM      9  C   UNL     1      31.699 -11.306 -21.651  0.00  0.00    +0.016 C 
ATOM     10  C   UNL     1      31.712  -7.178 -24.266  0.00  0.00    +0.016 C 
ATOM     11  C   UNL     1      31.767  -9.992 -19.206  0.00  0.00    +0.020 C 
ATOM     12  C   UNL     1      31.781  -5.530 -22.031  0.00  0.00    +0.020 C 
ATOM     13  C   UNL     1      31.522 -12.021 -20.460  0.00  0.00    +0.001 C 
ATOM     14  C   UNL     1      31.542  -5.795 -24.402  0.00  0.00    +0.001 C 
ATOM     15  C   UNL     1      31.560 -11.364 -19.237  0.00  0.00    +0.001 C 
ATOM     16  C   UNL     1      31.581  -4.969 -23.285  0.00  0.00    +0.001 C 
ENDROOT
BRANCH   4  17
ATOM     17  C   UNL     1      32.459  -9.946 -24.065  0.00  0.00    +0.093 C 
BRANCH  17  18
ATOM     18  C   UNL     1      33.899 -10.484 -24.000  0.00  0.00    -0.001 C 
ATOM     19  C   UNL     1      34.914  -9.390 -24.347  0.00  0.00    -0.000 C 
BRANCH  18  20
ATOM     20  C   UNL     1      34.141 -11.721 -24.887  0.00  0.00    -0.076 C 
BRANCH  20  21
ATOM     21  N   UNL     1      33.354 -12.870 -24.452  0.00  0.00    +0.384 N 
ATOM     22  C   UNL     1      34.027 -13.570 -23.357  0.00  0.00    -0.101 C 
ATOM     23  C   UNL     1      33.117 -13.785 -25.570  0.00  0.00    -0.101 C 
ATOM     24  H   UNL     1      32.454 -12.530 -24.115  0.00  0.00    -0.080 HD
ENDBRANCH  20  21
ENDBRANCH  18  20
ENDBRANCH  17  18
ENDBRANCH   4  17
TORSDOF 4
ENDMDL
MODEL 3
REMARK VINA RESULT:      -8.5     12.234     14.412
REMARK  Name = 19396
REMARK  4 active torsions:
REMARK  status: ('A' for Active; 'I' for Inactive)
REMARK    1  A    between atoms: N_4  and  C_17
REMARK    2  A    between atoms: C_17  and  C_18
REMARK    3  A    between atoms: C_18  and  C_20
REMARK    4  A    between atoms: C_20  and  N_21
REMARK                            x       y       z     vdW  Elec       q    Type
REMARK                         _______ _______ _______ _____ _____    ______ ____
ROOT
ATOM      1  S   UNL     1      32.745  -8.513 -22.461  0.00  0.00    +0.030 S 
ATOM      2  O   UNL     1      31.563  -7.976 -23.104  0.00  0.00    -0.164 OA
ATOM      3  O   UNL     1      33.691  -7.675 -21.750  0.00  0.00    -0.164 OA
ATOM      4  N   UNL     1      32.760 -11.509 -22.916  0.00  0.00    -0.285 N 
ATOM      5  C   UNL     1      33.573 -10.750 -23.793  0.00  0.00    +0.069 C 
ATOM      6  C   UNL     1      32.264 -11.080 -21.662  0.00  0.00    +0.069 C 
ATOM      7  C   UNL     1      33.658  -9.354 -23.698  0.00  0.00    +0.124 C 
ATOM      8  C   UNL     1      32.196  -9.724 -21.318  0.00  0.00    +0.124 C 
ATOM      9  C   UNL     1      34.368 -11.341 -24.795  0.00  0.00    +0.016 C 
ATOM     10  C   UNL     1      31.833 -11.982 -20.667  0.00  0.00    +0.016 C 
ATOM     11  C   UNL     1      34.452  -8.576 -24.548  0.00  0.00    +0.020 C 
ATOM     12  C   UNL     1      31.713  -9.268 -20.087  0.00  0.00    +0.020 C 
ATOM     13  C   UNL     1      35.170 -10.579 -25.655  0.00  0.00    +0.001 C 
ATOM     14  C   UNL     1      31.347 -11.545 -19.429  0.00  0.00    +0.001 C 
ATOM     15  C   UNL     1      35.208  -9.196 -25.533  0.00  0.00    +0.001 C 
ATOM     16  C   UNL     1      31.283 -10.187 -19.140  0.00  0.00    +0.001 C 
ENDROOT
BRANCH   4  17
ATOM     17  C   UNL     1      32.438 -12.883 -23.328  0.00  0.00    +0.093 C 
BRANCH  17  18
ATOM     18  C   UNL     1      33.692 -13.771 -23.391  0.00  0.00    -0.001 C 
ATOM     19  C   UNL     1      33.501 -14.928 -24.379  0.00  0.00    -0.000 C 
BRANCH  18  20
ATOM     20  C   UNL     1      34.134 -14.323 -22.022  0.00  0.00    -0.076 C 
BRANCH  20  21
ATOM     21  N   UNL     1      33.664 -15.686 -21.803  0.00  0.00    +0.384 N 
ATOM     22  C   UNL     1      32.532 -15.698 -20.874  0.00  0.00    -0.101 C 
ATOM     23  C   UNL     1      34.747 -16.529 -21.294  0.00  0.00    -0.101 C 
ATOM     24  H   UNL     1      33.353 -16.064 -22.697  0.00  0.00    -0.080 HD
ENDBRANCH  20  21
ENDBRANCH  18  20
ENDBRANCH  17  18
ENDBRANCH   4  17
TORSDOF 4
ENDMDL
MODEL 4
REMARK VINA RESULT:      -8.2      9.756     12.743
REMARK  Name = 19396
REMARK  4 active torsions:
REMARK  status: ('A' for Active; 'I' for Inactive)
REMARK    1  A    between atoms: N_4  and  C_17
REMARK    2  A    between atoms: C_17  and  C_18
REMARK    3  A    between atoms: C_18  and  C_20
REMARK    4  A    between atoms: C_20  and  N_21
REMARK                            x       y       z     vdW  Elec       q    Type
REMARK                         _______ _______ _______ _____ _____    ______ ____
ROOT
ATOM      1  S   UNL     1      34.005 -16.880 -21.179  0.00  0.00    +0.030 S 
ATOM      2  O   UNL     1      35.281 -16.749 -20.506  0.00  0.00    -0.164 OA
ATOM      3  O   UNL     1      32.950 -17.743 -20.683  0.00  0.00    -0.164 OA
ATOM      4  N   UNL     1      34.068 -15.098 -23.629  0.00  0.00    -0.285 N 
ATOM      5  C   UNL     1      34.339 -16.469 -23.859  0.00  0.00    +0.069 C 
ATOM      6  C   UNL     1      33.421 -14.558 -22.492  0.00  0.00    +0.069 C 
ATOM      7  C   UNL     1      34.346 -17.405 -22.816  0.00  0.00    +0.124 C 
ATOM      8  C   UNL     1      33.321 -15.271 -21.290  0.00  0.00    +0.124 C 
ATOM      9  C   UNL     1      34.591 -16.988 -25.145  0.00  0.00    +0.016 C 
ATOM     10  C   UNL     1      32.812 -13.286 -22.498  0.00  0.00    +0.016 C 
ATOM     11  C   UNL     1      34.609 -18.766 -23.012  0.00  0.00    +0.020 C 
ATOM     12  C   UNL     1      32.686 -14.766 -20.150  0.00  0.00    +0.020 C 
ATOM     13  C   UNL     1      34.855 -18.347 -25.360  0.00  0.00    +0.001 C 
ATOM     14  C   UNL     1      32.172 -12.764 -21.366  0.00  0.00    +0.001 C 
ATOM     15  C   UNL     1      34.868 -19.235 -24.292  0.00  0.00    +0.001 C 
ATOM     16  C   UNL     1      32.112 -13.503 -20.191  0.00  0.00    +0.001 C 
ENDROOT
BRANCH   4  17
ATOM     17  C   UNL     1      34.458 -14.154 -24.687  0.00  0.00    +0.093 C 
BRANCH  17  18
ATOM     18  C   UNL     1      33.234 -13.493 -25.343  0.00  0.00    -0.001 C 
ATOM     19  C   UNL     1      32.650 -14.382 -26.447  0.00  0.00    -0.000 C 
BRANCH  18  20
ATOM     20  C   UNL     1      33.512 -12.084 -25.901  0.00  0.00    -0.076 C 
BRANCH  20  21
ATOM     21  N   UNL     1      34.475 -11.352 -25.084  0.00  0.00    +0.384 N 
ATOM     22  C   UNL     1      33.785 -10.467 -24.145  0.00  0.00    -0.101 C 
ATOM     23  C   UNL     1      35.387 -10.582 -25.931  0.00  0.00    -0.101 C 
ATOM     24  H   UNL     1      35.021 -12.028 -24.552  0.00  0.00    -0.080 HD
ENDBRANCH  20  21
ENDBRANCH  18  20
ENDBRANCH  17  18
ENDBRANCH   4  17
TORSDOF 4
ENDMDL
MODEL 5
REMARK VINA RESULT:      -7.9      2.749      6.205
REMARK  Name = 19396
REMARK  4 active torsions:
REMARK  status: ('A' for Active; 'I' for Inactive)
REMARK    1  A    between atoms: N_4  and  C_17
REMARK    2  A    between atoms: C_17  and  C_18
REMARK    3  A    between atoms: C_18  and  C_20
REMARK    4  A    between atoms: C_20  and  N_21
REMARK                            x       y       z     vdW  Elec       q    Type
REMARK                         _______ _______ _______ _____ _____    ______ ____
ROOT
ATOM      1  S   UNL     1      32.861 -24.019 -13.898  0.00  0.00    +0.030 S 
ATOM      2  O   UNL     1      32.790 -25.466 -13.857  0.00  0.00    -0.164 OA
ATOM      3  O   UNL     1      32.751 -23.202 -12.704  0.00  0.00    -0.164 OA
ATOM      4  N   UNL     1      33.254 -23.196 -16.787  0.00  0.00    -0.285 N 
ATOM      5  C   UNL     1      31.926 -23.125 -16.303  0.00  0.00    +0.069 C 
ATOM      6  C   UNL     1      34.426 -23.239 -15.995  0.00  0.00    +0.069 C 
ATOM      7  C   UNL     1      31.599 -23.479 -14.987  0.00  0.00    +0.124 C 
ATOM      8  C   UNL     1      34.393 -23.607 -14.643  0.00  0.00    +0.124 C 
ATOM      9  C   UNL     1      30.852 -22.670 -17.095  0.00  0.00    +0.016 C 
ATOM     10  C   UNL     1      35.696 -22.891 -16.499  0.00  0.00    +0.016 C 
ATOM     11  C   UNL     1      30.297 -23.418 -14.479  0.00  0.00    +0.020 C 
ATOM     12  C   UNL     1      35.532 -23.656 -13.834  0.00  0.00    +0.020 C 
ATOM     13  C   UNL     1      29.542 -22.602 -16.603  0.00  0.00    +0.001 C 
ATOM     14  C   UNL     1      36.849 -22.935 -15.704  0.00  0.00    +0.001 C 
ATOM     15  C   UNL     1      29.264 -22.980 -15.296  0.00  0.00    +0.001 C 
ATOM     16  C   UNL     1      36.767 -23.322 -14.371  0.00  0.00    +0.001 C 
ENDROOT
BRANCH   4  17
ATOM     17  C   UNL     1      33.434 -23.182 -18.246  0.00  0.00    +0.093 C 
BRANCH  17  18
ATOM     18  C   UNL     1      33.835 -21.788 -18.760  0.00  0.00    -0.001 C 
ATOM     19  C   UNL     1      32.657 -21.096 -19.456  0.00  0.00    -0.000 C 
BRANCH  18  20
ATOM     20  C   UNL     1      35.060 -21.798 -19.694  0.00  0.00    -0.076 C 
BRANCH  20  21
ATOM     21  N   UNL     1      35.641 -20.469 -19.851  0.00  0.00    +0.384 N 
ATOM     22  C   UNL     1      35.227 -19.873 -21.122  0.00  0.00    -0.101 C 
ATOM     23  C   UNL     1      37.101 -20.533 -19.772  0.00  0.00    -0.101 C 
ATOM     24  H   UNL     1      35.301 -19.881 -19.091  0.00  0.00    -0.080 HD
ENDBRANCH  20  21
ENDBRANCH  18  20
ENDBRANCH  17  18
ENDBRANCH   4  17
TORSDOF 4
ENDMDL
MODEL 6
REMARK VINA RESULT:      -7.7     10.818     13.326
REMARK  Name = 19396
REMARK  4 active torsions:
REMARK  status: ('A' for Active; 'I' for Inactive)
REMARK    1  A    between atoms: N_4  and  C_17
REMARK    2  A    between atoms: C_17  and  C_18
REMARK    3  A    between atoms: C_18  and  C_20
REMARK    4  A    between atoms: C_20  and  N_21
REMARK                            x       y       z     vdW  Elec       q    Type
REMARK                         _______ _______ _______ _____ _____    ______ ____
ROOT
ATOM      1  S   UNL     1      33.398 -10.746 -24.031  0.00  0.00    +0.030 S 
ATOM      2  O   UNL     1      34.795 -10.466 -23.763  0.00  0.00    -0.164 OA
ATOM      3  O   UNL     1      32.521  -9.782 -24.666  0.00  0.00    -0.164 OA
ATOM      4  N   UNL     1      32.814 -13.549 -23.039  0.00  0.00    -0.285 N 
ATOM      5  C   UNL     1      32.444 -12.498 -22.165  0.00  0.00    +0.069 C 
ATOM      6  C   UNL     1      33.063 -13.427 -24.427  0.00  0.00    +0.069 C 
ATOM      7  C   UNL     1      32.659 -11.153 -22.494  0.00  0.00    +0.124 C 
ATOM      8  C   UNL     1      33.351 -12.191 -25.021  0.00  0.00    +0.124 C 
ATOM      9  C   UNL     1      31.814 -12.728 -20.925  0.00  0.00    +0.016 C 
ATOM     10  C   UNL     1      33.011 -14.527 -25.307  0.00  0.00    +0.016 C 
ATOM     11  C   UNL     1      32.304 -10.093 -21.653  0.00  0.00    +0.020 C 
ATOM     12  C   UNL     1      33.598 -12.037 -26.389  0.00  0.00    +0.020 C 
ATOM     13  C   UNL     1      31.450 -11.679 -20.070  0.00  0.00    +0.001 C 
ATOM     14  C   UNL     1      33.257 -14.393 -26.680  0.00  0.00    +0.001 C 
ATOM     15  C   UNL     1      31.699 -10.362 -20.433  0.00  0.00    +0.001 C 
ATOM     16  C   UNL     1      33.554 -13.148 -27.221  0.00  0.00    +0.001 C 
ENDROOT
BRANCH   4  17
ATOM     17  C   UNL     1      32.907 -14.897 -22.460  0.00  0.00    +0.093 C 
BRANCH  17  18
ATOM     18  C   UNL     1      34.362 -15.283 -22.139  0.00  0.00    -0.001 C 
ATOM     19  C   UNL     1      35.086 -15.796 -23.389  0.00  0.00    -0.000 C 
BRANCH  18  20
ATOM     20  C   UNL     1      34.495 -16.313 -21.000  0.00  0.00    -0.076 C 
BRANCH  20  21
ATOM     21  N   UNL     1      34.604 -17.677 -21.505  0.00  0.00    +0.384 N 
ATOM     22  C   UNL     1      33.485 -18.492 -21.031  0.00  0.00    -0.101 C 
ATOM     23  C   UNL     1      35.876 -18.276 -21.098  0.00  0.00    -0.101 C 
ATOM     24  H   UNL     1      34.572 -17.644 -22.523  0.00  0.00    -0.080 HD
ENDBRANCH  20  21
ENDBRANCH  18  20
ENDBRANCH  17  18
ENDBRANCH   4  17
TORSDOF 4
ENDMDL
MODEL 7
REMARK VINA RESULT:      -7.6      2.512      5.849
REMARK  Name = 19396
REMARK  4 active torsions:
REMARK  status: ('A' for Active; 'I' for Inactive)
REMARK    1  A    between atoms: N_4  and  C_17
REMARK    2  A    between atoms: C_17  and  C_18
REMARK    3  A    between atoms: C_18  and  C_20
REMARK    4  A    between atoms: C_20  and  N_21
REMARK                            x       y       z     vdW  Elec       q    Type
REMARK                         _______ _______ _______ _____ _____    ______ ____
ROOT
ATOM      1  S   UNL     1      37.055 -22.920 -15.600  0.00  0.00    +0.030 S 
ATOM      2  O   UNL     1      37.804 -24.089 -16.013  0.00  0.00    -0.164 OA
ATOM      3  O   UNL     1      37.674 -21.618 -15.435  0.00  0.00    -0.164 OA
ATOM      4  N   UNL     1      34.172 -23.766 -15.201  0.00  0.00    -0.285 N 
ATOM      5  C   UNL     1      34.959 -23.687 -14.026  0.00  0.00    +0.069 C 
ATOM      6  C   UNL     1      34.467 -23.148 -16.440  0.00  0.00    +0.069 C 
ATOM      7  C   UNL     1      36.308 -23.312 -14.063  0.00  0.00    +0.124 C 
ATOM      8  C   UNL     1      35.758 -22.711 -16.760  0.00  0.00    +0.124 C 
ATOM      9  C   UNL     1      34.435 -23.951 -12.743  0.00  0.00    +0.016 C 
ATOM     10  C   UNL     1      33.482 -22.907 -17.420  0.00  0.00    +0.016 C 
ATOM     11  C   UNL     1      37.110 -23.224 -12.920  0.00  0.00    +0.020 C 
ATOM     12  C   UNL     1      36.080 -22.095 -17.975  0.00  0.00    +0.020 C 
ATOM     13  C   UNL     1      35.223 -23.867 -11.587  0.00  0.00    +0.001 C 
ATOM     14  C   UNL     1      33.785 -22.292 -18.642  0.00  0.00    +0.001 C 
ATOM     15  C   UNL     1      36.561 -23.507 -11.677  0.00  0.00    +0.001 C 
ATOM     16  C   UNL     1      35.086 -21.890 -18.921  0.00  0.00    +0.001 C 
ENDROOT
BRANCH   4  17
ATOM     17  C   UNL     1      32.916 -24.523 -15.113  0.00  0.00    +0.093 C 
BRANCH  17  18
ATOM     18  C   UNL     1      31.757 -23.653 -14.597  0.00  0.00    -0.001 C 
ATOM     19  C   UNL     1      30.985 -24.366 -13.481  0.00  0.00    -0.000 C 
BRANCH  18  20
ATOM     20  C   UNL     1      30.780 -23.199 -15.699  0.00  0.00    -0.076 C 
BRANCH  20  21
ATOM     21  N   UNL     1      29.396 -23.522 -15.371  0.00  0.00    +0.384 N 
ATOM     22  C   UNL     1      28.877 -24.546 -16.279  0.00  0.00    -0.101 C 
ATOM     23  C   UNL     1      28.560 -22.321 -15.429  0.00  0.00    -0.101 C 
ATOM     24  H   UNL     1      29.371 -23.889 -14.420  0.00  0.00    -0.080 HD
ENDBRANCH  20  21
ENDBRANCH  18  20
ENDBRANCH  17  18
ENDBRANCH   4  17
TORSDOF 4
ENDMDL
MODEL 8
REMARK VINA RESULT:      -7.6     14.505     17.297
REMARK  Name = 19396
REMARK  4 active torsions:
REMARK  status: ('A' for Active; 'I' for Inactive)
REMARK    1  A    between atoms: N_4  and  C_17
REMARK    2  A    between atoms: C_17  and  C_18
REMARK    3  A    between atoms: C_18  and  C_20
REMARK    4  A    between atoms: C_20  and  N_21
REMARK                            x       y       z     vdW  Elec       q    Type
REMARK                         _______ _______ _______ _____ _____    ______ ____
ROOT
ATOM      1  S   UNL     1      32.282 -11.867 -22.643  0.00  0.00    +0.030 S 
ATOM      2  O   UNL     1      31.016 -11.965 -23.341  0.00  0.00    -0.164 OA
ATOM      3  O   UNL     1      33.005 -13.034 -22.177  0.00  0.00    -0.164 OA
ATOM      4  N   UNL     1      32.984  -8.928 -22.417  0.00  0.00    -0.285 N 
ATOM      5  C   UNL     1      32.388  -9.508 -21.270  0.00  0.00    +0.069 C 
ATOM      6  C   UNL     1      33.612  -9.631 -23.473  0.00  0.00    +0.069 C 
ATOM      7  C   UNL     1      32.010 -10.857 -21.237  0.00  0.00    +0.124 C 
ATOM      8  C   UNL     1      33.376 -10.993 -23.697  0.00  0.00    +0.124 C 
ATOM      9  C   UNL     1      32.162  -8.783 -20.083  0.00  0.00    +0.016 C 
ATOM     10  C   UNL     1      34.533  -9.020 -24.349  0.00  0.00    +0.016 C 
ATOM     11  C   UNL     1      31.421 -11.459 -20.120  0.00  0.00    +0.020 C 
ATOM     12  C   UNL     1      33.983 -11.716 -24.730  0.00  0.00    +0.020 C 
ATOM     13  C   UNL     1      31.574  -9.369 -18.954  0.00  0.00    +0.001 C 
ATOM     14  C   UNL     1      35.150  -9.727 -25.389  0.00  0.00    +0.001 C 
ATOM     15  C   UNL     1      31.201 -10.706 -18.975  0.00  0.00    +0.001 C 
ATOM     16  C   UNL     1      34.872 -11.075 -25.582  0.00  0.00    +0.001 C 
ENDROOT
BRANCH   4  17
ATOM     17  C   UNL     1      32.987  -7.460 -22.496  0.00  0.00    +0.093 C 
BRANCH  17  18
ATOM     18  C   UNL     1      31.637  -6.910 -22.988  0.00  0.00    -0.001 C 
ATOM     19  C   UNL     1      30.964  -7.886 -23.961  0.00  0.00    -0.000 C 
BRANCH  18  20
ATOM     20  C   UNL     1      31.731  -5.514 -23.632  0.00  0.00    -0.076 C 
BRANCH  20  21
ATOM     21  N   UNL     1      30.711  -4.604 -23.121  0.00  0.00    +0.384 N 
ATOM     22  C   UNL     1      31.181  -3.219 -23.178  0.00  0.00    -0.101 C 
ATOM     23  C   UNL     1      30.347  -4.960 -21.748  0.00  0.00    -0.101 C 
ATOM     24  H   UNL     1      29.883  -4.690 -23.709  0.00  0.00    -0.080 HD
ENDBRANCH  20  21
ENDBRANCH  18  20
ENDBRANCH  17  18
ENDBRANCH   4  17
TORSDOF 4
ENDMDL
MODEL 9
REMARK VINA RESULT:      -7.5      1.238      2.236
REMARK  Name = 19396
REMARK  4 active torsions:
REMARK  status: ('A' for Active; 'I' for Inactive)
REMARK    1  A    between atoms: N_4  and  C_17
REMARK    2  A    between atoms: C_17  and  C_18
REMARK    3  A    between atoms: C_18  and  C_20
REMARK    4  A    between atoms: C_20  and  N_21
REMARK                            x       y       z     vdW  Elec       q    Type
REMARK                         _______ _______ _______ _____ _____    ______ ____
ROOT
ATOM      1  S   UNL     1      33.441 -23.143 -17.998  0.00  0.00    +0.030 S 
ATOM      2  O   UNL     1      33.598 -24.448 -18.609  0.00  0.00    -0.164 OA
ATOM      3  O   UNL     1      32.278 -22.310 -18.234  0.00  0.00    -0.164 OA
ATOM      4  N   UNL     1      35.885 -22.629 -16.282  0.00  0.00    -0.285 N 
ATOM      5  C   UNL     1      35.899 -22.034 -17.567  0.00  0.00    +0.069 C 
ATOM      6  C   UNL     1      34.739 -23.097 -15.596  0.00  0.00    +0.069 C 
ATOM      7  C   UNL     1      34.836 -22.192 -18.466  0.00  0.00    +0.124 C 
ATOM      8  C   UNL     1      33.540 -23.379 -16.264  0.00  0.00    +0.124 C 
ATOM      9  C   UNL     1      36.962 -21.225 -18.018  0.00  0.00    +0.016 C 
ATOM     10  C   UNL     1      34.715 -23.283 -14.198  0.00  0.00    +0.016 C 
ATOM     11  C   UNL     1      34.820 -21.616 -19.742  0.00  0.00    +0.020 C 
ATOM     12  C   UNL     1      32.390 -23.839 -15.614  0.00  0.00    +0.020 C 
ATOM     13  C   UNL     1      36.964 -20.640 -19.291  0.00  0.00    +0.001 C 
ATOM     14  C   UNL     1      33.573 -23.744 -13.530  0.00  0.00    +0.001 C 
ATOM     15  C   UNL     1      35.894 -20.839 -20.154  0.00  0.00    +0.001 C 
ATOM     16  C   UNL     1      32.412 -24.026 -14.239  0.00  0.00    +0.001 C 
ENDROOT
BRANCH   4  17
ATOM     17  C   UNL     1      37.173 -22.732 -15.581  0.00  0.00    +0.093 C 
BRANCH  17  18
ATOM     18  C   UNL     1      37.167 -23.862 -14.536  0.00  0.00    -0.001 C 
ATOM     19  C   UNL     1      37.460 -23.318 -13.133  0.00  0.00    -0.000 C 
BRANCH  18  20
ATOM     20  C   UNL     1      38.135 -25.015 -14.862  0.00  0.00    -0.076 C 
BRANCH  20  21
ATOM     21  N   UNL     1      37.519 -26.322 -14.655  0.00  0.00    +0.384 N 
ATOM     22  C   UNL     1      36.282 -26.436 -15.430  0.00  0.00    -0.101 C 
ATOM     23  C   UNL     1      37.250 -26.545 -13.234  0.00  0.00    -0.101 C 
ATOM     24  H   UNL     1      38.171 -27.036 -14.978  0.00  0.00    -0.080 HD
ENDBRANCH  20  21
ENDBRANCH  18  20
ENDBRANCH  17  18
ENDBRANCH   4  17
TORSDOF 4
ENDMDL
