MODEL 1
REMARK VINA RESULT:     -11.2      0.000      0.000
REMARK  Name = 24779674
REMARK  2 active torsions:
REMARK  status: ('A' for Active; 'I' for Inactive)
REMARK    1  A    between atoms: N_2  and  C_14
REMARK    2  A    between atoms: N_5  and  C_20
REMARK                            x       y       z     vdW  Elec       q    Type
REMARK                         _______ _______ _______ _____ _____    ______ ____
ROOT
ATOM      1  N   UNL     1      34.991 -23.352 -15.123  0.00  0.00    -0.124 N 
ATOM      2  N   UNL     1      32.746 -23.885 -14.615  0.00  0.00    -0.274 N 
ATOM      3  N   UNL     1      33.394 -23.050 -16.736  0.00  0.00    -0.295 NA
ATOM      4  N   UNL     1      35.674 -22.520 -17.215  0.00  0.00    -0.315 NA
ATOM      5  N   UNL     1      34.052 -22.215 -18.846  0.00  0.00    -0.238 N 
ATOM      6  N   UNL     1      35.419 -23.706 -13.899  0.00  0.00    -0.171 NA
ATOM      7  C   UNL     1      33.665 -23.426 -15.521  0.00  0.00    +0.279 C 
ATOM      8  C   UNL     1      35.976 -22.907 -15.955  0.00  0.00    +0.206 C 
ATOM      9  C   UNL     1      34.412 -22.598 -17.575  0.00  0.00    +0.207 C 
ATOM     10  C   UNL     1      37.137 -22.977 -15.220  0.00  0.00    +0.127 C 
ATOM     11  C   UNL     1      36.734 -23.475 -13.965  0.00  0.00    +0.101 C 
ATOM     12  H   UNL     1      33.092 -24.136 -13.729  0.00  0.00    +0.156 HD
ATOM     13  H   UNL     1      33.275 -22.675 -19.242  0.00  0.00    +0.166 HD
ENDROOT
BRANCH   2  14
ATOM     14  C   UNL     1      31.374 -24.036 -14.817  0.00  0.00    +0.051 C 
ATOM     15  C   UNL     1      30.604 -22.945 -15.220  0.00  0.00    +0.015 C 
ATOM     16  C   UNL     1      30.772 -25.278 -14.615  0.00  0.00    +0.015 C 
ATOM     17  C   UNL     1      29.232 -23.095 -15.421  0.00  0.00    +0.001 C 
ATOM     18  C   UNL     1      29.400 -25.428 -14.816  0.00  0.00    +0.001 C 
ATOM     19  C   UNL     1      28.630 -24.337 -15.219  0.00  0.00    +0.000 C 
ENDBRANCH   2  14
BRANCH   5  20
ATOM     20  C   UNL     1      34.672 -21.248 -19.631  0.00  0.00    +0.058 C 
ATOM     21  C   UNL     1      36.062 -21.145 -19.642  0.00  0.00    +0.015 C 
ATOM     22  C   UNL     1      33.901 -20.381 -20.407  0.00  0.00    +0.015 C 
ATOM     23  C   UNL     1      36.684 -20.174 -20.429  0.00  0.00    +0.001 C 
ATOM     24  C   UNL     1      34.523 -19.411 -21.193  0.00  0.00    +0.001 C 
ATOM     25  C   UNL     1      35.914 -19.308 -21.204  0.00  0.00    +0.000 C 
ENDBRANCH   5  20
TORSDOF 2
ENDMDL
MODEL 2
REMARK VINA RESULT:     -11.1      7.094     11.356
REMARK  Name = 24779674
REMARK  2 active torsions:
REMARK  status: ('A' for Active; 'I' for Inactive)
REMARK    1  A    between atoms: N_2  and  C_14
REMARK    2  A    between atoms: N_5  and  C_20
REMARK                            x       y       z     vdW  Elec       q    Type
REMARK                         _______ _______ _______ _____ _____    ______ ____
ROOT
ATOM      1  N   UNL     1      33.096 -14.360 -24.492  0.00  0.00    -0.124 N 
ATOM      2  N   UNL     1      32.315 -12.554 -23.185  0.00  0.00    -0.274 N 
ATOM      3  N   UNL     1      33.424 -14.417 -22.228  0.00  0.00    -0.295 NA
ATOM      4  N   UNL     1      34.200 -16.227 -23.580  0.00  0.00    -0.315 NA
ATOM      5  N   UNL     1      34.531 -16.279 -21.284  0.00  0.00    -0.238 N 
ATOM      6  N   UNL     1      32.653 -13.808 -25.635  0.00  0.00    -0.171 NA
ATOM      7  C   UNL     1      32.947 -13.768 -23.249  0.00  0.00    +0.279 C 
ATOM      8  C   UNL     1      33.711 -15.568 -24.655  0.00  0.00    +0.206 C 
ATOM      9  C   UNL     1      34.051 -15.648 -22.409  0.00  0.00    +0.207 C 
ATOM     10  C   UNL     1      33.669 -15.823 -26.006  0.00  0.00    +0.127 C 
ATOM     11  C   UNL     1      33.008 -14.707 -26.558  0.00  0.00    +0.101 C 
ATOM     12  H   UNL     1      32.003 -12.177 -24.039  0.00  0.00    +0.156 HD
ATOM     13  H   UNL     1      34.824 -15.698 -20.544  0.00  0.00    +0.166 HD
ENDROOT
BRANCH   2  14
ATOM     14  C   UNL     1      32.068 -11.796 -22.040  0.00  0.00    +0.051 C 
ATOM     15  C   UNL     1      32.063 -10.403 -22.113  0.00  0.00    +0.015 C 
ATOM     16  C   UNL     1      31.825 -12.431 -20.822  0.00  0.00    +0.015 C 
ATOM     17  C   UNL     1      31.816  -9.645 -20.969  0.00  0.00    +0.001 C 
ATOM     18  C   UNL     1      31.578 -11.673 -19.678  0.00  0.00    +0.001 C 
ATOM     19  C   UNL     1      31.573 -10.280 -19.751  0.00  0.00    +0.000 C 
ENDBRANCH   2  14
BRANCH   5  20
ATOM     20  C   UNL     1      34.645 -17.651 -21.083  0.00  0.00    +0.058 C 
ATOM     21  C   UNL     1      33.500 -18.430 -20.924  0.00  0.00    +0.015 C 
ATOM     22  C   UNL     1      35.906 -18.246 -21.041  0.00  0.00    +0.015 C 
ATOM     23  C   UNL     1      33.615 -19.806 -20.722  0.00  0.00    +0.001 C 
ATOM     24  C   UNL     1      36.021 -19.621 -20.840  0.00  0.00    +0.001 C 
ATOM     25  C   UNL     1      34.875 -20.401 -20.680  0.00  0.00    +0.000 C 
ENDBRANCH   5  20
TORSDOF 2
ENDMDL
MODEL 3
REMARK VINA RESULT:     -11.0      1.442      6.741
REMARK  Name = 24779674
REMARK  2 active torsions:
REMARK  status: ('A' for Active; 'I' for Inactive)
REMARK    1  A    between atoms: N_2  and  C_14
REMARK    2  A    between atoms: N_5  and  C_20
REMARK                            x       y       z     vdW  Elec       q    Type
REMARK                         _______ _______ _______ _____ _____    ______ ____
ROOT
ATOM      1  N   UNL     1      31.962 -23.257 -16.579  0.00  0.00    -0.124 N 
ATOM      2  N   UNL     1      32.616 -21.982 -18.457  0.00  0.00    -0.274 N 
ATOM      3  N   UNL     1      34.195 -22.996 -17.009  0.00  0.00    -0.295 NA
ATOM      4  N   UNL     1      33.497 -24.278 -15.118  0.00  0.00    -0.315 NA
ATOM      5  N   UNL     1      35.760 -24.009 -15.558  0.00  0.00    -0.238 N 
ATOM      6  N   UNL     1      30.654 -23.068 -16.827  0.00  0.00    -0.171 NA
ATOM      7  C   UNL     1      32.973 -22.732 -17.368  0.00  0.00    +0.279 C 
ATOM      8  C   UNL     1      32.220 -24.015 -15.474  0.00  0.00    +0.206 C 
ATOM      9  C   UNL     1      34.443 -23.773 -15.879  0.00  0.00    +0.207 C 
ATOM     10  C   UNL     1      30.987 -24.349 -14.962  0.00  0.00    +0.127 C 
ATOM     11  C   UNL     1      30.062 -23.740 -15.834  0.00  0.00    +0.101 C 
ATOM     12  H   UNL     1      31.652 -21.863 -18.611  0.00  0.00    +0.156 HD
ATOM     13  H   UNL     1      36.398 -24.040 -16.309  0.00  0.00    +0.166 HD
ENDROOT
BRANCH   2  14
ATOM     14  C   UNL     1      33.475 -21.371 -19.372  0.00  0.00    +0.051 C 
ATOM     15  C   UNL     1      32.989 -20.388 -20.235  0.00  0.00    +0.015 C 
ATOM     16  C   UNL     1      34.818 -21.742 -19.424  0.00  0.00    +0.015 C 
ATOM     17  C   UNL     1      33.846 -19.777 -21.150  0.00  0.00    +0.001 C 
ATOM     18  C   UNL     1      35.675 -21.132 -20.339  0.00  0.00    +0.001 C 
ATOM     19  C   UNL     1      35.190 -20.148 -21.201  0.00  0.00    +0.000 C 
ENDBRANCH   2  14
BRANCH   5  20
ATOM     20  C   UNL     1      36.284 -24.211 -14.285  0.00  0.00    +0.058 C 
ATOM     21  C   UNL     1      36.682 -25.488 -13.889  0.00  0.00    +0.015 C 
ATOM     22  C   UNL     1      36.410 -23.136 -13.405  0.00  0.00    +0.015 C 
ATOM     23  C   UNL     1      37.207 -25.690 -12.612  0.00  0.00    +0.001 C 
ATOM     24  C   UNL     1      36.934 -23.339 -12.129  0.00  0.00    +0.001 C 
ATOM     25  C   UNL     1      37.332 -24.616 -11.732  0.00  0.00    +0.000 C 
ENDBRANCH   5  20
TORSDOF 2
ENDMDL
MODEL 4
REMARK VINA RESULT:     -10.8      1.703      6.351
REMARK  Name = 24779674
REMARK  2 active torsions:
REMARK  status: ('A' for Active; 'I' for Inactive)
REMARK    1  A    between atoms: N_2  and  C_14
REMARK    2  A    between atoms: N_5  and  C_20
REMARK                            x       y       z     vdW  Elec       q    Type
REMARK                         _______ _______ _______ _____ _____    ______ ____
ROOT
ATOM      1  N   UNL     1      34.660 -22.575 -17.700  0.00  0.00    -0.124 N 
ATOM      2  N   UNL     1      36.057 -23.344 -15.957  0.00  0.00    -0.274 N 
ATOM      3  N   UNL     1      33.709 -23.665 -15.927  0.00  0.00    -0.295 NA
ATOM      4  N   UNL     1      32.327 -22.874 -17.707  0.00  0.00    -0.315 NA
ATOM      5  N   UNL     1      31.367 -23.979 -15.906  0.00  0.00    -0.238 N 
ATOM      6  N   UNL     1      35.695 -22.065 -18.390  0.00  0.00    -0.171 NA
ATOM      7  C   UNL     1      34.798 -23.221 -16.482  0.00  0.00    +0.279 C 
ATOM      8  C   UNL     1      33.447 -22.404 -18.301  0.00  0.00    +0.206 C 
ATOM      9  C   UNL     1      32.477 -23.485 -16.552  0.00  0.00    +0.207 C 
ATOM     10  C   UNL     1      33.709 -21.733 -19.473  0.00  0.00    +0.127 C 
ATOM     11  C   UNL     1      35.106 -21.551 -19.475  0.00  0.00    +0.101 C 
ATOM     12  H   UNL     1      36.792 -22.960 -16.486  0.00  0.00    +0.156 HD
ATOM     13  H   UNL     1      31.504 -24.775 -15.342  0.00  0.00    +0.166 HD
ENDROOT
BRANCH   2  14
ATOM     14  C   UNL     1      36.407 -23.956 -14.753  0.00  0.00    +0.051 C 
ATOM     15  C   UNL     1      36.742 -25.310 -14.731  0.00  0.00    +0.015 C 
ATOM     16  C   UNL     1      36.423 -23.214 -13.572  0.00  0.00    +0.015 C 
ATOM     17  C   UNL     1      37.092 -25.923 -13.528  0.00  0.00    +0.001 C 
ATOM     18  C   UNL     1      36.773 -23.827 -12.369  0.00  0.00    +0.001 C 
ATOM     19  C   UNL     1      37.109 -25.181 -12.347  0.00  0.00    +0.000 C 
ENDBRANCH   2  14
BRANCH   5  20
ATOM     20  C   UNL     1      30.073 -23.473 -15.969  0.00  0.00    +0.058 C 
ATOM     21  C   UNL     1      29.193 -23.929 -16.950  0.00  0.00    +0.015 C 
ATOM     22  C   UNL     1      29.656 -22.510 -15.049  0.00  0.00    +0.015 C 
ATOM     23  C   UNL     1      27.894 -23.421 -17.013  0.00  0.00    +0.001 C 
ATOM     24  C   UNL     1      28.359 -22.002 -15.113  0.00  0.00    +0.001 C 
ATOM     25  C   UNL     1      27.478 -22.458 -16.094  0.00  0.00    +0.000 C 
ENDBRANCH   5  20
TORSDOF 2
ENDMDL
MODEL 5
REMARK VINA RESULT:     -10.6     10.998     14.790
REMARK  Name = 24779674
REMARK  2 active torsions:
REMARK  status: ('A' for Active; 'I' for Inactive)
REMARK    1  A    between atoms: N_2  and  C_14
REMARK    2  A    between atoms: N_5  and  C_20
REMARK                            x       y       z     vdW  Elec       q    Type
REMARK                         _______ _______ _______ _____ _____    ______ ____
ROOT
ATOM      1  N   UNL     1      32.017 -10.111 -21.171  0.00  0.00    -0.124 N 
ATOM      2  N   UNL     1      32.523  -8.135 -22.361  0.00  0.00    -0.274 N 
ATOM      3  N   UNL     1      32.739 -10.283 -23.337  0.00  0.00    -0.295 NA
ATOM      4  N   UNL     1      32.219 -12.262 -22.103  0.00  0.00    -0.315 NA
ATOM      5  N   UNL     1      32.952 -12.431 -24.299  0.00  0.00    -0.238 N 
ATOM      6  N   UNL     1      31.678  -9.432 -20.062  0.00  0.00    -0.171 NA
ATOM      7  C   UNL     1      32.444  -9.502 -22.340  0.00  0.00    +0.279 C 
ATOM      8  C   UNL     1      31.907 -11.466 -21.055  0.00  0.00    +0.206 C 
ATOM      9  C   UNL     1      32.621 -11.666 -23.204  0.00  0.00    +0.207 C 
ATOM     10  C   UNL     1      31.461 -11.690 -19.773  0.00  0.00    +0.127 C 
ATOM     11  C   UNL     1      31.338 -10.404 -19.210  0.00  0.00    +0.101 C 
ATOM     12  H   UNL     1      32.269  -7.667 -21.534  0.00  0.00    +0.156 HD
ATOM     13  H   UNL     1      32.805 -12.022 -25.183  0.00  0.00    +0.166 HD
ENDROOT
BRANCH   2  14
ATOM     14  C   UNL     1      32.925  -7.334 -23.431  0.00  0.00    +0.051 C 
ATOM     15  C   UNL     1      34.244  -7.386 -23.885  0.00  0.00    +0.015 C 
ATOM     16  C   UNL     1      32.009  -6.482 -24.048  0.00  0.00    +0.015 C 
ATOM     17  C   UNL     1      34.646  -6.587 -24.954  0.00  0.00    +0.001 C 
ATOM     18  C   UNL     1      32.411  -5.683 -25.118  0.00  0.00    +0.001 C 
ATOM     19  C   UNL     1      33.730  -5.735 -25.571  0.00  0.00    +0.000 C 
ENDBRANCH   2  14
BRANCH   5  20
ATOM     20  C   UNL     1      33.470 -13.722 -24.286  0.00  0.00    +0.058 C 
ATOM     21  C   UNL     1      34.252 -14.149 -23.214  0.00  0.00    +0.015 C 
ATOM     22  C   UNL     1      33.205 -14.590 -25.347  0.00  0.00    +0.015 C 
ATOM     23  C   UNL     1      34.772 -15.444 -23.201  0.00  0.00    +0.001 C 
ATOM     24  C   UNL     1      33.725 -15.884 -25.334  0.00  0.00    +0.001 C 
ATOM     25  C   UNL     1      34.509 -16.311 -24.261  0.00  0.00    +0.000 C 
ENDBRANCH   5  20
TORSDOF 2
ENDMDL
MODEL 6
REMARK VINA RESULT:     -10.6     10.973     14.768
REMARK  Name = 24779674
REMARK  2 active torsions:
REMARK  status: ('A' for Active; 'I' for Inactive)
REMARK    1  A    between atoms: N_2  and  C_14
REMARK    2  A    between atoms: N_5  and  C_20
REMARK                            x       y       z     vdW  Elec       q    Type
REMARK                         _______ _______ _______ _____ _____    ______ ____
ROOT
ATOM      1  N   UNL     1      32.018 -10.106 -21.162  0.00  0.00    -0.124 N 
ATOM      2  N   UNL     1      32.553  -8.137 -22.352  0.00  0.00    -0.274 N 
ATOM      3  N   UNL     1      32.754 -10.290 -23.322  0.00  0.00    -0.295 NA
ATOM      4  N   UNL     1      32.205 -12.261 -22.088  0.00  0.00    -0.315 NA
ATOM      5  N   UNL     1      32.952 -12.441 -24.278  0.00  0.00    -0.238 N 
ATOM      6  N   UNL     1      31.677  -9.422 -20.056  0.00  0.00    -0.171 NA
ATOM      7  C   UNL     1      32.459  -9.503 -22.329  0.00  0.00    +0.279 C 
ATOM      8  C   UNL     1      31.894 -11.460 -21.044  0.00  0.00    +0.206 C 
ATOM      9  C   UNL     1      32.621 -11.671 -23.187  0.00  0.00    +0.207 C 
ATOM     10  C   UNL     1      31.436 -11.677 -19.765  0.00  0.00    +0.127 C 
ATOM     11  C   UNL     1      31.321 -10.389 -19.205  0.00  0.00    +0.101 C 
ATOM     12  H   UNL     1      32.296  -7.666 -21.527  0.00  0.00    +0.156 HD
ATOM     13  H   UNL     1      32.817 -12.032 -25.164  0.00  0.00    +0.166 HD
ENDROOT
BRANCH   2  14
ATOM     14  C   UNL     1      32.970  -7.343 -23.420  0.00  0.00    +0.051 C 
ATOM     15  C   UNL     1      32.067  -6.483 -24.045  0.00  0.00    +0.015 C 
ATOM     16  C   UNL     1      34.292  -7.408 -23.863  0.00  0.00    +0.015 C 
ATOM     17  C   UNL     1      32.484  -5.689 -25.113  0.00  0.00    +0.001 C 
ATOM     18  C   UNL     1      34.709  -6.614 -24.931  0.00  0.00    +0.001 C 
ATOM     19  C   UNL     1      33.805  -5.754 -25.556  0.00  0.00    +0.000 C 
ENDBRANCH   2  14
BRANCH   5  20
ATOM     20  C   UNL     1      33.457 -13.738 -24.259  0.00  0.00    +0.058 C 
ATOM     21  C   UNL     1      34.250 -14.161 -23.193  0.00  0.00    +0.015 C 
ATOM     22  C   UNL     1      33.170 -14.613 -25.307  0.00  0.00    +0.015 C 
ATOM     23  C   UNL     1      34.757 -15.462 -23.174  0.00  0.00    +0.001 C 
ATOM     24  C   UNL     1      33.677 -15.912 -25.288  0.00  0.00    +0.001 C 
ATOM     25  C   UNL     1      34.470 -16.336 -24.222  0.00  0.00    +0.000 C 
ENDBRANCH   5  20
TORSDOF 2
ENDMDL
MODEL 7
REMARK VINA RESULT:     -10.4      7.391     11.190
REMARK  Name = 24779674
REMARK  2 active torsions:
REMARK  status: ('A' for Active; 'I' for Inactive)
REMARK    1  A    between atoms: N_2  and  C_14
REMARK    2  A    between atoms: N_5  and  C_20
REMARK                            x       y       z     vdW  Elec       q    Type
REMARK                         _______ _______ _______ _____ _____    ______ ____
ROOT
ATOM      1  N   UNL     1      33.595 -15.320 -24.818  0.00  0.00    -0.124 N 
ATOM      2  N   UNL     1      34.562 -17.181 -23.732  0.00  0.00    -0.274 N 
ATOM      3  N   UNL     1      33.388 -15.500 -22.545  0.00  0.00    -0.295 NA
ATOM      4  N   UNL     1      32.422 -13.630 -23.677  0.00  0.00    -0.315 NA
ATOM      5  N   UNL     1      32.216 -13.817 -21.373  0.00  0.00    -0.238 N 
ATOM      6  N   UNL     1      34.009 -15.731 -26.030  0.00  0.00    -0.171 NA
ATOM      7  C   UNL     1      33.850 -16.015 -23.647  0.00  0.00    +0.279 C 
ATOM      8  C   UNL     1      32.894 -14.149 -24.832  0.00  0.00    +0.206 C 
ATOM      9  C   UNL     1      32.673 -14.304 -22.576  0.00  0.00    +0.207 C 
ATOM     10  C   UNL     1      32.845 -13.766 -26.153  0.00  0.00    +0.127 C 
ATOM     11  C   UNL     1      33.547 -14.776 -26.843  0.00  0.00    +0.101 C 
ATOM     12  H   UNL     1      34.851 -17.454 -24.633  0.00  0.00    +0.156 HD
ATOM     13  H   UNL     1      32.002 -14.484 -20.680  0.00  0.00    +0.166 HD
ENDROOT
BRANCH   2  14
ATOM     14  C   UNL     1      34.921 -18.024 -22.680  0.00  0.00    +0.051 C 
ATOM     15  C   UNL     1      33.955 -18.817 -22.060  0.00  0.00    +0.015 C 
ATOM     16  C   UNL     1      36.246 -18.075 -22.247  0.00  0.00    +0.015 C 
ATOM     17  C   UNL     1      34.313 -19.659 -21.008  0.00  0.00    +0.001 C 
ATOM     18  C   UNL     1      36.605 -18.917 -21.195  0.00  0.00    +0.001 C 
ATOM     19  C   UNL     1      35.638 -19.710 -20.575  0.00  0.00    +0.000 C 
ENDBRANCH   2  14
BRANCH   5  20
ATOM     20  C   UNL     1      32.023 -12.481 -21.034  0.00  0.00    +0.058 C 
ATOM     21  C   UNL     1      31.891 -12.113 -19.695  0.00  0.00    +0.015 C 
ATOM     22  C   UNL     1      31.961 -11.511 -22.034  0.00  0.00    +0.015 C 
ATOM     23  C   UNL     1      31.697 -10.773 -19.356  0.00  0.00    +0.001 C 
ATOM     24  C   UNL     1      31.767 -10.172 -21.695  0.00  0.00    +0.001 C 
ATOM     25  C   UNL     1      31.635  -9.803 -20.356  0.00  0.00    +0.000 C 
ENDBRANCH   5  20
TORSDOF 2
ENDMDL
MODEL 8
REMARK VINA RESULT:     -10.3     11.148     15.067
REMARK  Name = 24779674
REMARK  2 active torsions:
REMARK  status: ('A' for Active; 'I' for Inactive)
REMARK    1  A    between atoms: N_2  and  C_14
REMARK    2  A    between atoms: N_5  and  C_20
REMARK                            x       y       z     vdW  Elec       q    Type
REMARK                         _______ _______ _______ _____ _____    ______ ____
ROOT
ATOM      1  N   UNL     1      31.994  -9.875 -21.411  0.00  0.00    -0.124 N 
ATOM      2  N   UNL     1      32.598  -7.936 -22.618  0.00  0.00    -0.274 N 
ATOM      3  N   UNL     1      32.772 -10.107 -23.552  0.00  0.00    -0.295 NA
ATOM      4  N   UNL     1      32.153 -12.047 -22.302  0.00  0.00    -0.315 NA
ATOM      5  N   UNL     1      32.943 -12.276 -24.472  0.00  0.00    -0.238 N 
ATOM      6  N   UNL     1      31.645  -9.167 -20.323  0.00  0.00    -0.171 NA
ATOM      7  C   UNL     1      32.474  -9.300 -22.577  0.00  0.00    +0.279 C 
ATOM      8  C   UNL     1      31.837 -11.224 -21.277  0.00  0.00    +0.206 C 
ATOM      9  C   UNL     1      32.606 -11.483 -23.400  0.00  0.00    +0.207 C 
ATOM     10  C   UNL     1      31.347 -11.411 -20.005  0.00  0.00    +0.127 C 
ATOM     11  C   UNL     1      31.250 -10.113 -19.466  0.00  0.00    +0.101 C 
ATOM     12  H   UNL     1      32.334  -7.447 -21.806  0.00  0.00    +0.156 HD
ATOM     13  H   UNL     1      32.836 -11.878 -25.367  0.00  0.00    +0.166 HD
ENDROOT
BRANCH   2  14
ATOM     14  C   UNL     1      33.056  -7.167 -23.689  0.00  0.00    +0.051 C 
ATOM     15  C   UNL     1      34.404  -7.206 -24.048  0.00  0.00    +0.015 C 
ATOM     16  C   UNL     1      32.167  -6.362 -24.400  0.00  0.00    +0.015 C 
ATOM     17  C   UNL     1      34.862  -6.437 -25.118  0.00  0.00    +0.001 C 
ATOM     18  C   UNL     1      32.626  -5.593 -25.470  0.00  0.00    +0.001 C 
ATOM     19  C   UNL     1      33.974  -5.631 -25.829  0.00  0.00    +0.000 C 
ENDBRANCH   2  14
BRANCH   5  20
ATOM     20  C   UNL     1      33.419 -13.583 -24.424  0.00  0.00    +0.058 C 
ATOM     21  C   UNL     1      33.185 -14.450 -25.491  0.00  0.00    +0.015 C 
ATOM     22  C   UNL     1      34.129 -14.026 -23.307  0.00  0.00    +0.015 C 
ATOM     23  C   UNL     1      33.662 -15.761 -25.442  0.00  0.00    +0.001 C 
ATOM     24  C   UNL     1      34.604 -15.336 -23.258  0.00  0.00    +0.001 C 
ATOM     25  C   UNL     1      34.371 -16.203 -24.326  0.00  0.00    +0.000 C 
ENDBRANCH   5  20
TORSDOF 2
ENDMDL
MODEL 9
REMARK VINA RESULT:     -10.2      1.531      5.230
REMARK  Name = 24779674
REMARK  2 active torsions:
REMARK  status: ('A' for Active; 'I' for Inactive)
REMARK    1  A    between atoms: N_2  and  C_14
REMARK    2  A    between atoms: N_5  and  C_20
REMARK                            x       y       z     vdW  Elec       q    Type
REMARK                         _______ _______ _______ _____ _____    ______ ____
ROOT
ATOM      1  N   UNL     1      34.041 -22.445 -17.854  0.00  0.00    -0.124 N 
ATOM      2  N   UNL     1      31.801 -22.931 -17.284  0.00  0.00    -0.274 N 
ATOM      3  N   UNL     1      33.606 -23.421 -15.830  0.00  0.00    -0.295 NA
ATOM      4  N   UNL     1      35.860 -22.916 -16.439  0.00  0.00    -0.315 NA
ATOM      5  N   UNL     1      35.414 -23.906 -14.388  0.00  0.00    -0.238 N 
ATOM      6  N   UNL     1      33.693 -21.930 -19.046  0.00  0.00    -0.171 NA
ATOM      7  C   UNL     1      33.127 -22.955 -16.945  0.00  0.00    +0.279 C 
ATOM      8  C   UNL     1      35.382 -22.426 -17.605  0.00  0.00    +0.206 C 
ATOM      9  C   UNL     1      34.979 -23.395 -15.589  0.00  0.00    +0.207 C 
ATOM     10  C   UNL     1      35.954 -21.854 -18.718  0.00  0.00    +0.127 C 
ATOM     11  C   UNL     1      34.868 -21.569 -19.570  0.00  0.00    +0.101 C 
ATOM     12  H   UNL     1      31.579 -22.548 -18.163  0.00  0.00    +0.156 HD
ATOM     13  H   UNL     1      34.794 -23.832 -13.626  0.00  0.00    +0.166 HD
ENDROOT
BRANCH   2  14
ATOM     14  C   UNL     1      30.731 -23.391 -16.516  0.00  0.00    +0.051 C 
ATOM     15  C   UNL     1      30.867 -24.552 -15.754  0.00  0.00    +0.015 C 
ATOM     16  C   UNL     1      29.525 -22.690 -16.508  0.00  0.00    +0.015 C 
ATOM     17  C   UNL     1      29.798 -25.012 -14.986  0.00  0.00    +0.001 C 
ATOM     18  C   UNL     1      28.456 -23.150 -15.740  0.00  0.00    +0.001 C 
ATOM     19  C   UNL     1      28.592 -24.311 -14.978  0.00  0.00    +0.000 C 
ENDBRANCH   2  14
BRANCH   5  20
ATOM     20  C   UNL     1      36.640 -24.516 -14.138  0.00  0.00    +0.058 C 
ATOM     21  C   UNL     1      37.485 -24.006 -13.154  0.00  0.00    +0.015 C 
ATOM     22  C   UNL     1      37.022 -25.639 -14.873  0.00  0.00    +0.015 C 
ATOM     23  C   UNL     1      38.714 -24.617 -12.904  0.00  0.00    +0.001 C 
ATOM     24  C   UNL     1      38.251 -26.250 -14.623  0.00  0.00    +0.001 C 
ATOM     25  C   UNL     1      39.097 -25.739 -13.638  0.00  0.00    +0.000 C 
ENDBRANCH   5  20
TORSDOF 2
ENDMDL
