MODEL 1
REMARK VINA RESULT:      -8.8      0.000      0.000
REMARK  Name = 65997
REMARK  2 active torsions:
REMARK  status: ('A' for Active; 'I' for Inactive)
REMARK    1  A    between atoms: N_2  and  C_18
REMARK    2  A    between atoms: C_18  and  C_19
REMARK                            x       y       z     vdW  Elec       q    Type
REMARK                         _______ _______ _______ _____ _____    ______ ____
ROOT
ATOM      1  N   UNL     1      32.246 -23.689 -15.367  0.00  0.00    -0.276 N 
ATOM      2  N   UNL     1      34.411 -22.950 -16.004  0.00  0.00    -0.244 N 
ATOM      3  N   UNL     1      30.563 -24.566 -13.236  0.00  0.00    +0.386 N 
ATOM      4  N   UNL     1      32.866 -22.970 -17.602  0.00  0.00    -0.376 NA
ATOM      5  C   UNL     1      31.039 -22.930 -15.020  0.00  0.00    +0.071 C 
ATOM      6  C   UNL     1      32.210 -25.108 -15.001  0.00  0.00    +0.071 C 
ATOM      7  C   UNL     1      33.109 -23.218 -16.332  0.00  0.00    +0.245 C 
ATOM      8  C   UNL     1      30.688 -23.142 -13.548  0.00  0.00    -0.060 C 
ATOM      9  C   UNL     1      31.813 -25.265 -13.532  0.00  0.00    -0.060 C 
ATOM     10  C   UNL     1      35.047 -22.499 -17.133  0.00  0.00    +0.081 C 
ATOM     11  C   UNL     1      34.062 -22.521 -18.116  0.00  0.00    +0.130 C 
ATOM     12  C   UNL     1      36.358 -22.088 -17.371  0.00  0.00    +0.017 C 
ATOM     13  C   UNL     1      34.387 -22.110 -19.421  0.00  0.00    +0.086 C 
ATOM     14  C   UNL     1      36.664 -21.682 -18.674  0.00  0.00    -0.003 C 
ATOM     15  C   UNL     1      35.697 -21.692 -19.682  0.00  0.00    -0.019 C 
ATOM     16  H   UNL     1      29.812 -24.968 -13.797  0.00  0.00    -0.084 HD
ATOM     17  H   UNL     1      30.352 -24.669 -12.243  0.00  0.00    -0.084 HD
ENDROOT
BRANCH   2  18
ATOM     18  C   UNL     1      35.022 -23.106 -14.702  0.00  0.00    +0.126 C 
BRANCH  18  19
ATOM     19  C   UNL     1      36.080 -24.175 -14.715  0.00  0.00    -0.002 C 
ATOM     20  C   UNL     1      37.379 -23.856 -14.340  0.00  0.00    -0.003 C 
ATOM     21  C   UNL     1      35.746 -25.465 -15.101  0.00  0.00    -0.003 C 
ATOM     22  C   UNL     1      38.361 -24.847 -14.352  0.00  0.00    -0.000 C 
ATOM     23  C   UNL     1      36.728 -26.456 -15.113  0.00  0.00    -0.000 C 
ATOM     24  C   UNL     1      38.035 -26.147 -14.738  0.00  0.00    -0.000 C 
ENDBRANCH  18  19
ENDBRANCH   2  18
TORSDOF 2
ENDMDL
MODEL 2
REMARK VINA RESULT:      -8.6      1.921      4.822
REMARK  Name = 65997
REMARK  2 active torsions:
REMARK  status: ('A' for Active; 'I' for Inactive)
REMARK    1  A    between atoms: N_2  and  C_18
REMARK    2  A    between atoms: C_18  and  C_19
REMARK                            x       y       z     vdW  Elec       q    Type
REMARK                         _______ _______ _______ _____ _____    ______ ____
ROOT
ATOM      1  N   UNL     1      36.788 -23.759 -14.466  0.00  0.00    -0.276 N 
ATOM      2  N   UNL     1      35.317 -23.470 -16.307  0.00  0.00    -0.244 N 
ATOM      3  N   UNL     1      37.329 -25.188 -12.055  0.00  0.00    +0.386 N 
ATOM      4  N   UNL     1      37.166 -22.236 -16.318  0.00  0.00    -0.376 NA
ATOM      5  C   UNL     1      38.017 -24.551 -14.337  0.00  0.00    +0.071 C 
ATOM      6  C   UNL     1      36.215 -23.297 -13.198  0.00  0.00    +0.071 C 
ATOM      7  C   UNL     1      36.479 -23.145 -15.660  0.00  0.00    +0.245 C 
ATOM      8  C   UNL     1      37.808 -25.692 -13.343  0.00  0.00    -0.060 C 
ATOM      9  C   UNL     1      36.067 -24.469 -12.227  0.00  0.00    -0.060 C 
ATOM     10  C   UNL     1      35.253 -22.724 -17.457  0.00  0.00    +0.081 C 
ATOM     11  C   UNL     1      36.418 -21.962 -17.441  0.00  0.00    +0.130 C 
ATOM     12  C   UNL     1      34.305 -22.653 -18.478  0.00  0.00    +0.017 C 
ATOM     13  C   UNL     1      36.669 -21.071 -18.498  0.00  0.00    +0.086 C 
ATOM     14  C   UNL     1      34.571 -21.761 -19.523  0.00  0.00    -0.003 C 
ATOM     15  C   UNL     1      35.731 -20.983 -19.534  0.00  0.00    -0.019 C 
ATOM     16  H   UNL     1      38.026 -24.556 -11.662  0.00  0.00    -0.084 HD
ATOM     17  H   UNL     1      37.178 -25.978 -11.427  0.00  0.00    -0.084 HD
ENDROOT
BRANCH   2  18
ATOM     18  C   UNL     1      34.326 -24.429 -15.872  0.00  0.00    +0.126 C 
BRANCH  18  19
ATOM     19  C   UNL     1      33.037 -23.754 -15.491  0.00  0.00    -0.002 C 
ATOM     20  C   UNL     1      32.096 -23.473 -16.473  0.00  0.00    -0.003 C 
ATOM     21  C   UNL     1      32.804 -23.421 -14.164  0.00  0.00    -0.003 C 
ATOM     22  C   UNL     1      30.900 -22.848 -16.121  0.00  0.00    -0.000 C 
ATOM     23  C   UNL     1      31.608 -22.795 -13.812  0.00  0.00    -0.000 C 
ATOM     24  C   UNL     1      30.656 -22.509 -14.790  0.00  0.00    -0.000 C 
ENDBRANCH  18  19
ENDBRANCH   2  18
TORSDOF 2
ENDMDL
MODEL 3
REMARK VINA RESULT:      -8.5     15.358     17.986
REMARK  Name = 65997
REMARK  2 active torsions:
REMARK  status: ('A' for Active; 'I' for Inactive)
REMARK    1  A    between atoms: N_2  and  C_18
REMARK    2  A    between atoms: C_18  and  C_19
REMARK                            x       y       z     vdW  Elec       q    Type
REMARK                         _______ _______ _______ _____ _____    ______ ____
ROOT
ATOM      1  N   UNL     1      32.209  -7.437 -21.963  0.00  0.00    -0.276 N 
ATOM      2  N   UNL     1      33.648  -6.989 -23.798  0.00  0.00    -0.244 N 
ATOM      3  N   UNL     1      31.839  -8.875 -19.526  0.00  0.00    +0.386 N 
ATOM      4  N   UNL     1      31.749  -5.836 -23.730  0.00  0.00    -0.376 NA
ATOM      5  C   UNL     1      32.012  -6.714 -20.702  0.00  0.00    +0.071 C 
ATOM      6  C   UNL     1      31.650  -8.793 -21.992  0.00  0.00    +0.071 C 
ATOM      7  C   UNL     1      32.481  -6.748 -23.125  0.00  0.00    +0.245 C 
ATOM      8  C   UNL     1      32.489  -7.565 -19.526  0.00  0.00    -0.060 C 
ATOM      9  C   UNL     1      32.124  -9.585 -20.773  0.00  0.00    -0.060 C 
ATOM     10  C   UNL     1      33.671  -6.181 -24.906  0.00  0.00    +0.081 C 
ATOM     11  C   UNL     1      32.475  -5.471 -24.841  0.00  0.00    +0.130 C 
ATOM     12  C   UNL     1      34.605  -6.015 -25.928  0.00  0.00    +0.017 C 
ATOM     13  C   UNL     1      32.177  -4.536 -25.847  0.00  0.00    +0.086 C 
ATOM     14  C   UNL     1      34.294  -5.080 -26.921  0.00  0.00    -0.003 C 
ATOM     15  C   UNL     1      33.102  -4.353 -26.883  0.00  0.00    -0.019 C 
ATOM     16  H   UNL     1      30.831  -8.751 -19.433  0.00  0.00    -0.084 HD
ATOM     17  H   UNL     1      32.199  -9.423 -18.744  0.00  0.00    -0.084 HD
ENDROOT
BRANCH   2  18
ATOM     18  C   UNL     1      34.685  -7.925 -23.420  0.00  0.00    +0.126 C 
BRANCH  18  19
ATOM     19  C   UNL     1      34.602  -9.193 -24.225  0.00  0.00    -0.002 C 
ATOM     20  C   UNL     1      35.437  -9.362 -25.322  0.00  0.00    -0.003 C 
ATOM     21  C   UNL     1      33.694 -10.177 -23.861  0.00  0.00    -0.003 C 
ATOM     22  C   UNL     1      35.362 -10.538 -26.068  0.00  0.00    -0.000 C 
ATOM     23  C   UNL     1      33.619 -11.353 -24.608  0.00  0.00    -0.000 C 
ATOM     24  C   UNL     1      34.453 -11.533 -25.711  0.00  0.00    -0.000 C 
ENDBRANCH  18  19
ENDBRANCH   2  18
TORSDOF 2
ENDMDL
MODEL 4
REMARK VINA RESULT:      -8.3     14.227     16.889
REMARK  Name = 65997
REMARK  2 active torsions:
REMARK  status: ('A' for Active; 'I' for Inactive)
REMARK    1  A    between atoms: N_2  and  C_18
REMARK    2  A    between atoms: C_18  and  C_19
REMARK                            x       y       z     vdW  Elec       q    Type
REMARK                         _______ _______ _______ _____ _____    ______ ____
ROOT
ATOM      1  N   UNL     1      31.749  -9.347 -21.608  0.00  0.00    -0.276 N 
ATOM      2  N   UNL     1      33.101  -8.218 -23.200  0.00  0.00    -0.244 N 
ATOM      3  N   UNL     1      31.586 -11.460 -19.697  0.00  0.00    +0.386 N 
ATOM      4  N   UNL     1      31.074  -7.375 -22.853  0.00  0.00    -0.376 NA
ATOM      5  C   UNL     1      31.476  -9.048 -20.198  0.00  0.00    +0.071 C 
ATOM      6  C   UNL     1      31.363 -10.695 -22.039  0.00  0.00    +0.071 C 
ATOM      7  C   UNL     1      31.920  -8.325 -22.516  0.00  0.00    +0.245 C 
ATOM      8  C   UNL     1      32.068 -10.136 -19.303  0.00  0.00    -0.060 C 
ATOM      9  C   UNL     1      31.944 -11.741 -21.087  0.00  0.00    -0.060 C 
ATOM     10  C   UNL     1      33.011  -7.128 -24.028  0.00  0.00    +0.081 C 
ATOM     11  C   UNL     1      31.737  -6.619 -23.794  0.00  0.00    +0.130 C 
ATOM     12  C   UNL     1      33.907  -6.562 -24.936  0.00  0.00    +0.017 C 
ATOM     13  C   UNL     1      31.314  -5.478 -24.496  0.00  0.00    +0.086 C 
ATOM     14  C   UNL     1      33.471  -5.426 -25.626  0.00  0.00    -0.003 C 
ATOM     15  C   UNL     1      32.198  -4.892 -25.412  0.00  0.00    -0.019 C 
ATOM     16  H   UNL     1      30.572 -11.492 -19.598  0.00  0.00    -0.084 HD
ATOM     17  H   UNL     1      32.020 -12.161 -19.095  0.00  0.00    -0.084 HD
ENDROOT
BRANCH   2  18
ATOM     18  C   UNL     1      34.250  -9.088 -23.079  0.00  0.00    +0.126 C 
BRANCH  18  19
ATOM     19  C   UNL     1      34.414  -9.955 -24.297  0.00  0.00    -0.002 C 
ATOM     20  C   UNL     1      35.433  -9.682 -25.200  0.00  0.00    -0.003 C 
ATOM     21  C   UNL     1      33.545 -11.018 -24.503  0.00  0.00    -0.003 C 
ATOM     22  C   UNL     1      35.586 -10.486 -26.329  0.00  0.00    -0.000 C 
ATOM     23  C   UNL     1      33.698 -11.822 -25.633  0.00  0.00    -0.000 C 
ATOM     24  C   UNL     1      34.719 -11.556 -26.545  0.00  0.00    -0.000 C 
ENDBRANCH  18  19
ENDBRANCH   2  18
TORSDOF 2
ENDMDL
MODEL 5
REMARK VINA RESULT:      -8.1      2.221      5.118
REMARK  Name = 65997
REMARK  2 active torsions:
REMARK  status: ('A' for Active; 'I' for Inactive)
REMARK    1  A    between atoms: N_2  and  C_18
REMARK    2  A    between atoms: C_18  and  C_19
REMARK                            x       y       z     vdW  Elec       q    Type
REMARK                         _______ _______ _______ _____ _____    ______ ____
ROOT
ATOM      1  N   UNL     1      35.723 -24.154 -12.746  0.00  0.00    -0.276 N 
ATOM      2  N   UNL     1      34.299 -24.073 -14.644  0.00  0.00    -0.244 N 
ATOM      3  N   UNL     1      38.373 -24.583 -11.777  0.00  0.00    +0.386 N 
ATOM      4  N   UNL     1      33.372 -23.551 -12.692  0.00  0.00    -0.376 NA
ATOM      5  C   UNL     1      36.431 -23.084 -12.032  0.00  0.00    +0.071 C 
ATOM      6  C   UNL     1      36.174 -25.513 -12.427  0.00  0.00    +0.071 C 
ATOM      7  C   UNL     1      34.482 -23.920 -13.296  0.00  0.00    +0.245 C 
ATOM      8  C   UNL     1      37.941 -23.250 -12.196  0.00  0.00    -0.060 C 
ATOM      9  C   UNL     1      37.694 -25.611 -12.565  0.00  0.00    -0.060 C 
ATOM     10  C   UNL     1      32.988 -23.781 -14.927  0.00  0.00    +0.081 C 
ATOM     11  C   UNL     1      32.431 -23.459 -13.693  0.00  0.00    +0.130 C 
ATOM     12  C   UNL     1      32.265 -23.773 -16.120  0.00  0.00    +0.017 C 
ATOM     13  C   UNL     1      31.073 -23.105 -13.626  0.00  0.00    +0.086 C 
ATOM     14  C   UNL     1      30.915 -23.417 -16.035  0.00  0.00    -0.003 C 
ATOM     15  C   UNL     1      30.327 -23.089 -14.811  0.00  0.00    -0.019 C 
ATOM     16  H   UNL     1      38.151 -24.714 -10.790  0.00  0.00    -0.084 HD
ATOM     17  H   UNL     1      39.380 -24.665 -11.923  0.00  0.00    -0.084 HD
ENDROOT
BRANCH   2  18
ATOM     18  C   UNL     1      35.300 -24.467 -15.611  0.00  0.00    +0.126 C 
BRANCH  18  19
ATOM     19  C   UNL     1      35.893 -23.272 -16.307  0.00  0.00    -0.002 C 
ATOM     20  C   UNL     1      37.006 -22.645 -15.761  0.00  0.00    -0.003 C 
ATOM     21  C   UNL     1      35.321 -22.812 -17.485  0.00  0.00    -0.003 C 
ATOM     22  C   UNL     1      37.556 -21.538 -16.406  0.00  0.00    -0.000 C 
ATOM     23  C   UNL     1      35.872 -21.704 -18.130  0.00  0.00    -0.000 C 
ATOM     24  C   UNL     1      36.990 -21.068 -17.591  0.00  0.00    -0.000 C 
ENDBRANCH  18  19
ENDBRANCH   2  18
TORSDOF 2
ENDMDL
MODEL 6
REMARK VINA RESULT:      -8.0      1.538      5.551
REMARK  Name = 65997
REMARK  2 active torsions:
REMARK  status: ('A' for Active; 'I' for Inactive)
REMARK    1  A    between atoms: N_2  and  C_18
REMARK    2  A    between atoms: C_18  and  C_19
REMARK                            x       y       z     vdW  Elec       q    Type
REMARK                         _______ _______ _______ _____ _____    ______ ____
ROOT
ATOM      1  N   UNL     1      34.891 -23.693 -14.967  0.00  0.00    -0.276 N 
ATOM      2  N   UNL     1      32.930 -23.521 -16.295  0.00  0.00    -0.244 N 
ATOM      3  N   UNL     1      37.690 -24.250 -14.918  0.00  0.00    +0.386 N 
ATOM      4  N   UNL     1      32.716 -22.992 -14.147  0.00  0.00    -0.376 NA
ATOM      5  C   UNL     1      35.841 -22.666 -14.523  0.00  0.00    +0.071 C 
ATOM      6  C   UNL     1      35.359 -25.075 -14.814  0.00  0.00    +0.071 C 
ATOM      7  C   UNL     1      33.550 -23.398 -15.081  0.00  0.00    +0.245 C 
ATOM      8  C   UNL     1      37.205 -22.893 -15.172  0.00  0.00    -0.060 C 
ATOM      9  C   UNL     1      36.745 -25.235 -15.442  0.00  0.00    -0.060 C 
ATOM     10  C   UNL     1      31.614 -23.170 -16.134  0.00  0.00    +0.081 C 
ATOM     11  C   UNL     1      31.505 -22.844 -14.785  0.00  0.00    +0.130 C 
ATOM     12  C   UNL     1      30.542 -23.112 -17.025  0.00  0.00    +0.017 C 
ATOM     13  C   UNL     1      30.261 -22.434 -14.277  0.00  0.00    +0.086 C 
ATOM     14  C   UNL     1      29.311 -22.701 -16.503  0.00  0.00    -0.003 C 
ATOM     15  C   UNL     1      29.171 -22.368 -15.154  0.00  0.00    -0.019 C 
ATOM     16  H   UNL     1      37.796 -24.387 -13.913  0.00  0.00    -0.084 HD
ATOM     17  H   UNL     1      38.589 -24.372 -15.385  0.00  0.00    -0.084 HD
ENDROOT
BRANCH   2  18
ATOM     18  C   UNL     1      33.542 -23.942 -17.537  0.00  0.00    +0.126 C 
BRANCH  18  19
ATOM     19  C   UNL     1      33.986 -22.763 -18.359  0.00  0.00    -0.002 C 
ATOM     20  C   UNL     1      35.327 -22.402 -18.368  0.00  0.00    -0.003 C 
ATOM     21  C   UNL     1      33.051 -22.052 -19.097  0.00  0.00    -0.003 C 
ATOM     22  C   UNL     1      35.739 -21.309 -19.131  0.00  0.00    -0.000 C 
ATOM     23  C   UNL     1      33.463 -20.959 -19.859  0.00  0.00    -0.000 C 
ATOM     24  C   UNL     1      34.807 -20.588 -19.877  0.00  0.00    -0.000 C 
ENDBRANCH  18  19
ENDBRANCH   2  18
TORSDOF 2
ENDMDL
MODEL 7
REMARK VINA RESULT:      -7.9     12.495     15.364
REMARK  Name = 65997
REMARK  2 active torsions:
REMARK  status: ('A' for Active; 'I' for Inactive)
REMARK    1  A    between atoms: N_2  and  C_18
REMARK    2  A    between atoms: C_18  and  C_19
REMARK                            x       y       z     vdW  Elec       q    Type
REMARK                         _______ _______ _______ _____ _____    ______ ____
ROOT
ATOM      1  N   UNL     1      33.684 -12.452 -24.110  0.00  0.00    -0.276 N 
ATOM      2  N   UNL     1      32.733 -10.347 -23.558  0.00  0.00    -0.244 N 
ATOM      3  N   UNL     1      33.348 -15.286 -24.115  0.00  0.00    +0.386 N 
ATOM      4  N   UNL     1      34.703 -10.300 -24.587  0.00  0.00    -0.376 NA
ATOM      5  C   UNL     1      33.698 -13.194 -25.375  0.00  0.00    +0.071 C 
ATOM      6  C   UNL     1      34.064 -13.235 -22.930  0.00  0.00    +0.071 C 
ATOM      7  C   UNL     1      33.752 -11.076 -24.110  0.00  0.00    +0.245 C 
ATOM      8  C   UNL     1      32.881 -14.479 -25.242  0.00  0.00    -0.060 C 
ATOM      9  C   UNL     1      33.248 -14.527 -22.868  0.00  0.00    -0.060 C 
ATOM     10  C   UNL     1      33.047  -9.018 -23.688  0.00  0.00    +0.081 C 
ATOM     11  C   UNL     1      34.280  -9.015 -24.333  0.00  0.00    +0.130 C 
ATOM     12  C   UNL     1      32.378  -7.854 -23.309  0.00  0.00    +0.017 C 
ATOM     13  C   UNL     1      34.898  -7.787 -24.625  0.00  0.00    +0.086 C 
ATOM     14  C   UNL     1      33.006  -6.641 -23.608  0.00  0.00    -0.003 C 
ATOM     15  C   UNL     1      34.244  -6.605 -24.254  0.00  0.00    -0.019 C 
ATOM     16  H   UNL     1      34.321 -15.550 -24.271  0.00  0.00    -0.084 HD
ATOM     17  H   UNL     1      32.766 -16.121 -24.043  0.00  0.00    -0.084 HD
ENDROOT
BRANCH   2  18
ATOM     18  C   UNL     1      31.533 -10.871 -22.945  0.00  0.00    +0.126 C 
BRANCH  18  19
ATOM     19  C   UNL     1      31.594 -10.775 -21.444  0.00  0.00    -0.002 C 
ATOM     20  C   UNL     1      31.666  -9.527 -20.841  0.00  0.00    -0.003 C 
ATOM     21  C   UNL     1      31.576 -11.935 -20.683  0.00  0.00    -0.003 C 
ATOM     22  C   UNL     1      31.722  -9.437 -19.450  0.00  0.00    -0.000 C 
ATOM     23  C   UNL     1      31.632 -11.846 -19.292  0.00  0.00    -0.000 C 
ATOM     24  C   UNL     1      31.705 -10.597 -18.676  0.00  0.00    -0.000 C 
ENDBRANCH  18  19
ENDBRANCH   2  18
TORSDOF 2
ENDMDL
MODEL 8
REMARK VINA RESULT:      -7.8      1.785      4.596
REMARK  Name = 65997
REMARK  2 active torsions:
REMARK  status: ('A' for Active; 'I' for Inactive)
REMARK    1  A    between atoms: N_2  and  C_18
REMARK    2  A    between atoms: C_18  and  C_19
REMARK                            x       y       z     vdW  Elec       q    Type
REMARK                         _______ _______ _______ _____ _____    ______ ____
ROOT
ATOM      1  N   UNL     1      32.504 -23.977 -14.036  0.00  0.00    -0.276 N 
ATOM      2  N   UNL     1      34.830 -24.354 -14.329  0.00  0.00    -0.244 N 
ATOM      3  N   UNL     1      29.914 -24.043 -15.233  0.00  0.00    +0.386 N 
ATOM      4  N   UNL     1      34.177 -23.752 -12.291  0.00  0.00    -0.376 NA
ATOM      5  C   UNL     1      31.456 -24.842 -13.481  0.00  0.00    +0.071 C 
ATOM      6  C   UNL     1      32.014 -22.814 -14.783  0.00  0.00    +0.071 C 
ATOM      7  C   UNL     1      33.781 -24.013 -13.519  0.00  0.00    +0.245 C 
ATOM      8  C   UNL     1      30.459 -25.229 -14.572  0.00  0.00    -0.060 C 
ATOM      9  C   UNL     1      30.990 -23.253 -15.830  0.00  0.00    -0.060 C 
ATOM     10  C   UNL     1      35.975 -24.313 -13.574  0.00  0.00    +0.081 C 
ATOM     11  C   UNL     1      35.542 -23.935 -12.307  0.00  0.00    +0.130 C 
ATOM     12  C   UNL     1      37.312 -24.566 -13.883  0.00  0.00    +0.017 C 
ATOM     13  C   UNL     1      36.484 -23.796 -11.273  0.00  0.00    +0.086 C 
ATOM     14  C   UNL     1      38.236 -24.424 -12.843  0.00  0.00    -0.003 C 
ATOM     15  C   UNL     1      37.832 -24.045 -11.561  0.00  0.00    -0.019 C 
ATOM     16  H   UNL     1      29.419 -23.473 -14.547  0.00  0.00    -0.084 HD
ATOM     17  H   UNL     1      29.273 -24.340 -15.969  0.00  0.00    -0.084 HD
ENDROOT
BRANCH   2  18
ATOM     18  C   UNL     1      34.759 -24.702 -15.731  0.00  0.00    +0.126 C 
BRANCH  18  19
ATOM     19  C   UNL     1      35.204 -23.561 -16.604  0.00  0.00    -0.002 C 
ATOM     20  C   UNL     1      36.408 -22.922 -16.336  0.00  0.00    -0.003 C 
ATOM     21  C   UNL     1      34.407 -23.161 -17.667  0.00  0.00    -0.003 C 
ATOM     22  C   UNL     1      36.821 -21.865 -17.145  0.00  0.00    -0.000 C 
ATOM     23  C   UNL     1      34.820 -22.102 -18.477  0.00  0.00    -0.000 C 
ATOM     24  C   UNL     1      36.028 -21.455 -18.216  0.00  0.00    -0.000 C 
ENDBRANCH  18  19
ENDBRANCH   2  18
TORSDOF 2
ENDMDL
MODEL 9
REMARK VINA RESULT:      -7.4      1.813      4.694
REMARK  Name = 65997
REMARK  2 active torsions:
REMARK  status: ('A' for Active; 'I' for Inactive)
REMARK    1  A    between atoms: N_2  and  C_18
REMARK    2  A    between atoms: C_18  and  C_19
REMARK                            x       y       z     vdW  Elec       q    Type
REMARK                         _______ _______ _______ _____ _____    ______ ____
ROOT
ATOM      1  N   UNL     1      31.575 -23.644 -15.549  0.00  0.00    -0.276 N 
ATOM      2  N   UNL     1      33.738 -23.423 -16.504  0.00  0.00    -0.244 N 
ATOM      3  N   UNL     1      28.812 -24.184 -16.017  0.00  0.00    +0.386 N 
ATOM      4  N   UNL     1      33.611 -23.230 -14.293  0.00  0.00    -0.376 NA
ATOM      5  C   UNL     1      30.927 -24.790 -14.901  0.00  0.00    +0.071 C 
ATOM      6  C   UNL     1      30.670 -22.552 -15.923  0.00  0.00    +0.071 C 
ATOM      7  C   UNL     1      32.929 -23.435 -15.400  0.00  0.00    +0.245 C 
ATOM      8  C   UNL     1      29.748 -25.275 -15.743  0.00  0.00    -0.060 C 
ATOM      9  C   UNL     1      29.488 -23.098 -16.726  0.00  0.00    -0.060 C 
ATOM     10  C   UNL     1      35.024 -23.198 -16.082  0.00  0.00    +0.081 C 
ATOM     11  C   UNL     1      34.918 -23.081 -14.699  0.00  0.00    +0.130 C 
ATOM     12  C   UNL     1      36.232 -23.089 -16.770  0.00  0.00    +0.017 C 
ATOM     13  C   UNL     1      36.077 -22.842 -13.941  0.00  0.00    +0.086 C 
ATOM     14  C   UNL     1      37.376 -22.853 -16.001  0.00  0.00    -0.003 C 
ATOM     15  C   UNL     1      37.302 -22.730 -14.611  0.00  0.00    -0.019 C 
ATOM     16  H   UNL     1      28.441 -23.830 -15.135  0.00  0.00    -0.084 HD
ATOM     17  H   UNL     1      28.053 -24.539 -16.599  0.00  0.00    -0.084 HD
ENDROOT
BRANCH   2  18
ATOM     18  C   UNL     1      33.326 -23.614 -17.877  0.00  0.00    +0.126 C 
BRANCH  18  19
ATOM     19  C   UNL     1      33.665 -22.419 -18.726  0.00  0.00    -0.002 C 
ATOM     20  C   UNL     1      32.666 -21.517 -19.067  0.00  0.00    -0.003 C 
ATOM     21  C   UNL     1      34.971 -22.233 -19.155  0.00  0.00    -0.003 C 
ATOM     22  C   UNL     1      32.980 -20.409 -19.853  0.00  0.00    -0.000 C 
ATOM     23  C   UNL     1      35.285 -21.124 -19.941  0.00  0.00    -0.000 C 
ATOM     24  C   UNL     1      34.289 -20.212 -20.289  0.00  0.00    -0.000 C 
ENDBRANCH  18  19
ENDBRANCH   2  18
TORSDOF 2
ENDMDL
