MODEL 1
REMARK VINA RESULT:      -8.2      0.000      0.000
REMARK  Name = 5457
REMARK  6 active torsions:
REMARK  status: ('A' for Active; 'I' for Inactive)
REMARK    1  A    between atoms: N_1  and  C_8
REMARK    2  A    between atoms: N_1  and  C_14
REMARK    3  A    between atoms: C_8  and  C_9
REMARK    4  A    between atoms: C_9  and  N_10
REMARK    5  A    between atoms: C_14  and  C_15
REMARK    6  A    between atoms: C_20  and  O_21
REMARK                            x       y       z     vdW  Elec       q    Type
REMARK                         _______ _______ _______ _____ _____    ______ ____
ROOT
ATOM      1  N   UNL     1      33.728 -23.226 -16.506  0.00  0.00    -0.251 N 
ATOM      2  N   UNL     1      31.412 -23.562 -16.674  0.00  0.00    -0.203 NA
ATOM      3  N   UNL     1      32.416 -22.883 -14.591  0.00  0.00    -0.181 NA
ATOM      4  C   UNL     1      32.464 -23.224 -15.898  0.00  0.00    +0.090 C 
ATOM      5  C   UNL     1      30.212 -23.550 -16.056  0.00  0.00    +0.165 C 
ATOM      6  C   UNL     1      31.185 -22.891 -14.038  0.00  0.00    +0.108 C 
ATOM      7  C   UNL     1      30.036 -23.219 -14.728  0.00  0.00    +0.022 C 
ENDROOT
BRANCH   1   8
ATOM      8  C   UNL     1      34.918 -22.866 -15.773  0.00  0.00    +0.079 C 
BRANCH   8   9
ATOM      9  C   UNL     1      35.690 -24.125 -15.401  0.00  0.00    -0.055 C 
BRANCH   9  10
ATOM     10  N   UNL     1      37.119 -23.936 -15.644  0.00  0.00    +0.385 N 
ATOM     11  C   UNL     1      37.899 -24.403 -14.498  0.00  0.00    -0.101 C 
ATOM     12  C   UNL     1      37.409 -22.529 -15.920  0.00  0.00    -0.101 C 
ATOM     13  H   UNL     1      37.384 -24.487 -16.461  0.00  0.00    -0.080 HD
ENDBRANCH   9  10
ENDBRANCH   8   9
ENDBRANCH   1   8
BRANCH   1  14
ATOM     14  C   UNL     1      33.858 -23.586 -17.920  0.00  0.00    +0.127 C 
BRANCH  14  15
ATOM     15  C   UNL     1      34.103 -22.379 -18.785  0.00  0.00    -0.002 C 
ATOM     16  C   UNL     1      33.024 -21.643 -19.251  0.00  0.00    +0.001 C 
ATOM     17  C   UNL     1      35.405 -22.020 -19.104  0.00  0.00    +0.001 C 
ATOM     18  C   UNL     1      33.250 -20.524 -20.052  0.00  0.00    +0.037 C 
ATOM     19  C   UNL     1      35.633 -20.901 -19.906  0.00  0.00    +0.037 C 
ATOM     20  C   UNL     1      34.554 -20.153 -20.380  0.00  0.00    +0.139 C 
BRANCH  20  21
ATOM     21  O   UNL     1      34.776 -19.061 -21.162  0.00  0.00    -0.471 OA
ATOM     22  C   UNL     1      36.127 -18.623 -21.298  0.00  0.00    +0.252 C 
ENDBRANCH  20  21
ENDBRANCH  14  15
ENDBRANCH   1  14
TORSDOF 6
ENDMDL
MODEL 2
REMARK VINA RESULT:      -7.8     12.853     15.835
REMARK  Name = 5457
REMARK  6 active torsions:
REMARK  status: ('A' for Active; 'I' for Inactive)
REMARK    1  A    between atoms: N_1  and  C_8
REMARK    2  A    between atoms: N_1  and  C_14
REMARK    3  A    between atoms: C_8  and  C_9
REMARK    4  A    between atoms: C_9  and  N_10
REMARK    5  A    between atoms: C_14  and  C_15
REMARK    6  A    between atoms: C_20  and  O_21
REMARK                            x       y       z     vdW  Elec       q    Type
REMARK                         _______ _______ _______ _____ _____    ______ ____
ROOT
ATOM      1  N   UNL     1      33.021  -8.951 -22.566  0.00  0.00    -0.251 N 
ATOM      2  N   UNL     1      32.222  -8.917 -20.360  0.00  0.00    -0.203 NA
ATOM      3  N   UNL     1      31.867 -10.834 -21.777  0.00  0.00    -0.181 NA
ATOM      4  C   UNL     1      32.341  -9.594 -21.523  0.00  0.00    +0.090 C 
ATOM      5  C   UNL     1      31.562  -9.567 -19.379  0.00  0.00    +0.165 C 
ATOM      6  C   UNL     1      31.218 -11.425 -20.752  0.00  0.00    +0.108 C 
ATOM      7  C   UNL     1      31.033 -10.834 -19.519  0.00  0.00    +0.022 C 
ENDROOT
BRANCH   1   8
ATOM      8  C   UNL     1      33.217  -9.589 -23.846  0.00  0.00    +0.079 C 
BRANCH   8   9
ATOM      9  C   UNL     1      34.686  -9.509 -24.237  0.00  0.00    -0.055 C 
BRANCH   9  10
ATOM     10  N   UNL     1      35.097 -10.732 -24.927  0.00  0.00    +0.385 N 
ATOM     11  C   UNL     1      35.599 -10.420 -26.264  0.00  0.00    -0.101 C 
ATOM     12  C   UNL     1      33.981 -11.673 -25.005  0.00  0.00    -0.101 C 
ATOM     13  H   UNL     1      35.850 -11.166 -24.392  0.00  0.00    -0.080 HD
ENDBRANCH   9  10
ENDBRANCH   8   9
ENDBRANCH   1   8
BRANCH   1  14
ATOM     14  C   UNL     1      33.563  -7.604 -22.365  0.00  0.00    +0.127 C 
BRANCH  14  15
ATOM     15  C   UNL     1      32.697  -6.550 -23.002  0.00  0.00    -0.002 C 
ATOM     16  C   UNL     1      31.728  -5.912 -22.242  0.00  0.00    +0.001 C 
ATOM     17  C   UNL     1      32.881  -6.233 -24.340  0.00  0.00    +0.001 C 
ATOM     18  C   UNL     1      30.925  -4.936 -22.831  0.00  0.00    +0.037 C 
ATOM     19  C   UNL     1      32.078  -5.256 -24.931  0.00  0.00    +0.037 C 
ATOM     20  C   UNL     1      31.100  -4.608 -24.176  0.00  0.00    +0.139 C 
BRANCH  20  21
ATOM     21  O   UNL     1      30.317  -3.655 -24.752  0.00  0.00    -0.471 OA
ATOM     22  C   UNL     1      30.965  -2.463 -25.196  0.00  0.00    +0.252 C 
ENDBRANCH  20  21
ENDBRANCH  14  15
ENDBRANCH   1  14
TORSDOF 6
ENDMDL
MODEL 3
REMARK VINA RESULT:      -7.7      5.195      8.925
REMARK  Name = 5457
REMARK  6 active torsions:
REMARK  status: ('A' for Active; 'I' for Inactive)
REMARK    1  A    between atoms: N_1  and  C_8
REMARK    2  A    between atoms: N_1  and  C_14
REMARK    3  A    between atoms: C_8  and  C_9
REMARK    4  A    between atoms: C_9  and  N_10
REMARK    5  A    between atoms: C_14  and  C_15
REMARK    6  A    between atoms: C_20  and  O_21
REMARK                            x       y       z     vdW  Elec       q    Type
REMARK                         _______ _______ _______ _____ _____    ______ ____
ROOT
ATOM      1  N   UNL     1      35.024 -17.088 -21.862  0.00  0.00    -0.251 N 
ATOM      2  N   UNL     1      35.070 -17.603 -24.151  0.00  0.00    -0.203 NA
ATOM      3  N   UNL     1      33.895 -15.660 -23.342  0.00  0.00    -0.181 NA
ATOM      4  C   UNL     1      34.647 -16.771 -23.174  0.00  0.00    +0.090 C 
ATOM      5  C   UNL     1      34.688 -17.267 -25.401  0.00  0.00    +0.165 C 
ATOM      6  C   UNL     1      33.550 -15.384 -24.617  0.00  0.00    +0.108 C 
ATOM      7  C   UNL     1      33.921 -16.158 -25.697  0.00  0.00    +0.022 C 
ENDROOT
BRANCH   1   8
ATOM      8  C   UNL     1      34.639 -16.259 -20.745  0.00  0.00    +0.079 C 
BRANCH   8   9
ATOM      9  C   UNL     1      34.461 -14.821 -21.213  0.00  0.00    -0.055 C 
BRANCH   9  10
ATOM     10  N   UNL     1      33.249 -14.243 -20.632  0.00  0.00    +0.385 N 
ATOM     11  C   UNL     1      32.356 -15.300 -20.158  0.00  0.00    -0.101 C 
ATOM     12  C   UNL     1      32.567 -13.397 -21.610  0.00  0.00    -0.101 C 
ATOM     13  H   UNL     1      33.517 -13.665 -19.835  0.00  0.00    -0.080 HD
ENDBRANCH   9  10
ENDBRANCH   8   9
ENDBRANCH   1   8
BRANCH   1  14
ATOM     14  C   UNL     1      35.839 -18.278 -21.602  0.00  0.00    +0.127 C 
BRANCH  14  15
ATOM     15  C   UNL     1      35.046 -19.363 -20.925  0.00  0.00    -0.002 C 
ATOM     16  C   UNL     1      35.713 -20.377 -20.253  0.00  0.00    +0.001 C 
ATOM     17  C   UNL     1      33.660 -19.334 -20.983  0.00  0.00    +0.001 C 
ATOM     18  C   UNL     1      34.979 -21.383 -19.625  0.00  0.00    +0.037 C 
ATOM     19  C   UNL     1      32.925 -20.340 -20.355  0.00  0.00    +0.037 C 
ATOM     20  C   UNL     1      33.585 -21.365 -19.676  0.00  0.00    +0.139 C 
BRANCH  20  21
ATOM     21  O   UNL     1      32.868 -22.347 -19.063  0.00  0.00    -0.471 OA
ATOM     22  C   UNL     1      33.477 -22.995 -17.947  0.00  0.00    +0.252 C 
ENDBRANCH  20  21
ENDBRANCH  14  15
ENDBRANCH   1  14
TORSDOF 6
ENDMDL
MODEL 4
REMARK VINA RESULT:      -7.5      1.280      3.984
REMARK  Name = 5457
REMARK  6 active torsions:
REMARK  status: ('A' for Active; 'I' for Inactive)
REMARK    1  A    between atoms: N_1  and  C_8
REMARK    2  A    between atoms: N_1  and  C_14
REMARK    3  A    between atoms: C_8  and  C_9
REMARK    4  A    between atoms: C_9  and  N_10
REMARK    5  A    between atoms: C_14  and  C_15
REMARK    6  A    between atoms: C_20  and  O_21
REMARK                            x       y       z     vdW  Elec       q    Type
REMARK                         _______ _______ _______ _____ _____    ______ ____
ROOT
ATOM      1  N   UNL     1      33.279 -23.325 -16.916  0.00  0.00    -0.251 N 
ATOM      2  N   UNL     1      35.251 -24.307 -16.109  0.00  0.00    -0.203 NA
ATOM      3  N   UNL     1      33.605 -23.411 -14.594  0.00  0.00    -0.181 NA
ATOM      4  C   UNL     1      34.079 -23.697 -15.827  0.00  0.00    +0.090 C 
ATOM      5  C   UNL     1      35.995 -24.651 -15.037  0.00  0.00    +0.165 C 
ATOM      6  C   UNL     1      34.400 -23.783 -13.569  0.00  0.00    +0.108 C 
ATOM      7  C   UNL     1      35.617 -24.411 -13.731  0.00  0.00    +0.022 C 
ENDROOT
BRANCH   1   8
ATOM      8  C   UNL     1      32.001 -22.681 -16.727  0.00  0.00    +0.079 C 
BRANCH   8   9
ATOM      9  C   UNL     1      30.939 -23.729 -16.428  0.00  0.00    -0.055 C 
BRANCH   9  10
ATOM     10  N   UNL     1      30.481 -23.610 -15.044  0.00  0.00    +0.385 N 
ATOM     11  C   UNL     1      30.114 -24.922 -14.512  0.00  0.00    -0.101 C 
ATOM     12  C   UNL     1      29.350 -22.688 -14.957  0.00  0.00    -0.101 C 
ATOM     13  H   UNL     1      31.247 -23.236 -14.482  0.00  0.00    -0.080 HD
ENDBRANCH   9  10
ENDBRANCH   8   9
ENDBRANCH   1   8
BRANCH   1  14
ATOM     14  C   UNL     1      33.728 -23.603 -18.282  0.00  0.00    +0.127 C 
BRANCH  14  15
ATOM     15  C   UNL     1      34.202 -22.356 -18.981  0.00  0.00    -0.002 C 
ATOM     16  C   UNL     1      35.550 -22.032 -18.960  0.00  0.00    +0.001 C 
ATOM     17  C   UNL     1      33.282 -21.549 -19.635  0.00  0.00    +0.001 C 
ATOM     18  C   UNL     1      35.989 -20.877 -19.607  0.00  0.00    +0.037 C 
ATOM     19  C   UNL     1      33.720 -20.393 -20.283  0.00  0.00    +0.037 C 
ATOM     20  C   UNL     1      35.075 -20.058 -20.268  0.00  0.00    +0.139 C 
BRANCH  20  21
ATOM     21  O   UNL     1      35.503 -18.931 -20.900  0.00  0.00    -0.471 OA
ATOM     22  C   UNL     1      34.501 -18.028 -21.366  0.00  0.00    +0.252 C 
ENDBRANCH  20  21
ENDBRANCH  14  15
ENDBRANCH   1  14
TORSDOF 6
ENDMDL
MODEL 5
REMARK VINA RESULT:      -7.5      3.120      6.317
REMARK  Name = 5457
REMARK  6 active torsions:
REMARK  status: ('A' for Active; 'I' for Inactive)
REMARK    1  A    between atoms: N_1  and  C_8
REMARK    2  A    between atoms: N_1  and  C_14
REMARK    3  A    between atoms: C_8  and  C_9
REMARK    4  A    between atoms: C_9  and  N_10
REMARK    5  A    between atoms: C_14  and  C_15
REMARK    6  A    between atoms: C_20  and  O_21
REMARK                            x       y       z     vdW  Elec       q    Type
REMARK                         _______ _______ _______ _____ _____    ______ ____
ROOT
ATOM      1  N   UNL     1      34.819 -24.211 -14.405  0.00  0.00    -0.251 N 
ATOM      2  N   UNL     1      36.211 -25.113 -12.746  0.00  0.00    -0.203 NA
ATOM      3  N   UNL     1      36.898 -25.080 -15.056  0.00  0.00    -0.181 NA
ATOM      4  C   UNL     1      36.027 -24.828 -14.054  0.00  0.00    +0.090 C 
ATOM      5  C   UNL     1      37.385 -25.707 -12.445  0.00  0.00    +0.165 C 
ATOM      6  C   UNL     1      38.050 -25.675 -14.684  0.00  0.00    +0.108 C 
ATOM      7  C   UNL     1      38.352 -26.014 -13.381  0.00  0.00    +0.022 C 
ENDROOT
BRANCH   1   8
ATOM      8  C   UNL     1      34.526 -23.849 -15.771  0.00  0.00    +0.079 C 
BRANCH   8   9
ATOM      9  C   UNL     1      35.053 -22.449 -16.054  0.00  0.00    -0.055 C 
BRANCH   9  10
ATOM     10  N   UNL     1      36.194 -22.511 -16.968  0.00  0.00    +0.385 N 
ATOM     11  C   UNL     1      37.328 -21.768 -16.419  0.00  0.00    -0.101 C 
ATOM     12  C   UNL     1      35.826 -21.985 -18.281  0.00  0.00    -0.101 C 
ATOM     13  H   UNL     1      36.470 -23.487 -17.075  0.00  0.00    -0.080 HD
ENDBRANCH   9  10
ENDBRANCH   8   9
ENDBRANCH   1   8
BRANCH   1  14
ATOM     14  C   UNL     1      33.826 -23.906 -13.372  0.00  0.00    +0.127 C 
BRANCH  14  15
ATOM     15  C   UNL     1      32.421 -23.965 -13.910  0.00  0.00    -0.002 C 
ATOM     16  C   UNL     1      31.815 -22.803 -14.363  0.00  0.00    +0.001 C 
ATOM     17  C   UNL     1      31.753 -25.181 -13.944  0.00  0.00    +0.001 C 
ATOM     18  C   UNL     1      30.513 -22.856 -14.863  0.00  0.00    +0.037 C 
ATOM     19  C   UNL     1      30.451 -25.235 -14.443  0.00  0.00    +0.037 C 
ATOM     20  C   UNL     1      29.831 -24.072 -14.902  0.00  0.00    +0.139 C 
BRANCH  20  21
ATOM     21  O   UNL     1      28.561 -24.125 -15.389  0.00  0.00    -0.471 OA
ATOM     22  C   UNL     1      28.384 -23.827 -16.773  0.00  0.00    +0.252 C 
ENDBRANCH  20  21
ENDBRANCH  14  15
ENDBRANCH   1  14
TORSDOF 6
ENDMDL
MODEL 6
REMARK VINA RESULT:      -7.4      9.147     12.913
REMARK  Name = 5457
REMARK  6 active torsions:
REMARK  status: ('A' for Active; 'I' for Inactive)
REMARK    1  A    between atoms: N_1  and  C_8
REMARK    2  A    between atoms: N_1  and  C_14
REMARK    3  A    between atoms: C_8  and  C_9
REMARK    4  A    between atoms: C_9  and  N_10
REMARK    5  A    between atoms: C_14  and  C_15
REMARK    6  A    between atoms: C_20  and  O_21
REMARK                            x       y       z     vdW  Elec       q    Type
REMARK                         _______ _______ _______ _____ _____    ______ ____
ROOT
ATOM      1  N   UNL     1      32.767 -11.929 -23.124  0.00  0.00    -0.251 N 
ATOM      2  N   UNL     1      34.000 -11.963 -25.120  0.00  0.00    -0.203 NA
ATOM      3  N   UNL     1      34.058 -10.045 -23.662  0.00  0.00    -0.181 NA
ATOM      4  C   UNL     1      33.646 -11.285 -24.006  0.00  0.00    +0.090 C 
ATOM      5  C   UNL     1      34.846 -11.313 -25.946  0.00  0.00    +0.165 C 
ATOM      6  C   UNL     1      34.902  -9.454 -24.533  0.00  0.00    +0.108 C 
ATOM      7  C   UNL     1      35.335 -10.046 -25.702  0.00  0.00    +0.022 C 
ENDROOT
BRANCH   1   8
ATOM      8  C   UNL     1      32.336 -11.301 -21.898  0.00  0.00    +0.079 C 
BRANCH   8   9
ATOM      9  C   UNL     1      31.441 -10.112 -22.219  0.00  0.00    -0.055 C 
BRANCH   9  10
ATOM     10  N   UNL     1      32.109  -8.861 -21.863  0.00  0.00    +0.385 N 
ATOM     11  C   UNL     1      32.140  -8.694 -20.411  0.00  0.00    -0.101 C 
ATOM     12  C   UNL     1      31.439  -7.726 -22.495  0.00  0.00    -0.101 C 
ATOM     13  H   UNL     1      33.070  -8.900 -22.204  0.00  0.00    -0.080 HD
ENDBRANCH   9  10
ENDBRANCH   8   9
ENDBRANCH   1   8
BRANCH   1  14
ATOM     14  C   UNL     1      32.278 -13.275 -23.431  0.00  0.00    +0.127 C 
BRANCH  14  15
ATOM     15  C   UNL     1      33.048 -14.335 -22.689  0.00  0.00    -0.002 C 
ATOM     16  C   UNL     1      32.615 -14.739 -21.435  0.00  0.00    +0.001 C 
ATOM     17  C   UNL     1      34.178 -14.890 -23.270  0.00  0.00    +0.001 C 
ATOM     18  C   UNL     1      33.328 -15.721 -20.747  0.00  0.00    +0.037 C 
ATOM     19  C   UNL     1      34.892 -15.872 -22.582  0.00  0.00    +0.037 C 
ATOM     20  C   UNL     1      34.466 -16.288 -21.320  0.00  0.00    +0.139 C 
BRANCH  20  21
ATOM     21  O   UNL     1      35.162 -17.246 -20.649  0.00  0.00    -0.471 OA
ATOM     22  C   UNL     1      35.701 -18.317 -21.421  0.00  0.00    +0.252 C 
ENDBRANCH  20  21
ENDBRANCH  14  15
ENDBRANCH   1  14
TORSDOF 6
ENDMDL
MODEL 7
REMARK VINA RESULT:      -7.3     12.858     16.155
REMARK  Name = 5457
REMARK  6 active torsions:
REMARK  status: ('A' for Active; 'I' for Inactive)
REMARK    1  A    between atoms: N_1  and  C_8
REMARK    2  A    between atoms: N_1  and  C_14
REMARK    3  A    between atoms: C_8  and  C_9
REMARK    4  A    between atoms: C_9  and  N_10
REMARK    5  A    between atoms: C_14  and  C_15
REMARK    6  A    between atoms: C_20  and  O_21
REMARK                            x       y       z     vdW  Elec       q    Type
REMARK                         _______ _______ _______ _____ _____    ______ ____
ROOT
ATOM      1  N   UNL     1      32.976  -9.000 -22.900  0.00  0.00    -0.251 N 
ATOM      2  N   UNL     1      34.810  -9.120 -24.360  0.00  0.00    -0.203 NA
ATOM      3  N   UNL     1      33.183 -10.896 -24.266  0.00  0.00    -0.181 NA
ATOM      4  C   UNL     1      33.687  -9.701 -23.884  0.00  0.00    +0.090 C 
ATOM      5  C   UNL     1      35.468  -9.824 -25.305  0.00  0.00    +0.165 C 
ATOM      6  C   UNL     1      33.891 -11.544 -25.214  0.00  0.00    +0.108 C 
ATOM      7  C   UNL     1      35.051 -11.053 -25.775  0.00  0.00    +0.022 C 
ENDROOT
BRANCH   1   8
ATOM      8  C   UNL     1      31.756  -9.523 -22.334  0.00  0.00    +0.079 C 
BRANCH   8   9
ATOM      9  C   UNL     1      31.853  -9.518 -20.815  0.00  0.00    -0.055 C 
BRANCH   9  10
ATOM     10  N   UNL     1      31.143 -10.667 -20.256  0.00  0.00    +0.385 N 
ATOM     11  C   UNL     1      31.404 -10.781 -18.821  0.00  0.00    -0.101 C 
ATOM     12  C   UNL     1      31.534 -11.896 -20.946  0.00  0.00    -0.101 C 
ATOM     13  H   UNL     1      30.141 -10.525 -20.391  0.00  0.00    -0.080 HD
ENDBRANCH   9  10
ENDBRANCH   8   9
ENDBRANCH   1   8
BRANCH   1  14
ATOM     14  C   UNL     1      33.463  -7.698 -22.435  0.00  0.00    +0.127 C 
BRANCH  14  15
ATOM     15  C   UNL     1      32.645  -6.563 -22.991  0.00  0.00    -0.002 C 
ATOM     16  C   UNL     1      31.809  -5.847 -22.148  0.00  0.00    +0.001 C 
ATOM     17  C   UNL     1      32.740  -6.250 -24.340  0.00  0.00    +0.001 C 
ATOM     18  C   UNL     1      31.052  -4.795 -22.662  0.00  0.00    +0.037 C 
ATOM     19  C   UNL     1      31.982  -5.198 -24.856  0.00  0.00    +0.037 C 
ATOM     20  C   UNL     1      31.138  -4.470 -24.016  0.00  0.00    +0.139 C 
BRANCH  20  21
ATOM     21  O   UNL     1      30.399  -3.444 -24.519  0.00  0.00    -0.471 OA
ATOM     22  C   UNL     1      30.990  -2.667 -25.559  0.00  0.00    +0.252 C 
ENDBRANCH  20  21
ENDBRANCH  14  15
ENDBRANCH   1  14
TORSDOF 6
ENDMDL
MODEL 8
REMARK VINA RESULT:      -7.2      8.668     12.409
REMARK  Name = 5457
REMARK  6 active torsions:
REMARK  status: ('A' for Active; 'I' for Inactive)
REMARK    1  A    between atoms: N_1  and  C_8
REMARK    2  A    between atoms: N_1  and  C_14
REMARK    3  A    between atoms: C_8  and  C_9
REMARK    4  A    between atoms: C_9  and  N_10
REMARK    5  A    between atoms: C_14  and  C_15
REMARK    6  A    between atoms: C_20  and  O_21
REMARK                            x       y       z     vdW  Elec       q    Type
REMARK                         _______ _______ _______ _____ _____    ______ ____
ROOT
ATOM      1  N   UNL     1      32.938 -12.287 -23.116  0.00  0.00    -0.251 N 
ATOM      2  N   UNL     1      33.977 -12.129 -25.214  0.00  0.00    -0.203 NA
ATOM      3  N   UNL     1      34.125 -10.327 -23.621  0.00  0.00    -0.181 NA
ATOM      4  C   UNL     1      33.713 -11.550 -24.023  0.00  0.00    +0.090 C 
ATOM      5  C   UNL     1      34.724 -11.391 -26.062  0.00  0.00    +0.165 C 
ATOM      6  C   UNL     1      34.868  -9.645 -24.517  0.00  0.00    +0.108 C 
ATOM      7  C   UNL     1      35.202 -10.131 -25.764  0.00  0.00    +0.022 C 
ENDROOT
BRANCH   1   8
ATOM      8  C   UNL     1      32.610 -11.769 -21.810  0.00  0.00    +0.079 C 
BRANCH   8   9
ATOM      9  C   UNL     1      31.202 -11.190 -21.828  0.00  0.00    -0.055 C 
BRANCH   9  10
ATOM     10  N   UNL     1      31.043 -10.206 -20.758  0.00  0.00    +0.385 N 
ATOM     11  C   UNL     1      32.004  -9.115 -20.921  0.00  0.00    -0.101 C 
ATOM     12  C   UNL     1      31.206 -10.841 -19.451  0.00  0.00    -0.101 C 
ATOM     13  H   UNL     1      30.101  -9.817 -20.814  0.00  0.00    -0.080 HD
ENDBRANCH   9  10
ENDBRANCH   8   9
ENDBRANCH   1   8
BRANCH   1  14
ATOM     14  C   UNL     1      32.455 -13.621 -23.483  0.00  0.00    +0.127 C 
BRANCH  14  15
ATOM     15  C   UNL     1      33.203 -14.707 -22.756  0.00  0.00    -0.002 C 
ATOM     16  C   UNL     1      32.706 -15.192 -21.556  0.00  0.00    +0.001 C 
ATOM     17  C   UNL     1      34.379 -15.207 -23.299  0.00  0.00    +0.001 C 
ATOM     18  C   UNL     1      33.399 -16.199 -20.883  0.00  0.00    +0.037 C 
ATOM     19  C   UNL     1      35.072 -16.213 -22.626  0.00  0.00    +0.037 C 
ATOM     20  C   UNL     1      34.581 -16.709 -21.417  0.00  0.00    +0.139 C 
BRANCH  20  21
ATOM     21  O   UNL     1      35.257 -17.692 -20.761  0.00  0.00    -0.471 OA
ATOM     22  C   UNL     1      36.030 -18.591 -21.556  0.00  0.00    +0.252 C 
ENDBRANCH  20  21
ENDBRANCH  14  15
ENDBRANCH   1  14
TORSDOF 6
ENDMDL
MODEL 9
REMARK VINA RESULT:      -7.2      2.664      5.465
REMARK  Name = 5457
REMARK  6 active torsions:
REMARK  status: ('A' for Active; 'I' for Inactive)
REMARK    1  A    between atoms: N_1  and  C_8
REMARK    2  A    between atoms: N_1  and  C_14
REMARK    3  A    between atoms: C_8  and  C_9
REMARK    4  A    between atoms: C_9  and  N_10
REMARK    5  A    between atoms: C_14  and  C_15
REMARK    6  A    between atoms: C_20  and  O_21
REMARK                            x       y       z     vdW  Elec       q    Type
REMARK                         _______ _______ _______ _____ _____    ______ ____
ROOT
ATOM      1  N   UNL     1      33.657 -23.271 -16.122  0.00  0.00    -0.251 N 
ATOM      2  N   UNL     1      32.379 -23.295 -14.155  0.00  0.00    -0.203 NA
ATOM      3  N   UNL     1      31.446 -24.043 -16.247  0.00  0.00    -0.181 NA
ATOM      4  C   UNL     1      32.442 -23.548 -15.480  0.00  0.00    +0.090 C 
ATOM      5  C   UNL     1      31.194 -23.574 -13.570  0.00  0.00    +0.165 C 
ATOM      6  C   UNL     1      30.290 -24.298 -15.598  0.00  0.00    +0.108 C 
ATOM      7  C   UNL     1      30.105 -24.081 -14.248  0.00  0.00    +0.022 C 
ENDROOT
BRANCH   1   8
ATOM      8  C   UNL     1      33.839 -23.517 -17.532  0.00  0.00    +0.079 C 
BRANCH   8   9
ATOM      9  C   UNL     1      33.449 -22.276 -18.323  0.00  0.00    -0.055 C 
BRANCH   9  10
ATOM     10  N   UNL     1      34.446 -21.997 -19.356  0.00  0.00    +0.385 N 
ATOM     11  C   UNL     1      35.769 -21.826 -18.757  0.00  0.00    -0.101 C 
ATOM     12  C   UNL     1      34.072 -20.807 -20.119  0.00  0.00    -0.101 C 
ATOM     13  H   UNL     1      34.481 -22.793 -19.994  0.00  0.00    -0.080 HD
ENDBRANCH   9  10
ENDBRANCH   8   9
ENDBRANCH   1   8
BRANCH   1  14
ATOM     14  C   UNL     1      34.783 -22.732 -15.355  0.00  0.00    +0.127 C 
BRANCH  14  15
ATOM     15  C   UNL     1      35.886 -23.744 -15.191  0.00  0.00    -0.002 C 
ATOM     16  C   UNL     1      35.563 -25.079 -14.995  0.00  0.00    +0.001 C 
ATOM     17  C   UNL     1      37.208 -23.327 -15.240  0.00  0.00    +0.001 C 
ATOM     18  C   UNL     1      36.584 -26.017 -14.844  0.00  0.00    +0.037 C 
ATOM     19  C   UNL     1      38.230 -24.265 -15.088  0.00  0.00    +0.037 C 
ATOM     20  C   UNL     1      37.917 -25.611 -14.890  0.00  0.00    +0.139 C 
BRANCH  20  21
ATOM     21  O   UNL     1      38.914 -26.526 -14.742  0.00  0.00    -0.471 OA
ATOM     22  C   UNL     1      40.243 -26.023 -14.617  0.00  0.00    +0.252 C 
ENDBRANCH  20  21
ENDBRANCH  14  15
ENDBRANCH   1  14
TORSDOF 6
ENDMDL
