MODEL 1
REMARK VINA RESULT:      -9.9      0.000      0.000
REMARK  Name = 68867
REMARK  8 active torsions:
REMARK  status: ('A' for Active; 'I' for Inactive)
REMARK    1  A    between atoms: N_2  and  C_6
REMARK    2  A    between atoms: C_3  and  C_19
REMARK    3  A    between atoms: N_5  and  C_12
REMARK    4  A    between atoms: C_12  and  C_13
REMARK    5  A    between atoms: C_20  and  O_31
REMARK    6  A    between atoms: C_22  and  N_27
REMARK    7  A    between atoms: C_24  and  N_28
REMARK    8  A    between atoms: O_31  and  C_32
REMARK                            x       y       z     vdW  Elec       q    Type
REMARK                         _______ _______ _______ _____ _____    ______ ____
ROOT
ATOM      1  O   UNL     1      32.209 -13.392 -19.709  0.00  0.00    -0.270 OA
ATOM      2  N   UNL     1      31.582 -12.451 -21.735  0.00  0.00    -0.303 N 
ATOM      3  C   UNL     1      32.274 -13.347 -20.935  0.00  0.00    +0.249 C 
ATOM      4  H   UNL     1      31.701 -12.496 -22.710  0.00  0.00    +0.150 HD
ENDROOT
BRANCH   2   6
ATOM      5  N   UNL     1      32.011  -8.826 -21.270  0.00  0.00    +0.387 N 
ATOM      6  C   UNL     1      30.692 -11.452 -21.187  0.00  0.00    +0.068 C 
ATOM      7  C   UNL     1      32.444  -9.841 -20.299  0.00  0.00    -0.076 C 
ATOM      8  C   UNL     1      31.525  -9.449 -22.509  0.00  0.00    -0.076 C 
ATOM      9  C   UNL     1      31.297 -10.792 -19.945  0.00  0.00    -0.003 C 
ATOM     10  C   UNL     1      30.348 -10.388 -22.232  0.00  0.00    -0.003 C 
ATOM     11  H   UNL     1      31.236  -8.307 -20.857  0.00  0.00    -0.080 HD
BRANCH   5  12
ATOM     12  C   UNL     1      33.100  -7.894 -21.558  0.00  0.00    -0.077 C 
BRANCH  12  13
ATOM     13  C   UNL     1      33.079  -7.455 -23.021  0.00  0.00    -0.016 C 
ATOM     14  C   UNL     1      32.375  -6.102 -23.182  0.00  0.00    +0.003 C 
ATOM     15  C   UNL     1      34.508  -7.390 -23.590  0.00  0.00    +0.024 C 
ATOM     16  C   UNL     1      32.311  -5.680 -24.653  0.00  0.00    +0.026 C 
ATOM     17  C   UNL     1      34.583  -6.685 -24.913  0.00  0.00    -0.031 C 
ATOM     18  C   UNL     1      33.589  -5.928 -25.396  0.00  0.00    -0.031 C 
ENDBRANCH  12  13
ENDBRANCH   5  12
ENDBRANCH   2   6
BRANCH   3  19
ATOM     19  C   UNL     1      33.170 -14.294 -21.649  0.00  0.00    +0.089 C 
ATOM     20  C   UNL     1      33.750 -13.948 -22.870  0.00  0.00    +0.144 C 
ATOM     21  C   UNL     1      33.430 -15.542 -21.082  0.00  0.00    +0.033 C 
ATOM     22  C   UNL     1      34.269 -16.444 -21.737  0.00  0.00    +0.156 C 
ATOM     23  C   UNL     1      34.588 -14.850 -23.524  0.00  0.00    +0.053 C 
ATOM     24  C   UNL     1      34.848 -16.098 -22.957  0.00  0.00    +0.067 C 
BRANCH  22  27
ATOM     25  O   UNL     1      33.588 -18.549 -21.087  0.00  0.00    -0.126 OA
ATOM     26  O   UNL     1      35.659 -17.948 -20.676  0.00  0.00    -0.126 OA
ATOM     27  N   UNL     1      34.518 -17.710 -21.136  0.00  0.00    +0.059 N 
ENDBRANCH  22  27
BRANCH  24  28
ATOM     28  N   UNL     1      35.703 -16.994 -23.639  0.00  0.00    -0.356 N 
ATOM     29  H   UNL     1      35.346 -17.839 -23.996  0.00  0.00    +0.142 HD
ATOM     30  H   UNL     1      36.655 -16.772 -23.759  0.00  0.00    +0.142 HD
ENDBRANCH  24  28
BRANCH  20  31
ATOM     31  O   UNL     1      33.507 -12.735 -23.440  0.00  0.00    -0.475 OA
BRANCH  31  32
ATOM     32  C   UNL     1      33.838 -12.590 -24.819  0.00  0.00    +0.206 C 
ATOM     33  C   UNL     1      34.228 -11.151 -25.085  0.00  0.00    +0.051 C 
ENDBRANCH  31  32
ENDBRANCH  20  31
ENDBRANCH   3  19
TORSDOF 8
ENDMDL
MODEL 2
REMARK VINA RESULT:      -9.9      6.236     10.133
REMARK  Name = 68867
REMARK  8 active torsions:
REMARK  status: ('A' for Active; 'I' for Inactive)
REMARK    1  A    between atoms: N_2  and  C_6
REMARK    2  A    between atoms: C_3  and  C_19
REMARK    3  A    between atoms: N_5  and  C_12
REMARK    4  A    between atoms: C_12  and  C_13
REMARK    5  A    between atoms: C_20  and  O_31
REMARK    6  A    between atoms: C_22  and  N_27
REMARK    7  A    between atoms: C_24  and  N_28
REMARK    8  A    between atoms: O_31  and  C_32
REMARK                            x       y       z     vdW  Elec       q    Type
REMARK                         _______ _______ _______ _____ _____    ______ ____
ROOT
ATOM      1  O   UNL     1      34.049 -23.603 -19.869  0.00  0.00    -0.270 OA
ATOM      2  N   UNL     1      34.416 -21.343 -19.495  0.00  0.00    -0.303 N 
ATOM      3  C   UNL     1      34.114 -22.640 -19.109  0.00  0.00    +0.249 C 
ATOM      4  H   UNL     1      34.444 -20.639 -18.808  0.00  0.00    +0.150 HD
ENDROOT
BRANCH   2   6
ATOM      5  N   UNL     1      34.890 -18.064 -21.094  0.00  0.00    +0.387 N 
ATOM      6  C   UNL     1      34.691 -20.988 -20.869  0.00  0.00    +0.068 C 
ATOM      7  C   UNL     1      33.582 -18.702 -20.889  0.00  0.00    -0.076 C 
ATOM      8  C   UNL     1      35.963 -18.830 -20.446  0.00  0.00    -0.076 C 
ATOM      9  C   UNL     1      33.568 -20.126 -21.453  0.00  0.00    -0.003 C 
ATOM     10  C   UNL     1      36.031 -20.259 -20.992  0.00  0.00    -0.003 C 
ATOM     11  H   UNL     1      35.078 -18.049 -22.097  0.00  0.00    -0.080 HD
BRANCH   5  12
ATOM     12  C   UNL     1      34.872 -16.688 -20.599  0.00  0.00    -0.077 C 
BRANCH  12  13
ATOM     13  C   UNL     1      33.927 -15.817 -21.424  0.00  0.00    -0.016 C 
ATOM     14  C   UNL     1      33.395 -14.640 -20.596  0.00  0.00    +0.003 C 
ATOM     15  C   UNL     1      34.628 -15.308 -22.696  0.00  0.00    +0.024 C 
ATOM     16  C   UNL     1      32.412 -13.790 -21.407  0.00  0.00    +0.026 C 
ATOM     17  C   UNL     1      33.867 -14.216 -23.391  0.00  0.00    -0.031 C 
ATOM     18  C   UNL     1      32.862 -13.544 -22.815  0.00  0.00    -0.031 C 
ENDBRANCH  12  13
ENDBRANCH   5  12
ENDBRANCH   2   6
BRANCH   3  19
ATOM     19  C   UNL     1      33.830 -22.837 -17.664  0.00  0.00    +0.089 C 
ATOM     20  C   UNL     1      34.857 -22.804 -16.721  0.00  0.00    +0.144 C 
ATOM     21  C   UNL     1      32.514 -23.056 -17.254  0.00  0.00    +0.033 C 
ATOM     22  C   UNL     1      32.227 -23.241 -15.901  0.00  0.00    +0.156 C 
ATOM     23  C   UNL     1      34.570 -22.990 -15.369  0.00  0.00    +0.053 C 
ATOM     24  C   UNL     1      33.254 -23.209 -14.959  0.00  0.00    +0.067 C 
BRANCH  22  27
ATOM     25  O   UNL     1      30.313 -24.527 -15.857  0.00  0.00    -0.126 OA
ATOM     26  O   UNL     1      30.292 -22.587 -14.831  0.00  0.00    -0.126 OA
ATOM     27  N   UNL     1      30.876 -23.462 -15.511  0.00  0.00    +0.059 N 
ENDBRANCH  22  27
BRANCH  24  28
ATOM     28  N   UNL     1      32.989 -23.393 -13.583  0.00  0.00    -0.356 N 
ATOM     29  H   UNL     1      32.328 -24.062 -13.295  0.00  0.00    +0.142 HD
ATOM     30  H   UNL     1      33.467 -22.853 -12.913  0.00  0.00    +0.142 HD
ENDBRANCH  24  28
BRANCH  20  31
ATOM     31  O   UNL     1      36.148 -22.592 -17.102  0.00  0.00    -0.475 OA
BRANCH  31  32
ATOM     32  C   UNL     1      37.052 -22.131 -16.100  0.00  0.00    +0.206 C 
ATOM     33  C   UNL     1      38.071 -23.215 -15.817  0.00  0.00    +0.051 C 
ENDBRANCH  31  32
ENDBRANCH  20  31
ENDBRANCH   3  19
TORSDOF 8
ENDMDL
MODEL 3
REMARK VINA RESULT:      -9.6      1.575      2.221
REMARK  Name = 68867
REMARK  8 active torsions:
REMARK  status: ('A' for Active; 'I' for Inactive)
REMARK    1  A    between atoms: N_2  and  C_6
REMARK    2  A    between atoms: C_3  and  C_19
REMARK    3  A    between atoms: N_5  and  C_12
REMARK    4  A    between atoms: C_12  and  C_13
REMARK    5  A    between atoms: C_20  and  O_31
REMARK    6  A    between atoms: C_22  and  N_27
REMARK    7  A    between atoms: C_24  and  N_28
REMARK    8  A    between atoms: O_31  and  C_32
REMARK                            x       y       z     vdW  Elec       q    Type
REMARK                         _______ _______ _______ _____ _____    ______ ____
ROOT
ATOM      1  O   UNL     1      30.997 -12.249 -21.215  0.00  0.00    -0.270 OA
ATOM      2  N   UNL     1      32.440 -10.700 -22.162  0.00  0.00    -0.303 N 
ATOM      3  C   UNL     1      32.010 -11.982 -21.856  0.00  0.00    +0.249 C 
ATOM      4  H   UNL     1      33.268 -10.590 -22.683  0.00  0.00    +0.150 HD
ENDROOT
BRANCH   2   6
ATOM      5  N   UNL     1      32.625  -7.215 -23.328  0.00  0.00    +0.387 N 
ATOM      6  C   UNL     1      31.718  -9.520 -21.744  0.00  0.00    +0.068 C 
ATOM      7  C   UNL     1      33.495  -7.787 -22.290  0.00  0.00    -0.076 C 
ATOM      8  C   UNL     1      31.782  -8.248 -23.943  0.00  0.00    -0.076 C 
ATOM      9  C   UNL     1      32.671  -8.458 -21.187  0.00  0.00    -0.003 C 
ATOM     10  C   UNL     1      30.899  -8.937 -22.897  0.00  0.00    -0.003 C 
ATOM     11  H   UNL     1      32.011  -6.533 -22.882  0.00  0.00    -0.080 HD
BRANCH   5  12
ATOM     12  C   UNL     1      33.423  -6.533 -24.346  0.00  0.00    -0.077 C 
BRANCH  12  13
ATOM     13  C   UNL     1      32.562  -5.590 -25.182  0.00  0.00    -0.016 C 
ATOM     14  C   UNL     1      31.929  -4.498 -24.310  0.00  0.00    +0.003 C 
ATOM     15  C   UNL     1      33.388  -4.960 -26.318  0.00  0.00    +0.024 C 
ATOM     16  C   UNL     1      31.027  -3.578 -25.138  0.00  0.00    +0.026 C 
ATOM     17  C   UNL     1      32.693  -3.810 -26.984  0.00  0.00    -0.031 C 
ATOM     18  C   UNL     1      31.623  -3.198 -26.460  0.00  0.00    -0.031 C 
ENDBRANCH  12  13
ENDBRANCH   5  12
ENDBRANCH   2   6
BRANCH   3  19
ATOM     19  C   UNL     1      32.877 -13.088 -22.335  0.00  0.00    +0.089 C 
ATOM     20  C   UNL     1      33.372 -13.097 -23.640  0.00  0.00    +0.144 C 
ATOM     21  C   UNL     1      33.196 -14.129 -21.462  0.00  0.00    +0.033 C 
ATOM     22  C   UNL     1      34.011 -15.176 -21.893  0.00  0.00    +0.156 C 
ATOM     23  C   UNL     1      34.185 -14.145 -24.071  0.00  0.00    +0.053 C 
ATOM     24  C   UNL     1      34.505 -15.185 -23.197  0.00  0.00    +0.067 C 
BRANCH  22  27
ATOM     25  O   UNL     1      33.907 -17.382 -21.227  0.00  0.00    -0.126 OA
ATOM     26  O   UNL     1      35.001 -15.959 -19.963  0.00  0.00    -0.126 OA
ATOM     27  N   UNL     1      34.321 -16.224 -20.981  0.00  0.00    +0.059 N 
ENDBRANCH  22  27
BRANCH  24  28
ATOM     28  N   UNL     1      35.332 -16.234 -23.657  0.00  0.00    -0.356 N 
ATOM     29  H   UNL     1      36.295 -16.080 -23.791  0.00  0.00    +0.142 HD
ATOM     30  H   UNL     1      34.945 -17.121 -23.844  0.00  0.00    +0.142 HD
ENDBRANCH  24  28
BRANCH  20  31
ATOM     31  O   UNL     1      33.071 -12.091 -24.508  0.00  0.00    -0.475 OA
BRANCH  31  32
ATOM     32  C   UNL     1      34.117 -11.640 -25.365  0.00  0.00    +0.206 C 
ATOM     33  C   UNL     1      34.694 -10.356 -24.807  0.00  0.00    +0.051 C 
ENDBRANCH  31  32
ENDBRANCH  20  31
ENDBRANCH   3  19
TORSDOF 8
ENDMDL
MODEL 4
REMARK VINA RESULT:      -9.5      1.740      3.401
REMARK  Name = 68867
REMARK  8 active torsions:
REMARK  status: ('A' for Active; 'I' for Inactive)
REMARK    1  A    between atoms: N_2  and  C_6
REMARK    2  A    between atoms: C_3  and  C_19
REMARK    3  A    between atoms: N_5  and  C_12
REMARK    4  A    between atoms: C_12  and  C_13
REMARK    5  A    between atoms: C_20  and  O_31
REMARK    6  A    between atoms: C_22  and  N_27
REMARK    7  A    between atoms: C_24  and  N_28
REMARK    8  A    between atoms: O_31  and  C_32
REMARK                            x       y       z     vdW  Elec       q    Type
REMARK                         _______ _______ _______ _____ _____    ______ ____
ROOT
ATOM      1  O   UNL     1      32.896 -14.124 -25.308  0.00  0.00    -0.270 OA
ATOM      2  N   UNL     1      34.258 -12.504 -24.360  0.00  0.00    -0.303 N 
ATOM      3  C   UNL     1      33.704 -13.771 -24.454  0.00  0.00    +0.249 C 
ATOM      4  H   UNL     1      34.899 -12.319 -23.637  0.00  0.00    +0.150 HD
ENDROOT
BRANCH   2   6
ATOM      5  N   UNL     1      33.863  -8.883 -23.845  0.00  0.00    +0.387 N 
ATOM      6  C   UNL     1      33.927 -11.444 -25.286  0.00  0.00    +0.068 C 
ATOM      7  C   UNL     1      32.789  -9.867 -23.651  0.00  0.00    -0.076 C 
ATOM      8  C   UNL     1      35.146  -9.543 -24.121  0.00  0.00    -0.076 C 
ATOM      9  C   UNL     1      32.620 -10.752 -24.889  0.00  0.00    -0.003 C 
ATOM     10  C   UNL     1      35.059 -10.418 -25.375  0.00  0.00    -0.003 C 
ATOM     11  H   UNL     1      33.624  -8.312 -24.656  0.00  0.00    -0.080 HD
BRANCH   5  12
ATOM     12  C   UNL     1      33.977  -8.012 -22.675  0.00  0.00    -0.077 C 
BRANCH  12  13
ATOM     13  C   UNL     1      33.200  -6.712 -22.877  0.00  0.00    -0.016 C 
ATOM     14  C   UNL     1      32.842  -6.506 -24.355  0.00  0.00    +0.003 C 
ATOM     15  C   UNL     1      31.930  -6.697 -22.008  0.00  0.00    +0.024 C 
ATOM     16  C   UNL     1      32.103  -5.181 -24.568  0.00  0.00    +0.026 C 
ATOM     17  C   UNL     1      30.977  -5.598 -22.378  0.00  0.00    -0.031 C 
ATOM     18  C   UNL     1      31.064  -4.908 -23.523  0.00  0.00    -0.031 C 
ENDBRANCH  12  13
ENDBRANCH   5  12
ENDBRANCH   2   6
BRANCH   3  19
ATOM     19  C   UNL     1      34.126 -14.741 -23.409  0.00  0.00    +0.089 C 
ATOM     20  C   UNL     1      33.976 -14.445 -22.055  0.00  0.00    +0.144 C 
ATOM     21  C   UNL     1      34.678 -15.962 -23.799  0.00  0.00    +0.033 C 
ATOM     22  C   UNL     1      35.079 -16.886 -22.834  0.00  0.00    +0.156 C 
ATOM     23  C   UNL     1      34.378 -15.368 -21.090  0.00  0.00    +0.053 C 
ATOM     24  C   UNL     1      34.929 -16.589 -21.480  0.00  0.00    +0.067 C 
BRANCH  22  27
ATOM     25  O   UNL     1      35.054 -18.773 -24.159  0.00  0.00    -0.126 OA
ATOM     26  O   UNL     1      36.696 -18.526 -22.723  0.00  0.00    -0.126 OA
ATOM     27  N   UNL     1      35.637 -18.124 -23.259  0.00  0.00    +0.059 N 
ENDBRANCH  22  27
BRANCH  24  28
ATOM     28  N   UNL     1      35.327 -17.509 -20.482  0.00  0.00    -0.356 N 
ATOM     29  H   UNL     1      36.153 -18.031 -20.596  0.00  0.00    +0.142 HD
ATOM     30  H   UNL     1      34.778 -17.626 -19.673  0.00  0.00    +0.142 HD
ENDBRANCH  24  28
BRANCH  20  31
ATOM     31  O   UNL     1      33.440 -13.258 -21.654  0.00  0.00    -0.475 OA
BRANCH  31  32
ATOM     32  C   UNL     1      32.273 -13.316 -20.838  0.00  0.00    +0.206 C 
ATOM     33  C   UNL     1      31.527 -12.003 -20.948  0.00  0.00    +0.051 C 
ENDBRANCH  31  32
ENDBRANCH  20  31
ENDBRANCH   3  19
TORSDOF 8
ENDMDL
MODEL 5
REMARK VINA RESULT:      -9.4      6.153      9.971
REMARK  Name = 68867
REMARK  8 active torsions:
REMARK  status: ('A' for Active; 'I' for Inactive)
REMARK    1  A    between atoms: N_2  and  C_6
REMARK    2  A    between atoms: C_3  and  C_19
REMARK    3  A    between atoms: N_5  and  C_12
REMARK    4  A    between atoms: C_12  and  C_13
REMARK    5  A    between atoms: C_20  and  O_31
REMARK    6  A    between atoms: C_22  and  N_27
REMARK    7  A    between atoms: C_24  and  N_28
REMARK    8  A    between atoms: O_31  and  C_32
REMARK                            x       y       z     vdW  Elec       q    Type
REMARK                         _______ _______ _______ _____ _____    ______ ____
ROOT
ATOM      1  O   UNL     1      33.813 -23.540 -19.670  0.00  0.00    -0.270 OA
ATOM      2  N   UNL     1      34.300 -21.279 -19.493  0.00  0.00    -0.303 N 
ATOM      3  C   UNL     1      34.165 -22.569 -19.005  0.00  0.00    +0.249 C 
ATOM      4  H   UNL     1      34.588 -20.567 -18.878  0.00  0.00    +0.150 HD
ENDROOT
BRANCH   2   6
ATOM      5  N   UNL     1      34.291 -18.035 -21.229  0.00  0.00    +0.387 N 
ATOM      6  C   UNL     1      34.031 -20.941 -20.873  0.00  0.00    +0.068 C 
ATOM      7  C   UNL     1      33.136 -18.591 -20.511  0.00  0.00    -0.076 C 
ATOM      8  C   UNL     1      35.487 -18.866 -21.036  0.00  0.00    -0.076 C 
ATOM      9  C   UNL     1      32.820 -20.011 -20.989  0.00  0.00    -0.003 C 
ATOM     10  C   UNL     1      35.253 -20.296 -21.531  0.00  0.00    -0.003 C 
ATOM     11  H   UNL     1      34.070 -18.031 -22.225  0.00  0.00    -0.080 HD
BRANCH   5  12
ATOM     12  C   UNL     1      34.548 -16.660 -20.800  0.00  0.00    -0.077 C 
BRANCH  12  13
ATOM     13  C   UNL     1      33.705 -15.667 -21.596  0.00  0.00    -0.016 C 
ATOM     14  C   UNL     1      33.207 -14.523 -20.703  0.00  0.00    +0.003 C 
ATOM     15  C   UNL     1      34.501 -15.111 -22.790  0.00  0.00    +0.024 C 
ATOM     16  C   UNL     1      32.323 -13.549 -21.488  0.00  0.00    +0.026 C 
ATOM     17  C   UNL     1      33.849 -13.921 -23.430  0.00  0.00    -0.031 C 
ATOM     18  C   UNL     1      32.860 -13.227 -22.849  0.00  0.00    -0.031 C 
ENDBRANCH  12  13
ENDBRANCH   5  12
ENDBRANCH   2   6
BRANCH   3  19
ATOM     19  C   UNL     1      34.452 -22.747 -17.558  0.00  0.00    +0.089 C 
ATOM     20  C   UNL     1      33.432 -23.058 -16.658  0.00  0.00    +0.144 C 
ATOM     21  C   UNL     1      35.763 -22.599 -17.102  0.00  0.00    +0.033 C 
ATOM     22  C   UNL     1      36.052 -22.763 -15.747  0.00  0.00    +0.156 C 
ATOM     23  C   UNL     1      33.722 -23.221 -15.303  0.00  0.00    +0.053 C 
ATOM     24  C   UNL     1      35.033 -23.074 -14.848  0.00  0.00    +0.067 C 
BRANCH  22  27
ATOM     25  O   UNL     1      37.881 -23.460 -14.528  0.00  0.00    -0.126 OA
ATOM     26  O   UNL     1      38.059 -21.626 -15.720  0.00  0.00    -0.126 OA
ATOM     27  N   UNL     1      37.398 -22.608 -15.310  0.00  0.00    +0.059 N 
ENDBRANCH  22  27
BRANCH  24  28
ATOM     28  N   UNL     1      35.301 -23.246 -13.471  0.00  0.00    -0.356 N 
ATOM     29  H   UNL     1      36.212 -23.108 -13.126  0.00  0.00    +0.142 HD
ATOM     30  H   UNL     1      34.576 -23.503 -12.857  0.00  0.00    +0.142 HD
ENDBRANCH  24  28
BRANCH  20  31
ATOM     31  O   UNL     1      32.146 -23.205 -17.083  0.00  0.00    -0.475 OA
BRANCH  31  32
ATOM     32  C   UNL     1      31.160 -23.462 -16.086  0.00  0.00    +0.206 C 
ATOM     33  C   UNL     1      29.869 -22.776 -16.480  0.00  0.00    +0.051 C 
ENDBRANCH  31  32
ENDBRANCH  20  31
ENDBRANCH   3  19
TORSDOF 8
ENDMDL
MODEL 6
REMARK VINA RESULT:      -8.7      2.106      3.652
REMARK  Name = 68867
REMARK  8 active torsions:
REMARK  status: ('A' for Active; 'I' for Inactive)
REMARK    1  A    between atoms: N_2  and  C_6
REMARK    2  A    between atoms: C_3  and  C_19
REMARK    3  A    between atoms: N_5  and  C_12
REMARK    4  A    between atoms: C_12  and  C_13
REMARK    5  A    between atoms: C_20  and  O_31
REMARK    6  A    between atoms: C_22  and  N_27
REMARK    7  A    between atoms: C_24  and  N_28
REMARK    8  A    between atoms: O_31  and  C_32
REMARK                            x       y       z     vdW  Elec       q    Type
REMARK                         _______ _______ _______ _____ _____    ______ ____
ROOT
ATOM      1  O   UNL     1      31.531 -12.618 -21.255  0.00  0.00    -0.270 OA
ATOM      2  N   UNL     1      32.320 -11.034 -22.755  0.00  0.00    -0.303 N 
ATOM      3  C   UNL     1      32.180 -12.319 -22.255  0.00  0.00    +0.249 C 
ATOM      4  H   UNL     1      32.862 -10.897 -23.565  0.00  0.00    +0.150 HD
ENDROOT
BRANCH   2   6
ATOM      5  N   UNL     1      32.695  -7.432 -23.401  0.00  0.00    +0.387 N 
ATOM      6  C   UNL     1      31.698  -9.888 -22.131  0.00  0.00    +0.068 C 
ATOM      7  C   UNL     1      33.565  -8.205 -22.505  0.00  0.00    -0.076 C 
ATOM      8  C   UNL     1      31.758  -8.306 -24.118  0.00  0.00    -0.076 C 
ATOM      9  C   UNL     1      32.743  -8.983 -21.472  0.00  0.00    -0.003 C 
ATOM     10  C   UNL     1      30.874  -9.088 -23.143  0.00  0.00    -0.003 C 
ATOM     11  H   UNL     1      32.148  -6.788 -22.829  0.00  0.00    -0.080 HD
BRANCH   5  12
ATOM     12  C   UNL     1      33.496  -6.654 -24.347  0.00  0.00    -0.077 C 
BRANCH  12  13
ATOM     13  C   UNL     1      32.621  -5.700 -25.157  0.00  0.00    -0.016 C 
ATOM     14  C   UNL     1      31.971  -4.644 -24.254  0.00  0.00    +0.003 C 
ATOM     15  C   UNL     1      33.440  -5.025 -26.272  0.00  0.00    +0.024 C 
ATOM     16  C   UNL     1      31.056  -3.714 -25.057  0.00  0.00    +0.026 C 
ATOM     17  C   UNL     1      32.728  -3.867 -26.907  0.00  0.00    -0.031 C 
ATOM     18  C   UNL     1      31.648  -3.286 -26.366  0.00  0.00    -0.031 C 
ENDBRANCH  12  13
ENDBRANCH   5  12
ENDBRANCH   2   6
BRANCH   3  19
ATOM     19  C   UNL     1      32.903 -13.385 -22.995  0.00  0.00    +0.089 C 
ATOM     20  C   UNL     1      33.777 -14.249 -22.335  0.00  0.00    +0.144 C 
ATOM     21  C   UNL     1      32.699 -13.516 -24.369  0.00  0.00    +0.033 C 
ATOM     22  C   UNL     1      33.369 -14.511 -25.082  0.00  0.00    +0.156 C 
ATOM     23  C   UNL     1      34.447 -15.243 -23.048  0.00  0.00    +0.053 C 
ATOM     24  C   UNL     1      34.243 -15.374 -24.422  0.00  0.00    +0.067 C 
BRANCH  22  27
ATOM     25  O   UNL     1      32.726 -15.713 -26.942  0.00  0.00    -0.126 OA
ATOM     26  O   UNL     1      33.361 -13.630 -27.213  0.00  0.00    -0.126 OA
ATOM     27  N   UNL     1      33.142 -14.623 -26.482  0.00  0.00    +0.059 N 
ENDBRANCH  22  27
BRANCH  24  28
ATOM     28  N   UNL     1      34.932 -16.391 -25.121  0.00  0.00    -0.356 N 
ATOM     29  H   UNL     1      34.491 -17.252 -25.298  0.00  0.00    +0.142 HD
ATOM     30  H   UNL     1      35.854 -16.236 -25.432  0.00  0.00    +0.142 HD
ENDBRANCH  24  28
BRANCH  20  31
ATOM     31  O   UNL     1      33.991 -14.136 -20.994  0.00  0.00    -0.475 OA
BRANCH  31  32
ATOM     32  C   UNL     1      33.822 -15.314 -20.210  0.00  0.00    +0.206 C 
ATOM     33  C   UNL     1      32.381 -15.770 -20.308  0.00  0.00    +0.051 C 
ENDBRANCH  31  32
ENDBRANCH  20  31
ENDBRANCH   3  19
TORSDOF 8
ENDMDL
MODEL 7
REMARK VINA RESULT:      -8.6      6.774     10.711
REMARK  Name = 68867
REMARK  8 active torsions:
REMARK  status: ('A' for Active; 'I' for Inactive)
REMARK    1  A    between atoms: N_2  and  C_6
REMARK    2  A    between atoms: C_3  and  C_19
REMARK    3  A    between atoms: N_5  and  C_12
REMARK    4  A    between atoms: C_12  and  C_13
REMARK    5  A    between atoms: C_20  and  O_31
REMARK    6  A    between atoms: C_22  and  N_27
REMARK    7  A    between atoms: C_24  and  N_28
REMARK    8  A    between atoms: O_31  and  C_32
REMARK                            x       y       z     vdW  Elec       q    Type
REMARK                         _______ _______ _______ _____ _____    ______ ____
ROOT
ATOM      1  O   UNL     1      33.536 -24.255 -18.811  0.00  0.00    -0.270 OA
ATOM      2  N   UNL     1      34.161 -22.022 -18.821  0.00  0.00    -0.303 N 
ATOM      3  C   UNL     1      33.903 -23.244 -18.219  0.00  0.00    +0.249 C 
ATOM      4  H   UNL     1      34.451 -21.268 -18.259  0.00  0.00    +0.150 HD
ENDROOT
BRANCH   2   6
ATOM      5  N   UNL     1      34.851 -19.075 -20.914  0.00  0.00    +0.387 N 
ATOM      6  C   UNL     1      34.017 -21.813 -20.245  0.00  0.00    +0.068 C 
ATOM      7  C   UNL     1      33.582 -19.310 -20.210  0.00  0.00    -0.076 C 
ATOM      8  C   UNL     1      35.854 -20.086 -20.553  0.00  0.00    -0.076 C 
ATOM      9  C   UNL     1      33.015 -20.694 -20.541  0.00  0.00    -0.003 C 
ATOM     10  C   UNL     1      35.366 -21.497 -20.894  0.00  0.00    -0.003 C 
ATOM     11  H   UNL     1      34.673 -19.154 -21.916  0.00  0.00    -0.080 HD
BRANCH   5  12
ATOM     12  C   UNL     1      35.352 -17.731 -20.630  0.00  0.00    -0.077 C 
BRANCH  12  13
ATOM     13  C   UNL     1      34.520 -16.669 -21.345  0.00  0.00    -0.016 C 
ATOM     14  C   UNL     1      34.467 -15.369 -20.532  0.00  0.00    +0.003 C 
ATOM     15  C   UNL     1      35.075 -16.400 -22.755  0.00  0.00    +0.024 C 
ATOM     16  C   UNL     1      33.595 -14.316 -21.224  0.00  0.00    +0.026 C 
ATOM     17  C   UNL     1      34.498 -15.170 -23.391  0.00  0.00    -0.031 C 
ATOM     18  C   UNL     1      33.821 -14.240 -22.703  0.00  0.00    -0.031 C 
ENDBRANCH  12  13
ENDBRANCH   5  12
ENDBRANCH   2   6
BRANCH   3  19
ATOM     19  C   UNL     1      34.071 -23.287 -16.744  0.00  0.00    +0.089 C 
ATOM     20  C   UNL     1      35.315 -23.049 -16.158  0.00  0.00    +0.144 C 
ATOM     21  C   UNL     1      32.965 -23.571 -15.942  0.00  0.00    +0.033 C 
ATOM     22  C   UNL     1      33.103 -23.615 -14.554  0.00  0.00    +0.156 C 
ATOM     23  C   UNL     1      35.452 -23.094 -14.770  0.00  0.00    +0.053 C 
ATOM     24  C   UNL     1      34.346 -23.377 -13.969  0.00  0.00    +0.067 C 
BRANCH  22  27
ATOM     25  O   UNL     1      31.217 -22.961 -13.400  0.00  0.00    -0.126 OA
ATOM     26  O   UNL     1      31.725 -25.095 -13.446  0.00  0.00    -0.126 OA
ATOM     27  N   UNL     1      31.959 -23.905 -13.760  0.00  0.00    +0.059 N 
ENDBRANCH  22  27
BRANCH  24  28
ATOM     28  N   UNL     1      34.512 -23.416 -12.565  0.00  0.00    -0.356 N 
ATOM     29  H   UNL     1      35.414 -23.479 -12.178  0.00  0.00    +0.142 HD
ATOM     30  H   UNL     1      33.724 -23.379 -11.975  0.00  0.00    +0.142 HD
ENDBRANCH  24  28
BRANCH  20  31
ATOM     31  O   UNL     1      36.407 -22.772 -16.924  0.00  0.00    -0.475 OA
BRANCH  31  32
ATOM     32  C   UNL     1      37.440 -21.996 -16.322  0.00  0.00    +0.206 C 
ATOM     33  C   UNL     1      37.584 -20.692 -17.078  0.00  0.00    +0.051 C 
ENDBRANCH  31  32
ENDBRANCH  20  31
ENDBRANCH   3  19
TORSDOF 8
ENDMDL
MODEL 8
REMARK VINA RESULT:      -8.6      3.386      9.766
REMARK  Name = 68867
REMARK  8 active torsions:
REMARK  status: ('A' for Active; 'I' for Inactive)
REMARK    1  A    between atoms: N_2  and  C_6
REMARK    2  A    between atoms: C_3  and  C_19
REMARK    3  A    between atoms: N_5  and  C_12
REMARK    4  A    between atoms: C_12  and  C_13
REMARK    5  A    between atoms: C_20  and  O_31
REMARK    6  A    between atoms: C_22  and  N_27
REMARK    7  A    between atoms: C_24  and  N_28
REMARK    8  A    between atoms: O_31  and  C_32
REMARK                            x       y       z     vdW  Elec       q    Type
REMARK                         _______ _______ _______ _____ _____    ______ ____
ROOT
ATOM      1  O   UNL     1      34.107 -15.379 -25.195  0.00  0.00    -0.270 OA
ATOM      2  N   UNL     1      34.858 -15.959 -23.079  0.00  0.00    -0.303 N 
ATOM      3  C   UNL     1      34.175 -15.166 -23.988  0.00  0.00    +0.249 C 
ATOM      4  H   UNL     1      34.853 -15.703 -22.129  0.00  0.00    +0.150 HD
ENDROOT
BRANCH   2   6
ATOM      5  N   UNL     1      34.473 -19.473 -22.059  0.00  0.00    +0.387 N 
ATOM      6  C   UNL     1      35.579 -17.147 -23.476  0.00  0.00    +0.068 C 
ATOM      7  C   UNL     1      35.291 -18.488 -21.337  0.00  0.00    -0.076 C 
ATOM      8  C   UNL     1      33.714 -18.840 -23.145  0.00  0.00    -0.076 C 
ATOM      9  C   UNL     1      36.280 -17.795 -22.279  0.00  0.00    -0.003 C 
ATOM     10  C   UNL     1      34.648 -18.158 -24.149  0.00  0.00    -0.003 C 
ATOM     11  H   UNL     1      35.103 -20.159 -22.475  0.00  0.00    -0.080 HD
BRANCH   5  12
ATOM     12  C   UNL     1      33.571 -20.163 -21.138  0.00  0.00    -0.077 C 
BRANCH  12  13
ATOM     13  C   UNL     1      34.308 -20.619 -19.881  0.00  0.00    -0.016 C 
ATOM     14  C   UNL     1      33.705 -21.916 -19.326  0.00  0.00    +0.003 C 
ATOM     15  C   UNL     1      35.810 -20.803 -20.167  0.00  0.00    +0.024 C 
ATOM     16  C   UNL     1      34.413 -22.352 -18.039  0.00  0.00    +0.026 C 
ATOM     17  C   UNL     1      36.533 -21.530 -19.072  0.00  0.00    -0.031 C 
ATOM     18  C   UNL     1      35.904 -22.215 -18.108  0.00  0.00    -0.031 C 
ENDBRANCH  12  13
ENDBRANCH   5  12
ENDBRANCH   2   6
BRANCH   3  19
ATOM     19  C   UNL     1      33.507 -13.964 -23.425  0.00  0.00    +0.089 C 
ATOM     20  C   UNL     1      32.581 -14.079 -22.388  0.00  0.00    +0.144 C 
ATOM     21  C   UNL     1      33.816 -12.707 -23.947  0.00  0.00    +0.033 C 
ATOM     22  C   UNL     1      33.200 -11.567 -23.431  0.00  0.00    +0.156 C 
ATOM     23  C   UNL     1      31.964 -12.939 -21.873  0.00  0.00    +0.053 C 
ATOM     24  C   UNL     1      32.275 -11.682 -22.395  0.00  0.00    +0.067 C 
BRANCH  22  27
ATOM     25  O   UNL     1      32.611  -9.512 -24.295  0.00  0.00    -0.126 OA
ATOM     26  O   UNL     1      34.744 -10.003 -24.132  0.00  0.00    -0.126 OA
ATOM     27  N   UNL     1      33.535 -10.298 -23.981  0.00  0.00    +0.059 N 
ENDBRANCH  22  27
BRANCH  24  28
ATOM     28  N   UNL     1      31.638 -10.542 -21.854  0.00  0.00    -0.356 N 
ATOM     29  H   UNL     1      32.053  -9.655 -21.948  0.00  0.00    +0.142 HD
ATOM     30  H   UNL     1      30.777 -10.635 -21.385  0.00  0.00    +0.142 HD
ENDBRANCH  24  28
BRANCH  20  31
ATOM     31  O   UNL     1      32.264 -15.297 -21.866  0.00  0.00    -0.475 OA
BRANCH  31  32
ATOM     32  C   UNL     1      32.555 -15.506 -20.486  0.00  0.00    +0.206 C 
ATOM     33  C   UNL     1      34.016 -15.198 -20.237  0.00  0.00    +0.051 C 
ENDBRANCH  31  32
ENDBRANCH  20  31
ENDBRANCH   3  19
TORSDOF 8
ENDMDL
MODEL 9
REMARK VINA RESULT:      -8.4      2.853      8.697
REMARK  Name = 68867
REMARK  8 active torsions:
REMARK  status: ('A' for Active; 'I' for Inactive)
REMARK    1  A    between atoms: N_2  and  C_6
REMARK    2  A    between atoms: C_3  and  C_19
REMARK    3  A    between atoms: N_5  and  C_12
REMARK    4  A    between atoms: C_12  and  C_13
REMARK    5  A    between atoms: C_20  and  O_31
REMARK    6  A    between atoms: C_22  and  N_27
REMARK    7  A    between atoms: C_24  and  N_28
REMARK    8  A    between atoms: O_31  and  C_32
REMARK                            x       y       z     vdW  Elec       q    Type
REMARK                         _______ _______ _______ _____ _____    ______ ____
ROOT
ATOM      1  O   UNL     1      30.761 -11.512 -22.134  0.00  0.00    -0.270 OA
ATOM      2  N   UNL     1      32.774 -12.624 -21.831  0.00  0.00    -0.303 N 
ATOM      3  C   UNL     1      31.987 -11.546 -22.204  0.00  0.00    +0.249 C 
ATOM      4  H   UNL     1      33.751 -12.553 -21.925  0.00  0.00    +0.150 HD
ENDROOT
BRANCH   2   6
ATOM      5  N   UNL     1      34.124 -16.045 -21.718  0.00  0.00    +0.387 N 
ATOM      6  C   UNL     1      32.211 -13.850 -21.311  0.00  0.00    +0.068 C 
ATOM      7  C   UNL     1      33.388 -15.485 -22.859  0.00  0.00    -0.076 C 
ATOM      8  C   UNL     1      34.381 -15.021 -20.696  0.00  0.00    -0.076 C 
ATOM      9  C   UNL     1      32.045 -14.896 -22.417  0.00  0.00    -0.003 C 
ATOM     10  C   UNL     1      33.073 -14.415 -20.179  0.00  0.00    -0.003 C 
ATOM     11  H   UNL     1      33.543 -16.770 -21.295  0.00  0.00    -0.080 HD
BRANCH   5  12
ATOM     12  C   UNL     1      35.378 -16.650 -22.163  0.00  0.00    -0.077 C 
BRANCH  12  13
ATOM     13  C   UNL     1      35.403 -18.148 -21.871  0.00  0.00    -0.016 C 
ATOM     14  C   UNL     1      36.520 -18.500 -20.880  0.00  0.00    +0.003 C 
ATOM     15  C   UNL     1      34.040 -18.622 -21.336  0.00  0.00    +0.024 C 
ATOM     16  C   UNL     1      36.577 -20.009 -20.621  0.00  0.00    +0.026 C 
ATOM     17  C   UNL     1      34.083 -20.003 -20.752  0.00  0.00    -0.031 C 
ATOM     18  C   UNL     1      35.225 -20.631 -20.443  0.00  0.00    -0.031 C 
ENDBRANCH  12  13
ENDBRANCH   5  12
ENDBRANCH   2   6
BRANCH   3  19
ATOM     19  C   UNL     1      32.715 -10.369 -22.746  0.00  0.00    +0.089 C 
ATOM     20  C   UNL     1      33.713 -10.526 -23.709  0.00  0.00    +0.144 C 
ATOM     21  C   UNL     1      32.390  -9.095 -22.281  0.00  0.00    +0.033 C 
ATOM     22  C   UNL     1      33.062  -7.978 -22.779  0.00  0.00    +0.156 C 
ATOM     23  C   UNL     1      34.385  -9.410 -24.205  0.00  0.00    +0.053 C 
ATOM     24  C   UNL     1      34.059  -8.135 -23.740  0.00  0.00    +0.067 C 
BRANCH  22  27
ATOM     25  O   UNL     1      32.699  -6.497 -21.049  0.00  0.00    -0.126 OA
ATOM     26  O   UNL     1      32.421  -5.787 -23.107  0.00  0.00    -0.126 OA
ATOM     27  N   UNL     1      32.709  -6.690 -22.287  0.00  0.00    +0.059 N 
ENDBRANCH  22  27
BRANCH  24  28
ATOM     28  N   UNL     1      34.754  -7.020 -24.260  0.00  0.00    -0.356 N 
ATOM     29  H   UNL     1      34.558  -6.117 -23.922  0.00  0.00    +0.142 HD
ATOM     30  H   UNL     1      35.435  -7.146 -24.961  0.00  0.00    +0.142 HD
ENDBRANCH  24  28
BRANCH  20  31
ATOM     31  O   UNL     1      34.046 -11.763 -24.175  0.00  0.00    -0.475 OA
BRANCH  31  32
ATOM     32  C   UNL     1      33.882 -11.994 -25.572  0.00  0.00    +0.206 C 
ATOM     33  C   UNL     1      33.250 -13.354 -25.777  0.00  0.00    +0.051 C 
ENDBRANCH  31  32
ENDBRANCH  20  31
ENDBRANCH   3  19
TORSDOF 8
ENDMDL
