MODEL 1
REMARK VINA RESULT:      -8.6      0.000      0.000
REMARK  Name = 51041322
REMARK  7 active torsions:
REMARK  status: ('A' for Active; 'I' for Inactive)
REMARK    1  A    between atoms: N_3  and  C_14
REMARK    2  A    between atoms: C_14  and  C_15
REMARK    3  A    between atoms: C_15  and  C_16
REMARK    4  A    between atoms: C_16  and  C_17
REMARK    5  A    between atoms: C_17  and  C_20
REMARK    6  A    between atoms: C_20  and  C_21
REMARK    7  A    between atoms: C_20  and  O_25
REMARK                            x       y       z     vdW  Elec       q    Type
REMARK                         _______ _______ _______ _____ _____    ______ ____
ROOT
ATOM      1  O   UNL     1      34.515 -16.426 -21.061  0.00  0.00    -0.272 OA
ATOM      2  O   UNL     1      34.874 -17.143 -25.685  0.00  0.00    -0.252 OA
ATOM      3  N   UNL     1      34.721 -16.824 -23.364  0.00  0.00    -0.212 N 
ATOM      4  N   UNL     1      33.631 -15.323 -24.952  0.00  0.00    -0.228 N 
ATOM      5  N   UNL     1      32.841 -14.047 -21.787  0.00  0.00    -0.239 NA
ATOM      6  N   UNL     1      32.386 -13.482 -23.895  0.00  0.00    -0.240 NA
ATOM      7  C   UNL     1      33.461 -14.975 -22.573  0.00  0.00    +0.192 C 
ATOM      8  C   UNL     1      34.257 -16.105 -22.218  0.00  0.00    +0.254 C 
ATOM      9  C   UNL     1      33.167 -14.606 -23.858  0.00  0.00    +0.136 C 
ATOM     10  C   UNL     1      34.435 -16.471 -24.744  0.00  0.00    +0.318 C 
ATOM     11  C   UNL     1      32.206 -13.170 -22.628  0.00  0.00    +0.203 C 
ATOM     12  C   UNL     1      33.289 -14.890 -26.302  0.00  0.00    +0.123 C 
ATOM     13  C   UNL     1      32.837 -13.980 -20.346  0.00  0.00    +0.092 C 
ENDROOT
BRANCH   3  14
ATOM     14  C   UNL     1      35.531 -17.981 -23.107  0.00  0.00    +0.102 C 
BRANCH  14  15
ATOM     15  C   UNL     1      34.698 -19.222 -22.802  0.00  0.00    +0.021 C 
BRANCH  15  16
ATOM     16  C   UNL     1      34.938 -19.758 -21.386  0.00  0.00    -0.004 C 
BRANCH  16  17
ATOM     17  C   UNL     1      33.612 -20.079 -20.686  0.00  0.00    +0.046 C 
BRANCH  17  18
ATOM     18  C   UNL     1      33.718 -21.146 -19.591  0.00  0.00    +0.092 C 
ATOM     19  C   UNL     1      35.121 -21.715 -19.431  0.00  0.00    +0.044 C 
BRANCH  18  20
ATOM     20  O   UNL     1      32.827 -22.225 -19.862  0.00  0.00    -0.386 OA
ATOM     21  H   UNL     1      32.635 -22.701 -19.039  0.00  0.00    +0.210 HD
ENDBRANCH  18  20
ENDBRANCH  17  18
ENDBRANCH  16  17
ENDBRANCH  15  16
ENDBRANCH  14  15
ENDBRANCH   3  14
TORSDOF 6
ENDMDL
MODEL 2
REMARK VINA RESULT:      -8.3      0.786      2.838
REMARK  Name = 51041322
REMARK  7 active torsions:
REMARK  status: ('A' for Active; 'I' for Inactive)
REMARK    1  A    between atoms: N_3  and  C_14
REMARK    2  A    between atoms: C_14  and  C_15
REMARK    3  A    between atoms: C_15  and  C_16
REMARK    4  A    between atoms: C_16  and  C_17
REMARK    5  A    between atoms: C_17  and  C_20
REMARK    6  A    between atoms: C_20  and  C_21
REMARK    7  A    between atoms: C_20  and  O_25
REMARK                            x       y       z     vdW  Elec       q    Type
REMARK                         _______ _______ _______ _____ _____    ______ ____
ROOT
ATOM      1  O   UNL     1      34.686 -17.167 -25.297  0.00  0.00    -0.272 OA
ATOM      2  O   UNL     1      35.240 -16.806 -20.652  0.00  0.00    -0.252 OA
ATOM      3  N   UNL     1      34.989 -17.027 -22.975  0.00  0.00    -0.212 N 
ATOM      4  N   UNL     1      34.042 -15.144 -21.744  0.00  0.00    -0.228 N 
ATOM      5  N   UNL     1      33.150 -14.601 -25.088  0.00  0.00    -0.239 NA
ATOM      6  N   UNL     1      32.822 -13.538 -23.156  0.00  0.00    -0.240 NA
ATOM      7  C   UNL     1      33.770 -15.351 -24.129  0.00  0.00    +0.192 C 
ATOM      8  C   UNL     1      34.499 -16.572 -24.239  0.00  0.00    +0.254 C 
ATOM      9  C   UNL     1      33.553 -14.679 -22.957  0.00  0.00    +0.136 C 
ATOM     10  C   UNL     1      34.786 -16.349 -21.707  0.00  0.00    +0.318 C 
ATOM     11  C   UNL     1      32.595 -13.519 -24.453  0.00  0.00    +0.203 C 
ATOM     12  C   UNL     1      33.786 -14.390 -20.522  0.00  0.00    +0.123 C 
ATOM     13  C   UNL     1      33.080 -14.870 -26.503  0.00  0.00    +0.092 C 
ENDROOT
BRANCH   3  14
ATOM     14  C   UNL     1      35.738 -18.252 -22.984  0.00  0.00    +0.102 C 
BRANCH  14  15
ATOM     15  C   UNL     1      34.869 -19.470 -22.685  0.00  0.00    +0.021 C 
BRANCH  15  16
ATOM     16  C   UNL     1      35.103 -20.028 -21.276  0.00  0.00    -0.004 C 
BRANCH  16  17
ATOM     17  C   UNL     1      33.779 -20.170 -20.515  0.00  0.00    +0.046 C 
BRANCH  17  18
ATOM     18  C   UNL     1      33.785 -21.263 -19.439  0.00  0.00    +0.092 C 
ATOM     19  C   UNL     1      35.158 -21.876 -19.203  0.00  0.00    +0.044 C 
BRANCH  18  20
ATOM     20  O   UNL     1      32.883 -22.309 -19.791  0.00  0.00    -0.386 OA
ATOM     21  H   UNL     1      32.222 -21.970 -20.413  0.00  0.00    +0.210 HD
ENDBRANCH  18  20
ENDBRANCH  17  18
ENDBRANCH  16  17
ENDBRANCH  15  16
ENDBRANCH  14  15
ENDBRANCH   3  14
TORSDOF 6
ENDMDL
MODEL 3
REMARK VINA RESULT:      -8.3      8.120     10.957
REMARK  Name = 51041322
REMARK  7 active torsions:
REMARK  status: ('A' for Active; 'I' for Inactive)
REMARK    1  A    between atoms: N_3  and  C_14
REMARK    2  A    between atoms: C_14  and  C_15
REMARK    3  A    between atoms: C_15  and  C_16
REMARK    4  A    between atoms: C_16  and  C_17
REMARK    5  A    between atoms: C_17  and  C_20
REMARK    6  A    between atoms: C_20  and  C_21
REMARK    7  A    between atoms: C_20  and  O_25
REMARK                            x       y       z     vdW  Elec       q    Type
REMARK                         _______ _______ _______ _____ _____    ______ ____
ROOT
ATOM      1  O   UNL     1      33.371 -22.992 -17.164  0.00  0.00    -0.272 OA
ATOM      2  O   UNL     1      33.826 -24.381 -12.705  0.00  0.00    -0.252 OA
ATOM      3  N   UNL     1      33.552 -23.699 -14.934  0.00  0.00    -0.212 N 
ATOM      4  N   UNL     1      35.710 -23.579 -13.799  0.00  0.00    -0.228 N 
ATOM      5  N   UNL     1      36.298 -22.359 -17.030  0.00  0.00    -0.239 NA
ATOM      6  N   UNL     1      37.528 -22.688 -15.200  0.00  0.00    -0.240 NA
ATOM      7  C   UNL     1      35.452 -22.871 -16.089  0.00  0.00    +0.192 C 
ATOM      8  C   UNL     1      34.059 -23.169 -16.162  0.00  0.00    +0.254 C 
ATOM      9  C   UNL     1      36.230 -23.062 -14.979  0.00  0.00    +0.136 C 
ATOM     10  C   UNL     1      34.337 -23.920 -13.732  0.00  0.00    +0.318 C 
ATOM     11  C   UNL     1      37.537 -22.268 -16.448  0.00  0.00    +0.203 C 
ATOM     12  C   UNL     1      36.580 -23.766 -12.645  0.00  0.00    +0.123 C 
ATOM     13  C   UNL     1      35.978 -21.981 -18.385  0.00  0.00    +0.092 C 
ENDROOT
BRANCH   3  14
ATOM     14  C   UNL     1      32.155 -24.031 -14.910  0.00  0.00    +0.102 C 
BRANCH  14  15
ATOM     15  C   UNL     1      31.276 -22.833 -14.562  0.00  0.00    +0.021 C 
BRANCH  15  16
ATOM     16  C   UNL     1      29.813 -23.038 -14.974  0.00  0.00    -0.004 C 
BRANCH  16  17
ATOM     17  C   UNL     1      29.647 -22.909 -16.493  0.00  0.00    +0.046 C 
BRANCH  17  18
ATOM     18  C   UNL     1      28.191 -22.785 -16.960  0.00  0.00    +0.092 C 
ATOM     19  C   UNL     1      27.239 -22.330 -15.864  0.00  0.00    +0.044 C 
BRANCH  18  20
ATOM     20  O   UNL     1      27.726 -24.033 -17.466  0.00  0.00    -0.386 OA
ATOM     21  H   UNL     1      26.940 -24.311 -16.970  0.00  0.00    +0.210 HD
ENDBRANCH  18  20
ENDBRANCH  17  18
ENDBRANCH  16  17
ENDBRANCH  15  16
ENDBRANCH  14  15
ENDBRANCH   3  14
TORSDOF 6
ENDMDL
MODEL 4
REMARK VINA RESULT:      -8.1      9.538     11.453
REMARK  Name = 51041322
REMARK  7 active torsions:
REMARK  status: ('A' for Active; 'I' for Inactive)
REMARK    1  A    between atoms: N_3  and  C_14
REMARK    2  A    between atoms: C_14  and  C_15
REMARK    3  A    between atoms: C_15  and  C_16
REMARK    4  A    between atoms: C_16  and  C_17
REMARK    5  A    between atoms: C_17  and  C_20
REMARK    6  A    between atoms: C_20  and  C_21
REMARK    7  A    between atoms: C_20  and  O_25
REMARK                            x       y       z     vdW  Elec       q    Type
REMARK                         _______ _______ _______ _____ _____    ______ ____
ROOT
ATOM      1  O   UNL     1      33.317 -24.454 -12.850  0.00  0.00    -0.272 OA
ATOM      2  O   UNL     1      34.450 -22.981 -17.160  0.00  0.00    -0.252 OA
ATOM      3  N   UNL     1      33.838 -23.724 -15.019  0.00  0.00    -0.212 N 
ATOM      4  N   UNL     1      36.108 -22.988 -15.534  0.00  0.00    -0.228 N 
ATOM      5  N   UNL     1      36.177 -23.893 -12.150  0.00  0.00    -0.239 NA
ATOM      6  N   UNL     1      37.654 -23.104 -13.622  0.00  0.00    -0.240 NA
ATOM      7  C   UNL     1      35.503 -23.749 -13.328  0.00  0.00    +0.192 C 
ATOM      8  C   UNL     1      34.140 -24.018 -13.652  0.00  0.00    +0.254 C 
ATOM      9  C   UNL     1      36.429 -23.265 -14.212  0.00  0.00    +0.136 C 
ATOM     10  C   UNL     1      34.785 -23.210 -15.992  0.00  0.00    +0.318 C 
ATOM     11  C   UNL     1      37.469 -23.491 -12.377  0.00  0.00    +0.203 C 
ATOM     12  C   UNL     1      37.130 -22.472 -16.436  0.00  0.00    +0.123 C 
ATOM     13  C   UNL     1      35.656 -24.372 -10.893  0.00  0.00    +0.092 C 
ENDROOT
BRANCH   3  14
ATOM     14  C   UNL     1      32.486 -23.964 -15.441  0.00  0.00    +0.102 C 
BRANCH  14  15
ATOM     15  C   UNL     1      31.560 -22.794 -15.124  0.00  0.00    +0.021 C 
BRANCH  15  16
ATOM     16  C   UNL     1      30.151 -23.250 -14.727  0.00  0.00    -0.004 C 
BRANCH  16  17
ATOM     17  C   UNL     1      29.510 -24.088 -15.841  0.00  0.00    +0.046 C 
BRANCH  17  18
ATOM     18  C   UNL     1      28.505 -23.320 -16.709  0.00  0.00    +0.092 C 
ATOM     19  C   UNL     1      27.536 -22.466 -15.904  0.00  0.00    +0.044 C 
BRANCH  18  20
ATOM     20  O   UNL     1      27.747 -24.225 -17.506  0.00  0.00    -0.386 OA
ATOM     21  H   UNL     1      28.100 -24.234 -18.410  0.00  0.00    +0.210 HD
ENDBRANCH  18  20
ENDBRANCH  17  18
ENDBRANCH  16  17
ENDBRANCH  15  16
ENDBRANCH  14  15
ENDBRANCH   3  14
TORSDOF 6
ENDMDL
MODEL 5
REMARK VINA RESULT:      -8.0      2.635      6.488
REMARK  Name = 51041322
REMARK  7 active torsions:
REMARK  status: ('A' for Active; 'I' for Inactive)
REMARK    1  A    between atoms: N_3  and  C_14
REMARK    2  A    between atoms: C_14  and  C_15
REMARK    3  A    between atoms: C_15  and  C_16
REMARK    4  A    between atoms: C_16  and  C_17
REMARK    5  A    between atoms: C_17  and  C_20
REMARK    6  A    between atoms: C_20  and  C_21
REMARK    7  A    between atoms: C_20  and  O_25
REMARK                            x       y       z     vdW  Elec       q    Type
REMARK                         _______ _______ _______ _____ _____    ______ ____
ROOT
ATOM      1  O   UNL     1      34.956 -16.018 -20.493  0.00  0.00    -0.272 OA
ATOM      2  O   UNL     1      33.070 -13.512 -23.984  0.00  0.00    -0.252 OA
ATOM      3  N   UNL     1      34.006 -14.728 -22.208  0.00  0.00    -0.212 N 
ATOM      4  N   UNL     1      33.868 -15.639 -24.469  0.00  0.00    -0.228 N 
ATOM      5  N   UNL     1      35.387 -18.149 -22.556  0.00  0.00    -0.239 NA
ATOM      6  N   UNL     1      34.788 -17.911 -24.690  0.00  0.00    -0.240 NA
ATOM      7  C   UNL     1      34.832 -16.907 -22.660  0.00  0.00    +0.192 C 
ATOM      8  C   UNL     1      34.630 -15.898 -21.671  0.00  0.00    +0.254 C 
ATOM      9  C   UNL     1      34.473 -16.787 -23.975  0.00  0.00    +0.136 C 
ATOM     10  C   UNL     1      33.609 -14.555 -23.594  0.00  0.00    +0.318 C 
ATOM     11  C   UNL     1      35.339 -18.715 -23.805  0.00  0.00    +0.203 C 
ATOM     12  C   UNL     1      33.507 -15.558 -25.879  0.00  0.00    +0.123 C 
ATOM     13  C   UNL     1      35.930 -18.772 -21.373  0.00  0.00    +0.092 C 
ENDROOT
BRANCH   3  14
ATOM     14  C   UNL     1      33.762 -13.655 -21.286  0.00  0.00    +0.102 C 
BRANCH  14  15
ATOM     15  C   UNL     1      32.323 -13.637 -20.778  0.00  0.00    +0.021 C 
BRANCH  15  16
ATOM     16  C   UNL     1      31.638 -12.283 -21.000  0.00  0.00    -0.004 C 
BRANCH  16  17
ATOM     17  C   UNL     1      31.615 -11.459 -19.707  0.00  0.00    +0.046 C 
BRANCH  17  18
ATOM     18  C   UNL     1      31.648  -9.942 -19.925  0.00  0.00    +0.092 C 
ATOM     19  C   UNL     1      31.911  -9.541 -21.369  0.00  0.00    +0.044 C 
BRANCH  18  20
ATOM     20  O   UNL     1      32.651  -9.346 -19.107  0.00  0.00    -0.386 OA
ATOM     21  H   UNL     1      33.464  -9.230 -19.623  0.00  0.00    +0.210 HD
ENDBRANCH  18  20
ENDBRANCH  17  18
ENDBRANCH  16  17
ENDBRANCH  15  16
ENDBRANCH  14  15
ENDBRANCH   3  14
TORSDOF 6
ENDMDL
MODEL 6
REMARK VINA RESULT:      -8.0      7.904     10.749
REMARK  Name = 51041322
REMARK  7 active torsions:
REMARK  status: ('A' for Active; 'I' for Inactive)
REMARK    1  A    between atoms: N_3  and  C_14
REMARK    2  A    between atoms: C_14  and  C_15
REMARK    3  A    between atoms: C_15  and  C_16
REMARK    4  A    between atoms: C_16  and  C_17
REMARK    5  A    between atoms: C_17  and  C_20
REMARK    6  A    between atoms: C_20  and  C_21
REMARK    7  A    between atoms: C_20  and  O_25
REMARK                            x       y       z     vdW  Elec       q    Type
REMARK                         _______ _______ _______ _____ _____    ______ ____
ROOT
ATOM      1  O   UNL     1      36.670 -22.842 -15.878  0.00  0.00    -0.272 OA
ATOM      2  O   UNL     1      32.997 -24.403 -13.408  0.00  0.00    -0.252 OA
ATOM      3  N   UNL     1      34.863 -23.630 -14.605  0.00  0.00    -0.212 N 
ATOM      4  N   UNL     1      32.626 -23.676 -15.582  0.00  0.00    -0.228 N 
ATOM      5  N   UNL     1      34.702 -22.388 -18.093  0.00  0.00    -0.239 NA
ATOM      6  N   UNL     1      32.530 -22.850 -17.899  0.00  0.00    -0.240 NA
ATOM      7  C   UNL     1      34.527 -22.879 -16.831  0.00  0.00    +0.192 C 
ATOM      8  C   UNL     1      35.471 -23.092 -15.783  0.00  0.00    +0.254 C 
ATOM      9  C   UNL     1      33.189 -23.154 -16.739  0.00  0.00    +0.136 C 
ATOM     10  C   UNL     1      33.451 -23.937 -14.460  0.00  0.00    +0.318 C 
ATOM     11  C   UNL     1      33.470 -22.389 -18.697  0.00  0.00    +0.203 C 
ATOM     12  C   UNL     1      31.195 -23.950 -15.533  0.00  0.00    +0.123 C 
ATOM     13  C   UNL     1      35.933 -21.945 -18.699  0.00  0.00    +0.092 C 
ENDROOT
BRANCH   3  14
ATOM     14  C   UNL     1      35.735 -23.879 -13.492  0.00  0.00    +0.102 C 
BRANCH  14  15
ATOM     15  C   UNL     1      36.335 -25.281 -13.522  0.00  0.00    +0.021 C 
BRANCH  15  16
ATOM     16  C   UNL     1      37.475 -25.455 -12.511  0.00  0.00    -0.004 C 
BRANCH  16  17
ATOM     17  C   UNL     1      38.788 -24.882 -13.059  0.00  0.00    +0.046 C 
BRANCH  17  18
ATOM     18  C   UNL     1      39.112 -25.309 -14.496  0.00  0.00    +0.092 C 
ATOM     19  C   UNL     1      40.455 -26.010 -14.633  0.00  0.00    +0.044 C 
BRANCH  18  20
ATOM     20  O   UNL     1      39.108 -24.177 -15.361  0.00  0.00    -0.386 OA
ATOM     21  H   UNL     1      38.899 -24.461 -16.265  0.00  0.00    +0.210 HD
ENDBRANCH  18  20
ENDBRANCH  17  18
ENDBRANCH  16  17
ENDBRANCH  15  16
ENDBRANCH  14  15
ENDBRANCH   3  14
TORSDOF 6
ENDMDL
MODEL 7
REMARK VINA RESULT:      -7.9      8.449     10.872
REMARK  Name = 51041322
REMARK  7 active torsions:
REMARK  status: ('A' for Active; 'I' for Inactive)
REMARK    1  A    between atoms: N_3  and  C_14
REMARK    2  A    between atoms: C_14  and  C_15
REMARK    3  A    between atoms: C_15  and  C_16
REMARK    4  A    between atoms: C_16  and  C_17
REMARK    5  A    between atoms: C_17  and  C_20
REMARK    6  A    between atoms: C_20  and  C_21
REMARK    7  A    between atoms: C_20  and  O_25
REMARK                            x       y       z     vdW  Elec       q    Type
REMARK                         _______ _______ _______ _____ _____    ______ ____
ROOT
ATOM      1  O   UNL     1      32.699 -24.696 -13.154  0.00  0.00    -0.272 OA
ATOM      2  O   UNL     1      36.034 -23.581 -16.261  0.00  0.00    -0.252 OA
ATOM      3  N   UNL     1      34.400 -24.156 -14.678  0.00  0.00    -0.212 N 
ATOM      4  N   UNL     1      33.824 -23.134 -16.819  0.00  0.00    -0.228 N 
ATOM      5  N   UNL     1      30.768 -23.611 -15.174  0.00  0.00    -0.239 NA
ATOM      6  N   UNL     1      31.410 -22.776 -17.139  0.00  0.00    -0.240 NA
ATOM      7  C   UNL     1      32.129 -23.716 -15.208  0.00  0.00    +0.192 C 
ATOM      8  C   UNL     1      33.040 -24.235 -14.240  0.00  0.00    +0.254 C 
ATOM      9  C   UNL     1      32.496 -23.197 -16.420  0.00  0.00    +0.136 C 
ATOM     10  C   UNL     1      34.837 -23.617 -15.953  0.00  0.00    +0.318 C 
ATOM     11  C   UNL     1      30.382 -23.039 -16.360  0.00  0.00    +0.203 C 
ATOM     12  C   UNL     1      34.164 -22.575 -18.122  0.00  0.00    +0.123 C 
ATOM     13  C   UNL     1      29.882 -24.016 -14.110  0.00  0.00    +0.092 C 
ENDROOT
BRANCH   3  14
ATOM     14  C   UNL     1      35.393 -24.656 -13.769  0.00  0.00    +0.102 C 
BRANCH  14  15
ATOM     15  C   UNL     1      36.041 -23.548 -12.945  0.00  0.00    +0.021 C 
BRANCH  15  16
ATOM     16  C   UNL     1      37.570 -23.552 -13.054  0.00  0.00    -0.004 C 
BRANCH  16  17
ATOM     17  C   UNL     1      38.103 -24.974 -13.267  0.00  0.00    +0.046 C 
BRANCH  17  18
ATOM     18  C   UNL     1      38.826 -25.183 -14.604  0.00  0.00    +0.092 C 
ATOM     19  C   UNL     1      40.272 -25.629 -14.449  0.00  0.00    +0.044 C 
BRANCH  18  20
ATOM     20  O   UNL     1      38.809 -23.981 -15.369  0.00  0.00    -0.386 OA
ATOM     21  H   UNL     1      37.891 -23.719 -15.540  0.00  0.00    +0.210 HD
ENDBRANCH  18  20
ENDBRANCH  17  18
ENDBRANCH  16  17
ENDBRANCH  15  16
ENDBRANCH  14  15
ENDBRANCH   3  14
TORSDOF 6
ENDMDL
MODEL 8
REMARK VINA RESULT:      -7.8      2.647      6.823
REMARK  Name = 51041322
REMARK  7 active torsions:
REMARK  status: ('A' for Active; 'I' for Inactive)
REMARK    1  A    between atoms: N_3  and  C_14
REMARK    2  A    between atoms: C_14  and  C_15
REMARK    3  A    between atoms: C_15  and  C_16
REMARK    4  A    between atoms: C_16  and  C_17
REMARK    5  A    between atoms: C_17  and  C_20
REMARK    6  A    between atoms: C_20  and  C_21
REMARK    7  A    between atoms: C_20  and  O_25
REMARK                            x       y       z     vdW  Elec       q    Type
REMARK                         _______ _______ _______ _____ _____    ______ ____
ROOT
ATOM      1  O   UNL     1      33.186 -13.743 -23.701  0.00  0.00    -0.272 OA
ATOM      2  O   UNL     1      34.989 -15.888 -19.937  0.00  0.00    -0.252 OA
ATOM      3  N   UNL     1      34.075 -14.777 -21.791  0.00  0.00    -0.212 N 
ATOM      4  N   UNL     1      35.034 -17.016 -21.967  0.00  0.00    -0.228 N 
ATOM      5  N   UNL     1      33.952 -16.221 -25.202  0.00  0.00    -0.239 NA
ATOM      6  N   UNL     1      34.948 -17.965 -24.236  0.00  0.00    -0.240 NA
ATOM      7  C   UNL     1      34.102 -15.894 -23.886  0.00  0.00    +0.192 C 
ATOM      8  C   UNL     1      33.734 -14.710 -23.179  0.00  0.00    +0.254 C 
ATOM      9  C   UNL     1      34.714 -16.978 -23.317  0.00  0.00    +0.136 C 
ATOM     10  C   UNL     1      34.723 -15.904 -21.145  0.00  0.00    +0.318 C 
ATOM     11  C   UNL     1      34.476 -17.478 -25.365  0.00  0.00    +0.203 C 
ATOM     12  C   UNL     1      35.684 -18.195 -21.408  0.00  0.00    +0.123 C 
ATOM     13  C   UNL     1      33.359 -15.418 -26.244  0.00  0.00    +0.092 C 
ENDROOT
BRANCH   3  14
ATOM     14  C   UNL     1      33.742 -13.629 -20.996  0.00  0.00    +0.102 C 
BRANCH  14  15
ATOM     15  C   UNL     1      32.271 -13.606 -20.592  0.00  0.00    +0.021 C 
BRANCH  15  16
ATOM     16  C   UNL     1      31.596 -12.265 -20.904  0.00  0.00    -0.004 C 
BRANCH  16  17
ATOM     17  C   UNL     1      31.546 -11.371 -19.658  0.00  0.00    +0.046 C 
BRANCH  17  18
ATOM     18  C   UNL     1      31.666  -9.871 -19.953  0.00  0.00    +0.092 C 
ATOM     19  C   UNL     1      31.962  -9.561 -21.413  0.00  0.00    +0.044 C 
BRANCH  18  20
ATOM     20  O   UNL     1      32.694  -9.290 -19.156  0.00  0.00    -0.386 OA
ATOM     21  H   UNL     1      33.096  -8.550 -19.635  0.00  0.00    +0.210 HD
ENDBRANCH  18  20
ENDBRANCH  17  18
ENDBRANCH  16  17
ENDBRANCH  15  16
ENDBRANCH  14  15
ENDBRANCH   3  14
TORSDOF 6
ENDMDL
MODEL 9
REMARK VINA RESULT:      -7.8      5.275      9.138
REMARK  Name = 51041322
REMARK  7 active torsions:
REMARK  status: ('A' for Active; 'I' for Inactive)
REMARK    1  A    between atoms: N_3  and  C_14
REMARK    2  A    between atoms: C_14  and  C_15
REMARK    3  A    between atoms: C_15  and  C_16
REMARK    4  A    between atoms: C_16  and  C_17
REMARK    5  A    between atoms: C_17  and  C_20
REMARK    6  A    between atoms: C_20  and  C_21
REMARK    7  A    between atoms: C_20  and  O_25
REMARK                            x       y       z     vdW  Elec       q    Type
REMARK                         _______ _______ _______ _____ _____    ______ ____
ROOT
ATOM      1  O   UNL     1      32.241 -23.240 -17.548  0.00  0.00    -0.272 OA
ATOM      2  O   UNL     1      36.426 -21.601 -18.895  0.00  0.00    -0.252 OA
ATOM      3  N   UNL     1      34.315 -22.409 -18.265  0.00  0.00    -0.212 N 
ATOM      4  N   UNL     1      36.219 -22.433 -16.737  0.00  0.00    -0.228 N 
ATOM      5  N   UNL     1      33.564 -23.820 -14.921  0.00  0.00    -0.239 NA
ATOM      6  N   UNL     1      35.710 -23.372 -14.519  0.00  0.00    -0.240 NA
ATOM      7  C   UNL     1      34.060 -23.270 -16.068  0.00  0.00    +0.192 C 
ATOM      8  C   UNL     1      33.422 -22.998 -17.314  0.00  0.00    +0.254 C 
ATOM      9  C   UNL     1      35.375 -23.006 -15.795  0.00  0.00    +0.136 C 
ATOM     10  C   UNL     1      35.715 -22.111 -18.021  0.00  0.00    +0.318 C 
ATOM     11  C   UNL     1      34.595 -23.860 -14.017  0.00  0.00    +0.203 C 
ATOM     12  C   UNL     1      37.612 -22.170 -16.397  0.00  0.00    +0.123 C 
ATOM     13  C   UNL     1      32.217 -24.278 -14.679  0.00  0.00    +0.092 C 
ENDROOT
BRANCH   3  14
ATOM     14  C   UNL     1      33.762 -22.098 -19.553  0.00  0.00    +0.102 C 
BRANCH  14  15
ATOM     15  C   UNL     1      33.020 -20.765 -19.563  0.00  0.00    +0.021 C 
BRANCH  15  16
ATOM     16  C   UNL     1      33.108 -20.054 -20.918  0.00  0.00    -0.004 C 
BRANCH  16  17
ATOM     17  C   UNL     1      34.552 -20.032 -21.436  0.00  0.00    +0.046 C 
BRANCH  17  18
ATOM     18  C   UNL     1      35.329 -18.758 -21.082  0.00  0.00    +0.092 C 
ATOM     19  C   UNL     1      35.744 -17.943 -22.298  0.00  0.00    +0.044 C 
BRANCH  18  20
ATOM     20  O   UNL     1      36.502 -19.084 -20.342  0.00  0.00    -0.386 OA
ATOM     21  H   UNL     1      36.583 -20.048 -20.271  0.00  0.00    +0.210 HD
ENDBRANCH  18  20
ENDBRANCH  17  18
ENDBRANCH  16  17
ENDBRANCH  15  16
ENDBRANCH  14  15
ENDBRANCH   3  14
TORSDOF 6
ENDMDL
