MODEL 1
REMARK VINA RESULT:      -7.4      0.000      0.000
REMARK  Name = 6093
REMARK  1 active torsions:
REMARK  status: ('A' for Active; 'I' for Inactive)
REMARK    1  A    between atoms: C_10  and  N_15
REMARK                            x       y       z     vdW  Elec       q    Type
REMARK                         _______ _______ _______ _____ _____    ______ ____
ROOT
ATOM      1  S   UNL     1      37.897 -24.995 -15.082  0.00  0.00    -0.027 S 
ATOM      2  O   UNL     1      34.643 -24.292 -11.757  0.00  0.00    -0.252 OA
ATOM      3  N   UNL     1      35.600 -24.278 -13.961  0.00  0.00    -0.221 N 
ATOM      4  N   UNL     1      33.488 -23.510 -13.610  0.00  0.00    -0.287 N 
ATOM      5  N   UNL     1      37.354 -25.270 -12.570  0.00  0.00    -0.220 NA
ATOM      6  C   UNL     1      35.141 -23.737 -15.232  0.00  0.00    +0.123 C 
ATOM      7  C   UNL     1      33.670 -23.432 -15.030  0.00  0.00    +0.113 C 
ATOM      8  C   UNL     1      34.606 -24.070 -12.961  0.00  0.00    +0.309 C 
ATOM      9  C   UNL     1      36.867 -24.844 -13.717  0.00  0.00    +0.172 C 
ATOM     10  C   UNL     1      39.099 -25.686 -14.072  0.00  0.00    +0.194 C 
ATOM     11  C   UNL     1      38.632 -25.752 -12.776  0.00  0.00    +0.132 C 
ATOM     12  H   UNL     1      32.677 -23.209 -13.142  0.00  0.00    +0.151 HD
ENDROOT
BRANCH  10  15
ATOM     13  O   UNL     1      40.575 -25.888 -15.833  0.00  0.00    -0.126 OA
ATOM     14  O   UNL     1      41.189 -26.638 -13.863  0.00  0.00    -0.126 OA
ATOM     15  N   UNL     1      40.329 -26.084 -14.607  0.00  0.00    +0.065 N 
ENDBRANCH  10  15
TORSDOF 1
ENDMDL
MODEL 2
REMARK VINA RESULT:      -7.1      2.917      4.084
REMARK  Name = 6093
REMARK  1 active torsions:
REMARK  status: ('A' for Active; 'I' for Inactive)
REMARK    1  A    between atoms: C_10  and  N_15
REMARK                            x       y       z     vdW  Elec       q    Type
REMARK                         _______ _______ _______ _____ _____    ______ ____
ROOT
ATOM      1  S   UNL     1      34.522 -24.362 -13.522  0.00  0.00    -0.027 S 
ATOM      2  O   UNL     1      34.544 -23.166 -18.073  0.00  0.00    -0.252 OA
ATOM      3  N   UNL     1      33.622 -23.573 -15.892  0.00  0.00    -0.221 N 
ATOM      4  N   UNL     1      32.294 -22.866 -17.598  0.00  0.00    -0.287 N 
ATOM      5  N   UNL     1      36.008 -24.044 -15.612  0.00  0.00    -0.220 NA
ATOM      6  C   UNL     1      32.258 -23.581 -15.384  0.00  0.00    +0.123 C 
ATOM      7  C   UNL     1      31.427 -22.907 -16.458  0.00  0.00    +0.113 C 
ATOM      8  C   UNL     1      33.623 -23.200 -17.267  0.00  0.00    +0.309 C 
ATOM      9  C   UNL     1      34.771 -23.958 -15.172  0.00  0.00    +0.172 C 
ATOM     10  C   UNL     1      36.200 -24.683 -13.369  0.00  0.00    +0.194 C 
ATOM     11  C   UNL     1      36.825 -24.459 -14.579  0.00  0.00    +0.132 C 
ATOM     12  H   UNL     1      31.998 -22.631 -18.506  0.00  0.00    +0.151 HD
ENDROOT
BRANCH  10  15
ATOM     13  O   UNL     1      37.007 -24.246 -11.254  0.00  0.00    -0.126 OA
ATOM     14  O   UNL     1      36.935 -26.332 -11.935  0.00  0.00    -0.126 OA
ATOM     15  N   UNL     1      36.732 -25.101 -12.145  0.00  0.00    +0.065 N 
ENDBRANCH  10  15
TORSDOF 1
ENDMDL
MODEL 3
REMARK VINA RESULT:      -7.1     11.715     12.893
REMARK  Name = 6093
REMARK  1 active torsions:
REMARK  status: ('A' for Active; 'I' for Inactive)
REMARK    1  A    between atoms: C_10  and  N_15
REMARK                            x       y       z     vdW  Elec       q    Type
REMARK                         _______ _______ _______ _____ _____    ______ ____
ROOT
ATOM      1  S   UNL     1      34.849 -17.004 -21.794  0.00  0.00    -0.027 S 
ATOM      2  O   UNL     1      33.628 -16.060 -26.239  0.00  0.00    -0.252 OA
ATOM      3  N   UNL     1      34.049 -15.622 -23.915  0.00  0.00    -0.221 N 
ATOM      4  N   UNL     1      33.363 -13.956 -25.303  0.00  0.00    -0.287 N 
ATOM      5  N   UNL     1      34.586 -17.997 -24.166  0.00  0.00    -0.220 NA
ATOM      6  C   UNL     1      33.840 -14.448 -23.080  0.00  0.00    +0.123 C 
ATOM      7  C   UNL     1      33.595 -13.307 -24.046  0.00  0.00    +0.113 C 
ATOM      8  C   UNL     1      33.687 -15.326 -25.261  0.00  0.00    +0.309 C 
ATOM      9  C   UNL     1      34.461 -16.891 -23.463  0.00  0.00    +0.172 C 
ATOM     10  C   UNL     1      35.214 -18.666 -22.013  0.00  0.00    +0.194 C 
ATOM     11  C   UNL     1      35.017 -19.012 -23.334  0.00  0.00    +0.132 C 
ATOM     12  H   UNL     1      33.017 -13.498 -26.102  0.00  0.00    +0.151 HD
ENDROOT
BRANCH  10  15
ATOM     13  O   UNL     1      34.886 -20.351 -20.473  0.00  0.00    -0.126 OA
ATOM     14  O   UNL     1      36.779 -19.238 -20.418  0.00  0.00    -0.126 OA
ATOM     15  N   UNL     1      35.641 -19.445 -20.932  0.00  0.00    +0.065 N 
ENDBRANCH  10  15
TORSDOF 1
ENDMDL
MODEL 4
REMARK VINA RESULT:      -7.0      2.599      3.227
REMARK  Name = 6093
REMARK  1 active torsions:
REMARK  status: ('A' for Active; 'I' for Inactive)
REMARK    1  A    between atoms: C_10  and  N_15
REMARK                            x       y       z     vdW  Elec       q    Type
REMARK                         _______ _______ _______ _____ _____    ______ ____
ROOT
ATOM      1  S   UNL     1      35.925 -23.428 -14.007  0.00  0.00    -0.027 S 
ATOM      2  O   UNL     1      31.568 -24.936 -13.068  0.00  0.00    -0.252 OA
ATOM      3  N   UNL     1      33.340 -23.935 -14.343  0.00  0.00    -0.221 N 
ATOM      4  N   UNL     1      31.244 -24.104 -15.208  0.00  0.00    -0.287 N 
ATOM      5  N   UNL     1      34.432 -24.606 -12.257  0.00  0.00    -0.220 NA
ATOM      6  C   UNL     1      33.364 -23.242 -15.623  0.00  0.00    +0.123 C 
ATOM      7  C   UNL     1      32.030 -23.551 -16.271  0.00  0.00    +0.113 C 
ATOM      8  C   UNL     1      32.020 -24.397 -14.070  0.00  0.00    +0.309 C 
ATOM      9  C   UNL     1      34.427 -24.061 -13.455  0.00  0.00    +0.172 C 
ATOM     10  C   UNL     1      36.650 -23.914 -12.531  0.00  0.00    +0.194 C 
ATOM     11  C   UNL     1      35.705 -24.521 -11.730  0.00  0.00    +0.132 C 
ATOM     12  H   UNL     1      30.274 -24.261 -15.265  0.00  0.00    +0.151 HD
ENDROOT
BRANCH  10  15
ATOM     13  O   UNL     1      38.881 -24.399 -12.859  0.00  0.00    -0.126 OA
ATOM     14  O   UNL     1      38.358 -22.734 -11.526  0.00  0.00    -0.126 OA
ATOM     15  N   UNL     1      38.009 -23.674 -12.298  0.00  0.00    +0.065 N 
ENDBRANCH  10  15
TORSDOF 1
ENDMDL
MODEL 5
REMARK VINA RESULT:      -6.9      7.487      9.034
REMARK  Name = 6093
REMARK  1 active torsions:
REMARK  status: ('A' for Active; 'I' for Inactive)
REMARK    1  A    between atoms: C_10  and  N_15
REMARK                            x       y       z     vdW  Elec       q    Type
REMARK                         _______ _______ _______ _____ _____    ______ ____
ROOT
ATOM      1  S   UNL     1      33.776 -20.999 -19.974  0.00  0.00    -0.027 S 
ATOM      2  O   UNL     1      37.799 -18.994 -21.368  0.00  0.00    -0.252 OA
ATOM      3  N   UNL     1      35.439 -19.445 -21.341  0.00  0.00    -0.221 N 
ATOM      4  N   UNL     1      36.314 -17.933 -22.798  0.00  0.00    -0.287 N 
ATOM      5  N   UNL     1      36.324 -20.870 -19.558  0.00  0.00    -0.220 NA
ATOM      6  C   UNL     1      34.344 -19.016 -22.199  0.00  0.00    +0.123 C 
ATOM      7  C   UNL     1      34.898 -17.862 -23.010  0.00  0.00    +0.113 C 
ATOM      8  C   UNL     1      36.652 -18.827 -21.763  0.00  0.00    +0.309 C 
ATOM      9  C   UNL     1      35.349 -20.393 -20.304  0.00  0.00    +0.172 C 
ATOM     10  C   UNL     1      34.437 -21.982 -18.733  0.00  0.00    +0.194 C 
ATOM     11  C   UNL     1      35.800 -21.778 -18.660  0.00  0.00    +0.132 C 
ATOM     12  H   UNL     1      36.974 -17.417 -23.314  0.00  0.00    +0.151 HD
ENDROOT
BRANCH  10  15
ATOM     13  O   UNL     1      34.121 -23.729 -17.263  0.00  0.00    -0.126 OA
ATOM     14  O   UNL     1      32.354 -22.666 -18.018  0.00  0.00    -0.126 OA
ATOM     15  N   UNL     1      33.610 -22.820 -17.979  0.00  0.00    +0.065 N 
ENDBRANCH  10  15
TORSDOF 1
ENDMDL
MODEL 6
REMARK VINA RESULT:      -6.8     12.919     14.314
REMARK  Name = 6093
REMARK  1 active torsions:
REMARK  status: ('A' for Active; 'I' for Inactive)
REMARK    1  A    between atoms: C_10  and  N_15
REMARK                            x       y       z     vdW  Elec       q    Type
REMARK                         _______ _______ _______ _____ _____    ______ ____
ROOT
ATOM      1  S   UNL     1      34.117 -16.089 -24.902  0.00  0.00    -0.027 S 
ATOM      2  O   UNL     1      34.937 -15.824 -20.276  0.00  0.00    -0.252 OA
ATOM      3  N   UNL     1      34.777 -16.846 -22.444  0.00  0.00    -0.221 N 
ATOM      4  N   UNL     1      35.439 -18.059 -20.638  0.00  0.00    -0.287 N 
ATOM      5  N   UNL     1      34.155 -14.514 -22.853  0.00  0.00    -0.220 NA
ATOM      6  C   UNL     1      34.911 -18.223 -22.897  0.00  0.00    +0.123 C 
ATOM      7  C   UNL     1      35.555 -18.964 -21.743  0.00  0.00    +0.113 C 
ATOM      8  C   UNL     1      35.036 -16.772 -21.045  0.00  0.00    +0.309 C 
ATOM      9  C   UNL     1      34.367 -15.755 -23.236  0.00  0.00    +0.172 C 
ATOM     10  C   UNL     1      33.688 -14.446 -25.145  0.00  0.00    +0.194 C 
ATOM     11  C   UNL     1      33.766 -13.766 -23.947  0.00  0.00    +0.132 C 
ATOM     12  H   UNL     1      35.622 -18.306 -19.703  0.00  0.00    +0.151 HD
ENDROOT
BRANCH  10  15
ATOM     13  O   UNL     1      33.194 -14.815 -27.367  0.00  0.00    -0.126 OA
ATOM     14  O   UNL     1      33.150 -12.752 -26.615  0.00  0.00    -0.126 OA
ATOM     15  N   UNL     1      33.332 -13.989 -26.418  0.00  0.00    +0.065 N 
ENDBRANCH  10  15
TORSDOF 1
ENDMDL
MODEL 7
REMARK VINA RESULT:      -6.8      3.563      5.664
REMARK  Name = 6093
REMARK  1 active torsions:
REMARK  status: ('A' for Active; 'I' for Inactive)
REMARK    1  A    between atoms: C_10  and  N_15
REMARK                            x       y       z     vdW  Elec       q    Type
REMARK                         _______ _______ _______ _____ _____    ______ ____
ROOT
ATOM      1  S   UNL     1      34.628 -23.186 -15.047  0.00  0.00    -0.027 S 
ATOM      2  O   UNL     1      35.165 -24.996 -10.737  0.00  0.00    -0.252 OA
ATOM      3  N   UNL     1      35.786 -23.840 -12.749  0.00  0.00    -0.221 N 
ATOM      4  N   UNL     1      37.274 -24.085 -11.047  0.00  0.00    -0.287 N 
ATOM      5  N   UNL     1      33.447 -24.455 -13.130  0.00  0.00    -0.220 NA
ATOM      6  C   UNL     1      37.052 -23.303 -13.227  0.00  0.00    +0.123 C 
ATOM      7  C   UNL     1      37.960 -23.279 -12.014  0.00  0.00    +0.113 C 
ATOM      8  C   UNL     1      35.954 -24.378 -11.440  0.00  0.00    +0.309 C 
ATOM      9  C   UNL     1      34.589 -23.908 -13.489  0.00  0.00    +0.172 C 
ATOM     10  C   UNL     1      32.988 -23.636 -15.274  0.00  0.00    +0.194 C 
ATOM     11  C   UNL     1      32.533 -24.299 -14.153  0.00  0.00    +0.132 C 
ATOM     12  H   UNL     1      37.678 -24.396 -10.205  0.00  0.00    +0.151 HD
ENDROOT
BRANCH  10  15
ATOM     13  O   UNL     1      32.980 -23.228 -17.543  0.00  0.00    -0.126 OA
ATOM     14  O   UNL     1      31.076 -23.122 -16.454  0.00  0.00    -0.126 OA
ATOM     15  N   UNL     1      32.325 -23.318 -16.464  0.00  0.00    +0.065 N 
ENDBRANCH  10  15
TORSDOF 1
ENDMDL
MODEL 8
REMARK VINA RESULT:      -6.8     11.883     12.986
REMARK  Name = 6093
REMARK  1 active torsions:
REMARK  status: ('A' for Active; 'I' for Inactive)
REMARK    1  A    between atoms: C_10  and  N_15
REMARK                            x       y       z     vdW  Elec       q    Type
REMARK                         _______ _______ _______ _____ _____    ______ ____
ROOT
ATOM      1  S   UNL     1      34.748 -17.792 -23.174  0.00  0.00    -0.027 S 
ATOM      2  O   UNL     1      33.607 -13.227 -23.221  0.00  0.00    -0.252 OA
ATOM      3  N   UNL     1      33.946 -15.437 -24.101  0.00  0.00    -0.221 N 
ATOM      4  N   UNL     1      33.199 -13.758 -25.442  0.00  0.00    -0.287 N 
ATOM      5  N   UNL     1      34.522 -15.659 -21.732  0.00  0.00    -0.220 NA
ATOM      6  C   UNL     1      33.886 -15.980 -25.450  0.00  0.00    +0.123 C 
ATOM      7  C   UNL     1      33.188 -14.921 -26.279  0.00  0.00    +0.113 C 
ATOM      8  C   UNL     1      33.590 -14.057 -24.121  0.00  0.00    +0.309 C 
ATOM      9  C   UNL     1      34.375 -16.130 -22.952  0.00  0.00    +0.172 C 
ATOM     10  C   UNL     1      35.142 -17.904 -21.509  0.00  0.00    +0.194 C 
ATOM     11  C   UNL     1      34.962 -16.676 -20.908  0.00  0.00    +0.132 C 
ATOM     12  H   UNL     1      32.962 -12.855 -25.752  0.00  0.00    +0.151 HD
ENDROOT
BRANCH  10  15
ATOM     13  O   UNL     1      34.792 -20.117 -20.963  0.00  0.00    -0.126 OA
ATOM     14  O   UNL     1      36.733 -19.214 -20.474  0.00  0.00    -0.126 OA
ATOM     15  N   UNL     1      35.570 -19.119 -20.964  0.00  0.00    +0.065 N 
ENDBRANCH  10  15
TORSDOF 1
ENDMDL
MODEL 9
REMARK VINA RESULT:      -6.7      3.290      6.250
REMARK  Name = 6093
REMARK  1 active torsions:
REMARK  status: ('A' for Active; 'I' for Inactive)
REMARK    1  A    between atoms: C_10  and  N_15
REMARK                            x       y       z     vdW  Elec       q    Type
REMARK                         _______ _______ _______ _____ _____    ______ ____
ROOT
ATOM      1  S   UNL     1      33.666 -23.480 -15.598  0.00  0.00    -0.027 S 
ATOM      2  O   UNL     1      35.025 -24.932 -11.333  0.00  0.00    -0.252 OA
ATOM      3  N   UNL     1      35.260 -24.296 -13.638  0.00  0.00    -0.221 N 
ATOM      4  N   UNL     1      37.075 -24.917 -12.416  0.00  0.00    -0.287 N 
ATOM      5  N   UNL     1      32.868 -24.018 -13.199  0.00  0.00    -0.220 NA
ATOM      6  C   UNL     1      36.388 -24.325 -14.558  0.00  0.00    +0.123 C 
ATOM      7  C   UNL     1      37.611 -24.528 -13.687  0.00  0.00    +0.113 C 
ATOM      8  C   UNL     1      35.681 -24.728 -12.347  0.00  0.00    +0.309 C 
ATOM      9  C   UNL     1      33.930 -23.979 -13.976  0.00  0.00    +0.172 C 
ATOM     10  C   UNL     1      31.996 -23.298 -15.248  0.00  0.00    +0.194 C 
ATOM     11  C   UNL     1      31.762 -23.628 -13.929  0.00  0.00    +0.132 C 
ATOM     12  H   UNL     1      37.617 -25.275 -11.677  0.00  0.00    +0.151 HD
ENDROOT
BRANCH  10  15
ATOM     13  O   UNL     1      29.865 -22.855 -16.008  0.00  0.00    -0.126 OA
ATOM     14  O   UNL     1      31.554 -22.502 -17.367  0.00  0.00    -0.126 OA
ATOM     15  N   UNL     1      31.108 -22.870 -16.241  0.00  0.00    +0.065 N 
ENDBRANCH  10  15
TORSDOF 1
ENDMDL
