MODEL 1
REMARK VINA RESULT:      -9.6      0.000      0.000
REMARK  Name = 46207731
REMARK  4 active torsions:
REMARK  status: ('A' for Active; 'I' for Inactive)
REMARK    1  A    between atoms: N_1  and  C_17
REMARK    2  A    between atoms: C_10  and  C_14
REMARK    3  A    between atoms: C_14  and  O_15
REMARK    4  A    between atoms: C_17  and  C_20
REMARK                            x       y       z     vdW  Elec       q    Type
REMARK                         _______ _______ _______ _____ _____    ______ ____
ROOT
ATOM      1  N   UNL     1      35.266 -19.893 -20.531  0.00  0.00    +0.392 N 
ATOM      2  N   UNL     1      34.235 -17.387 -21.433  0.00  0.00    -0.298 N 
ATOM      3  C   UNL     1      36.178 -18.832 -20.975  0.00  0.00    -0.055 C 
ATOM      4  C   UNL     1      34.020 -19.837 -21.304  0.00  0.00    -0.055 C 
ATOM      5  C   UNL     1      33.318 -18.488 -21.123  0.00  0.00    +0.069 C 
ATOM      6  C   UNL     1      35.549 -17.450 -20.781  0.00  0.00    +0.069 C 
ATOM      7  H   UNL     1      35.047 -19.747 -19.544  0.00  0.00    -0.079 HD
ATOM      8  N   UNL     1      32.953 -15.503 -20.830  0.00  0.00    -0.229 NA
ATOM      9  C   UNL     1      33.720 -16.125 -21.753  0.00  0.00    +0.130 C 
ATOM     10  C   UNL     1      34.025 -15.591 -22.996  0.00  0.00    +0.039 C 
ATOM     11  C   UNL     1      33.510 -14.339 -23.310  0.00  0.00    +0.003 C 
ATOM     12  C   UNL     1      32.471 -14.287 -21.171  0.00  0.00    +0.100 C 
ATOM     13  C   UNL     1      32.717 -13.668 -22.385  0.00  0.00    +0.021 C 
ENDROOT
BRANCH  10  14
ATOM     14  C   UNL     1      34.873 -16.309 -23.990  0.00  0.00    +0.171 C 
BRANCH  14  15
ATOM     15  O   UNL     1      34.040 -17.018 -24.899  0.00  0.00    -0.346 OA
ATOM     16  C   UNL     1      34.392 -18.393 -24.964  0.00  0.00    +0.175 C 
ENDBRANCH  14  15
ENDBRANCH  10  14
BRANCH   1  17
ATOM     17  C   UNL     1      35.898 -21.204 -20.669  0.00  0.00    -0.029 C 
BRANCH  17  20
ATOM     18  O   UNL     1      34.260 -21.991 -19.119  0.00  0.00    -0.474 OA
ATOM     19  O   UNL     1      36.293 -22.436 -17.126  0.00  0.00    -0.469 OA
ATOM     20  C   UNL     1      35.658 -22.060 -19.435  0.00  0.00    +0.189 C 
ATOM     21  C   UNL     1      36.477 -21.568 -18.249  0.00  0.00    +0.246 C 
ATOM     22  C   UNL     1      33.985 -22.504 -17.879  0.00  0.00    +0.172 C 
ATOM     23  C   UNL     1      34.972 -22.730 -16.918  0.00  0.00    +0.172 C 
ATOM     24  C   UNL     1      32.650 -22.794 -17.593  0.00  0.00    +0.040 C 
ATOM     25  C   UNL     1      34.631 -23.285 -15.684  0.00  0.00    +0.040 C 
ATOM     26  C   UNL     1      32.309 -23.337 -16.354  0.00  0.00    +0.003 C 
ATOM     27  C   UNL     1      33.298 -23.588 -15.403  0.00  0.00    +0.003 C 
ENDBRANCH  17  20
ENDBRANCH   1  17
TORSDOF 4
ENDMDL
MODEL 2
REMARK VINA RESULT:      -9.5      1.171      1.916
REMARK  Name = 46207731
REMARK  4 active torsions:
REMARK  status: ('A' for Active; 'I' for Inactive)
REMARK    1  A    between atoms: N_1  and  C_17
REMARK    2  A    between atoms: C_10  and  C_14
REMARK    3  A    between atoms: C_14  and  O_15
REMARK    4  A    between atoms: C_17  and  C_20
REMARK                            x       y       z     vdW  Elec       q    Type
REMARK                         _______ _______ _______ _____ _____    ______ ____
ROOT
ATOM      1  N   UNL     1      35.077 -19.429 -20.468  0.00  0.00    +0.392 N 
ATOM      2  N   UNL     1      34.187 -17.148 -21.939  0.00  0.00    -0.298 N 
ATOM      3  C   UNL     1      36.047 -18.549 -21.131  0.00  0.00    -0.055 C 
ATOM      4  C   UNL     1      33.838 -19.488 -21.253  0.00  0.00    -0.055 C 
ATOM      5  C   UNL     1      33.211 -18.099 -21.397  0.00  0.00    +0.069 C 
ATOM      6  C   UNL     1      35.494 -17.128 -21.270  0.00  0.00    +0.069 C 
ATOM      7  H   UNL     1      34.865 -19.049 -19.546  0.00  0.00    -0.079 HD
ATOM      8  N   UNL     1      33.009 -15.112 -21.804  0.00  0.00    -0.229 NA
ATOM      9  C   UNL     1      33.742 -15.969 -22.548  0.00  0.00    +0.130 C 
ATOM     10  C   UNL     1      34.079 -15.753 -23.875  0.00  0.00    +0.039 C 
ATOM     11  C   UNL     1      33.634 -14.581 -24.478  0.00  0.00    +0.003 C 
ATOM     12  C   UNL     1      32.594 -13.983 -22.424  0.00  0.00    +0.100 C 
ATOM     13  C   UNL     1      32.877 -13.675 -23.744  0.00  0.00    +0.021 C 
ENDROOT
BRANCH  10  14
ATOM     14  C   UNL     1      34.889 -16.724 -24.665  0.00  0.00    +0.171 C 
BRANCH  14  15
ATOM     15  O   UNL     1      34.021 -17.597 -25.376  0.00  0.00    -0.346 OA
ATOM     16  C   UNL     1      34.227 -18.954 -25.005  0.00  0.00    +0.175 C 
ENDBRANCH  14  15
ENDBRANCH  10  14
BRANCH   1  17
ATOM     17  C   UNL     1      35.637 -20.768 -20.291  0.00  0.00    -0.029 C 
BRANCH  17  20
ATOM     18  O   UNL     1      36.527 -21.546 -18.217  0.00  0.00    -0.474 OA
ATOM     19  O   UNL     1      34.152 -23.103 -17.729  0.00  0.00    -0.469 OA
ATOM     20  C   UNL     1      35.296 -21.328 -18.919  0.00  0.00    +0.189 C 
ATOM     21  C   UNL     1      34.528 -22.639 -19.029  0.00  0.00    +0.246 C 
ATOM     22  C   UNL     1      36.349 -22.294 -17.083  0.00  0.00    +0.172 C 
ATOM     23  C   UNL     1      35.194 -23.040 -16.842  0.00  0.00    +0.172 C 
ATOM     24  C   UNL     1      37.391 -22.298 -16.154  0.00  0.00    +0.040 C 
ATOM     25  C   UNL     1      35.060 -23.755 -15.652  0.00  0.00    +0.040 C 
ATOM     26  C   UNL     1      37.262 -23.025 -14.970  0.00  0.00    +0.003 C 
ATOM     27  C   UNL     1      36.096 -23.748 -14.717  0.00  0.00    +0.003 C 
ENDBRANCH  17  20
ENDBRANCH   1  17
TORSDOF 4
ENDMDL
MODEL 3
REMARK VINA RESULT:      -9.4      2.819      9.478
REMARK  Name = 46207731
REMARK  4 active torsions:
REMARK  status: ('A' for Active; 'I' for Inactive)
REMARK    1  A    between atoms: N_1  and  C_17
REMARK    2  A    between atoms: C_10  and  C_14
REMARK    3  A    between atoms: C_14  and  O_15
REMARK    4  A    between atoms: C_17  and  C_20
REMARK                            x       y       z     vdW  Elec       q    Type
REMARK                         _______ _______ _______ _____ _____    ______ ____
ROOT
ATOM      1  N   UNL     1      34.263 -15.477 -23.285  0.00  0.00    +0.392 N 
ATOM      2  N   UNL     1      35.058 -17.840 -21.891  0.00  0.00    -0.298 N 
ATOM      3  C   UNL     1      33.739 -15.758 -21.943  0.00  0.00    -0.055 C 
ATOM      4  C   UNL     1      34.474 -16.734 -24.013  0.00  0.00    -0.055 C 
ATOM      5  C   UNL     1      35.474 -17.633 -23.282  0.00  0.00    +0.069 C 
ATOM      6  C   UNL     1      34.715 -16.624 -21.143  0.00  0.00    +0.069 C 
ATOM      7  H   UNL     1      35.158 -14.995 -23.194  0.00  0.00    -0.079 HD
ATOM      8  N   UNL     1      36.891 -19.028 -21.006  0.00  0.00    -0.229 NA
ATOM      9  C   UNL     1      35.553 -18.935 -21.175  0.00  0.00    +0.130 C 
ATOM     10  C   UNL     1      34.643 -19.859 -20.683  0.00  0.00    +0.039 C 
ATOM     11  C   UNL     1      35.139 -20.947 -19.973  0.00  0.00    +0.003 C 
ATOM     12  C   UNL     1      37.335 -20.099 -20.311  0.00  0.00    +0.100 C 
ATOM     13  C   UNL     1      36.510 -21.075 -19.779  0.00  0.00    +0.021 C 
ENDROOT
BRANCH  10  14
ATOM     14  C   UNL     1      33.173 -19.725 -20.891  0.00  0.00    +0.171 C 
BRANCH  14  15
ATOM     15  O   UNL     1      32.534 -20.951 -20.560  0.00  0.00    -0.346 OA
ATOM     16  C   UNL     1      32.533 -21.178 -19.157  0.00  0.00    +0.175 C 
ENDBRANCH  14  15
ENDBRANCH  10  14
BRANCH   1  17
ATOM     17  C   UNL     1      33.349 -14.604 -24.020  0.00  0.00    -0.029 C 
BRANCH  17  20
ATOM     18  O   UNL     1      32.538 -12.605 -22.997  0.00  0.00    -0.474 OA
ATOM     19  O   UNL     1      34.178 -10.995 -24.735  0.00  0.00    -0.469 OA
ATOM     20  C   UNL     1      33.644 -13.139 -23.738  0.00  0.00    +0.189 C 
ATOM     21  C   UNL     1      33.825 -12.351 -25.029  0.00  0.00    +0.246 C 
ATOM     22  C   UNL     1      32.577 -11.238 -22.925  0.00  0.00    +0.172 C 
ATOM     23  C   UNL     1      33.380 -10.459 -23.760  0.00  0.00    +0.172 C 
ATOM     24  C   UNL     1      31.760 -10.628 -21.972  0.00  0.00    +0.040 C 
ATOM     25  C   UNL     1      33.399  -9.071 -23.615  0.00  0.00    +0.040 C 
ATOM     26  C   UNL     1      31.770  -9.239 -21.836  0.00  0.00    +0.003 C 
ATOM     27  C   UNL     1      32.593  -8.462 -22.653  0.00  0.00    +0.003 C 
ENDBRANCH  17  20
ENDBRANCH   1  17
TORSDOF 4
ENDMDL
MODEL 4
REMARK VINA RESULT:      -9.3      5.427      8.939
REMARK  Name = 46207731
REMARK  4 active torsions:
REMARK  status: ('A' for Active; 'I' for Inactive)
REMARK    1  A    between atoms: N_1  and  C_17
REMARK    2  A    between atoms: C_10  and  C_14
REMARK    3  A    between atoms: C_14  and  O_15
REMARK    4  A    between atoms: C_17  and  C_20
REMARK                            x       y       z     vdW  Elec       q    Type
REMARK                         _______ _______ _______ _____ _____    ______ ____
ROOT
ATOM      1  N   UNL     1      33.320 -12.044 -23.664  0.00  0.00    +0.392 N 
ATOM      2  N   UNL     1      32.559  -9.532 -22.537  0.00  0.00    -0.298 N 
ATOM      3  C   UNL     1      33.714 -10.790 -24.315  0.00  0.00    -0.055 C 
ATOM      4  C   UNL     1      32.010 -11.884 -23.021  0.00  0.00    -0.055 C 
ATOM      5  C   UNL     1      32.047 -10.780 -21.962  0.00  0.00    +0.069 C 
ATOM      6  C   UNL     1      33.809  -9.649 -23.298  0.00  0.00    +0.069 C 
ATOM      7  H   UNL     1      34.011 -12.275 -22.949  0.00  0.00    -0.079 HD
ATOM      8  N   UNL     1      32.717  -8.149 -20.636  0.00  0.00    -0.229 NA
ATOM      9  C   UNL     1      32.285  -8.314 -21.906  0.00  0.00    +0.130 C 
ATOM     10  C   UNL     1      31.587  -7.351 -22.619  0.00  0.00    +0.039 C 
ATOM     11  C   UNL     1      31.315  -6.143 -21.989  0.00  0.00    +0.003 C 
ATOM     12  C   UNL     1      32.435  -6.960 -20.056  0.00  0.00    +0.100 C 
ATOM     13  C   UNL     1      31.744  -5.936 -20.682  0.00  0.00    +0.021 C 
ENDROOT
BRANCH  10  14
ATOM     14  C   UNL     1      31.124  -7.571 -24.020  0.00  0.00    +0.171 C 
BRANCH  14  15
ATOM     15  O   UNL     1      31.093  -6.327 -24.709  0.00  0.00    -0.346 OA
ATOM     16  C   UNL     1      32.393  -5.925 -25.118  0.00  0.00    +0.175 C 
ENDBRANCH  14  15
ENDBRANCH  10  14
BRANCH   1  17
ATOM     17  C   UNL     1      33.286 -13.137 -24.634  0.00  0.00    -0.029 C 
BRANCH  17  20
ATOM     18  O   UNL     1      33.720 -15.471 -24.893  0.00  0.00    -0.474 OA
ATOM     19  O   UNL     1      34.881 -15.594 -22.258  0.00  0.00    -0.469 OA
ATOM     20  C   UNL     1      34.146 -14.305 -24.175  0.00  0.00    +0.189 C 
ATOM     21  C   UNL     1      34.004 -14.543 -22.677  0.00  0.00    +0.246 C 
ATOM     22  C   UNL     1      34.243 -16.622 -24.364  0.00  0.00    +0.172 C 
ATOM     23  C   UNL     1      34.815 -16.679 -23.092  0.00  0.00    +0.172 C 
ATOM     24  C   UNL     1      34.175 -17.772 -25.153  0.00  0.00    +0.040 C 
ATOM     25  C   UNL     1      35.359 -17.875 -22.624  0.00  0.00    +0.040 C 
ATOM     26  C   UNL     1      34.708 -18.971 -24.678  0.00  0.00    +0.003 C 
ATOM     27  C   UNL     1      35.304 -19.021 -23.418  0.00  0.00    +0.003 C 
ENDBRANCH  17  20
ENDBRANCH   1  17
TORSDOF 4
ENDMDL
MODEL 5
REMARK VINA RESULT:      -9.3      1.406      1.951
REMARK  Name = 46207731
REMARK  4 active torsions:
REMARK  status: ('A' for Active; 'I' for Inactive)
REMARK    1  A    between atoms: N_1  and  C_17
REMARK    2  A    between atoms: C_10  and  C_14
REMARK    3  A    between atoms: C_14  and  O_15
REMARK    4  A    between atoms: C_17  and  C_20
REMARK                            x       y       z     vdW  Elec       q    Type
REMARK                         _______ _______ _______ _____ _____    ______ ____
ROOT
ATOM      1  N   UNL     1      34.270 -21.220 -19.813  0.00  0.00    +0.392 N 
ATOM      2  N   UNL     1      34.395 -18.655 -21.063  0.00  0.00    -0.298 N 
ATOM      3  C   UNL     1      35.525 -20.744 -20.406  0.00  0.00    -0.055 C 
ATOM      4  C   UNL     1      33.129 -20.712 -20.584  0.00  0.00    -0.055 C 
ATOM      5  C   UNL     1      33.109 -19.182 -20.596  0.00  0.00    +0.069 C 
ATOM      6  C   UNL     1      35.586 -19.215 -20.411  0.00  0.00    +0.069 C 
ATOM      7  H   UNL     1      34.204 -20.869 -18.858  0.00  0.00    -0.079 HD
ATOM      8  N   UNL     1      34.120 -16.338 -20.731  0.00  0.00    -0.229 NA
ATOM      9  C   UNL     1      34.471 -17.348 -21.558  0.00  0.00    +0.130 C 
ATOM     10  C   UNL     1      34.898 -17.169 -22.865  0.00  0.00    +0.039 C 
ATOM     11  C   UNL     1      34.970 -15.869 -23.354  0.00  0.00    +0.003 C 
ATOM     12  C   UNL     1      34.203 -15.088 -21.242  0.00  0.00    +0.100 C 
ATOM     13  C   UNL     1      34.617 -14.804 -22.533  0.00  0.00    +0.021 C 
ENDROOT
BRANCH  10  14
ATOM     14  C   UNL     1      35.275 -18.309 -23.748  0.00  0.00    +0.171 C 
BRANCH  14  15
ATOM     15  O   UNL     1      34.822 -18.053 -25.071  0.00  0.00    -0.346 OA
ATOM     16  C   UNL     1      33.687 -18.844 -25.396  0.00  0.00    +0.175 C 
ENDBRANCH  14  15
ENDBRANCH  10  14
BRANCH   1  17
ATOM     17  C   UNL     1      34.248 -22.681 -19.764  0.00  0.00    -0.029 C 
BRANCH  17  20
ATOM     18  O   UNL     1      32.515 -22.742 -18.123  0.00  0.00    -0.474 OA
ATOM     19  O   UNL     1      34.448 -23.168 -16.030  0.00  0.00    -0.469 OA
ATOM     20  C   UNL     1      33.857 -23.177 -18.380  0.00  0.00    +0.189 C 
ATOM     21  C   UNL     1      34.789 -22.626 -17.309  0.00  0.00    +0.246 C 
ATOM     22  C   UNL     1      32.164 -22.902 -16.808  0.00  0.00    +0.172 C 
ATOM     23  C   UNL     1      33.100 -23.119 -15.796  0.00  0.00    +0.172 C 
ATOM     24  C   UNL     1      30.804 -22.829 -16.500  0.00  0.00    +0.040 C 
ATOM     25  C   UNL     1      32.675 -23.307 -14.480  0.00  0.00    +0.040 C 
ATOM     26  C   UNL     1      30.381 -23.003 -15.182  0.00  0.00    +0.003 C 
ATOM     27  C   UNL     1      31.315 -23.247 -14.174  0.00  0.00    +0.003 C 
ENDBRANCH  17  20
ENDBRANCH   1  17
TORSDOF 4
ENDMDL
MODEL 6
REMARK VINA RESULT:      -9.2      1.701      2.784
REMARK  Name = 46207731
REMARK  4 active torsions:
REMARK  status: ('A' for Active; 'I' for Inactive)
REMARK    1  A    between atoms: N_1  and  C_17
REMARK    2  A    between atoms: C_10  and  C_14
REMARK    3  A    between atoms: C_14  and  O_15
REMARK    4  A    between atoms: C_17  and  C_20
REMARK                            x       y       z     vdW  Elec       q    Type
REMARK                         _______ _______ _______ _____ _____    ______ ____
ROOT
ATOM      1  N   UNL     1      35.810 -20.484 -20.860  0.00  0.00    +0.392 N 
ATOM      2  N   UNL     1      35.107 -18.022 -22.125  0.00  0.00    -0.298 N 
ATOM      3  C   UNL     1      34.531 -19.833 -20.555  0.00  0.00    -0.055 C 
ATOM      4  C   UNL     1      36.835 -19.470 -21.133  0.00  0.00    -0.055 C 
ATOM      5  C   UNL     1      36.441 -18.596 -22.326  0.00  0.00    +0.069 C 
ATOM      6  C   UNL     1      34.059 -18.972 -21.730  0.00  0.00    +0.069 C 
ATOM      7  H   UNL     1      35.694 -21.066 -21.690  0.00  0.00    -0.079 HD
ATOM      8  N   UNL     1      34.715 -16.965 -24.194  0.00  0.00    -0.229 NA
ATOM      9  C   UNL     1      34.726 -16.884 -22.845  0.00  0.00    +0.130 C 
ATOM     10  C   UNL     1      34.384 -15.745 -22.133  0.00  0.00    +0.039 C 
ATOM     11  C   UNL     1      34.007 -14.616 -22.852  0.00  0.00    +0.003 C 
ATOM     12  C   UNL     1      34.343 -15.848 -24.859  0.00  0.00    +0.100 C 
ATOM     13  C   UNL     1      33.984 -14.661 -24.241  0.00  0.00    +0.021 C 
ENDROOT
BRANCH  10  14
ATOM     14  C   UNL     1      34.410 -15.693 -20.643  0.00  0.00    +0.171 C 
BRANCH  14  15
ATOM     15  O   UNL     1      33.189 -15.140 -20.167  0.00  0.00    -0.346 OA
ATOM     16  C   UNL     1      32.083 -15.979 -20.470  0.00  0.00    +0.175 C 
ENDBRANCH  14  15
ENDBRANCH  10  14
BRANCH   1  17
ATOM     17  C   UNL     1      36.223 -21.347 -19.753  0.00  0.00    -0.029 C 
BRANCH  17  20
ATOM     18  O   UNL     1      35.587 -22.277 -17.648  0.00  0.00    -0.474 OA
ATOM     19  O   UNL     1      32.894 -22.684 -18.588  0.00  0.00    -0.469 OA
ATOM     20  C   UNL     1      35.061 -21.621 -18.810  0.00  0.00    +0.189 C 
ATOM     21  C   UNL     1      34.010 -22.506 -19.467  0.00  0.00    +0.246 C 
ATOM     22  C   UNL     1      34.598 -22.807 -16.862  0.00  0.00    +0.172 C 
ATOM     23  C   UNL     1      33.291 -22.993 -17.314  0.00  0.00    +0.172 C 
ATOM     24  C   UNL     1      34.947 -23.174 -15.561  0.00  0.00    +0.040 C 
ATOM     25  C   UNL     1      32.320 -23.507 -16.454  0.00  0.00    +0.040 C 
ATOM     26  C   UNL     1      33.979 -23.700 -14.705  0.00  0.00    +0.003 C 
ATOM     27  C   UNL     1      32.666 -23.862 -15.149  0.00  0.00    +0.003 C 
ENDBRANCH  17  20
ENDBRANCH   1  17
TORSDOF 4
ENDMDL
MODEL 7
REMARK VINA RESULT:      -9.1      5.116      8.744
REMARK  Name = 46207731
REMARK  4 active torsions:
REMARK  status: ('A' for Active; 'I' for Inactive)
REMARK    1  A    between atoms: N_1  and  C_17
REMARK    2  A    between atoms: C_10  and  C_14
REMARK    3  A    between atoms: C_14  and  O_15
REMARK    4  A    between atoms: C_17  and  C_20
REMARK                            x       y       z     vdW  Elec       q    Type
REMARK                         _______ _______ _______ _____ _____    ______ ____
ROOT
ATOM      1  N   UNL     1      33.362 -12.274 -24.056  0.00  0.00    +0.392 N 
ATOM      2  N   UNL     1      32.625  -9.850 -22.739  0.00  0.00    -0.298 N 
ATOM      3  C   UNL     1      33.801 -10.979 -24.588  0.00  0.00    -0.055 C 
ATOM      4  C   UNL     1      32.039 -12.138 -23.436  0.00  0.00    -0.055 C 
ATOM      5  C   UNL     1      32.070 -11.129 -22.286  0.00  0.00    +0.069 C 
ATOM      6  C   UNL     1      33.893  -9.932 -23.475  0.00  0.00    +0.069 C 
ATOM      7  H   UNL     1      34.028 -12.582 -23.346  0.00  0.00    -0.079 HD
ATOM      8  N   UNL     1      32.761  -8.636 -20.724  0.00  0.00    -0.229 NA
ATOM      9  C   UNL     1      32.360  -8.683 -22.014  0.00  0.00    +0.130 C 
ATOM     10  C   UNL     1      31.703  -7.647 -22.660  0.00  0.00    +0.039 C 
ATOM     11  C   UNL     1      31.441  -6.490 -21.935  0.00  0.00    +0.003 C 
ATOM     12  C   UNL     1      32.489  -7.495 -20.051  0.00  0.00    +0.100 C 
ATOM     13  C   UNL     1      31.838  -6.405 -20.605  0.00  0.00    +0.021 C 
ENDROOT
BRANCH  10  14
ATOM     14  C   UNL     1      31.274  -7.735 -24.084  0.00  0.00    +0.171 C 
BRANCH  14  15
ATOM     15  O   UNL     1      31.069  -6.426 -24.600  0.00  0.00    -0.346 OA
ATOM     16  C   UNL     1      32.285  -5.848 -25.054  0.00  0.00    +0.175 C 
ENDBRANCH  14  15
ENDBRANCH  10  14
BRANCH   1  17
ATOM     17  C   UNL     1      33.331 -13.280 -25.117  0.00  0.00    -0.029 C 
BRANCH  17  20
ATOM     18  O   UNL     1      34.084 -14.618 -23.289  0.00  0.00    -0.474 OA
ATOM     19  O   UNL     1      34.087 -16.972 -24.951  0.00  0.00    -0.469 OA
ATOM     20  C   UNL     1      33.389 -14.687 -24.541  0.00  0.00    +0.189 C 
ATOM     21  C   UNL     1      34.115 -15.642 -25.480  0.00  0.00    +0.246 C 
ATOM     22  C   UNL     1      34.426 -15.859 -22.819  0.00  0.00    +0.172 C 
ATOM     23  C   UNL     1      34.417 -17.001 -23.622  0.00  0.00    +0.172 C 
ATOM     24  C   UNL     1      34.804 -15.949 -21.478  0.00  0.00    +0.040 C 
ATOM     25  C   UNL     1      34.744 -18.242 -23.075  0.00  0.00    +0.040 C 
ATOM     26  C   UNL     1      35.144 -17.189 -20.936  0.00  0.00    +0.003 C 
ATOM     27  C   UNL     1      35.109 -18.335 -21.732  0.00  0.00    +0.003 C 
ENDBRANCH  17  20
ENDBRANCH   1  17
TORSDOF 4
ENDMDL
MODEL 8
REMARK VINA RESULT:      -8.8      2.934      5.073
REMARK  Name = 46207731
REMARK  4 active torsions:
REMARK  status: ('A' for Active; 'I' for Inactive)
REMARK    1  A    between atoms: N_1  and  C_17
REMARK    2  A    between atoms: C_10  and  C_14
REMARK    3  A    between atoms: C_14  and  O_15
REMARK    4  A    between atoms: C_17  and  C_20
REMARK                            x       y       z     vdW  Elec       q    Type
REMARK                         _______ _______ _______ _____ _____    ______ ____
ROOT
ATOM      1  N   UNL     1      34.288 -16.041 -23.617  0.00  0.00    +0.392 N 
ATOM      2  N   UNL     1      33.242 -13.411 -23.234  0.00  0.00    -0.298 N 
ATOM      3  C   UNL     1      35.087 -15.017 -22.934  0.00  0.00    -0.055 C 
ATOM      4  C   UNL     1      33.452 -15.416 -24.649  0.00  0.00    -0.055 C 
ATOM      5  C   UNL     1      32.498 -14.387 -24.037  0.00  0.00    +0.069 C 
ATOM      6  C   UNL     1      34.189 -13.975 -22.264  0.00  0.00    +0.069 C 
ATOM      7  H   UNL     1      33.683 -16.496 -22.934  0.00  0.00    -0.079 HD
ATOM      8  N   UNL     1      31.502 -12.155 -22.260  0.00  0.00    -0.229 NA
ATOM      9  C   UNL     1      32.667 -12.168 -22.945  0.00  0.00    +0.130 C 
ATOM     10  C   UNL     1      33.324 -11.028 -23.380  0.00  0.00    +0.039 C 
ATOM     11  C   UNL     1      32.749  -9.795 -23.092  0.00  0.00    +0.003 C 
ATOM     12  C   UNL     1      30.973 -10.939 -21.999  0.00  0.00    +0.100 C 
ATOM     13  C   UNL     1      31.550  -9.742 -22.389  0.00  0.00    +0.021 C 
ENDROOT
BRANCH  10  14
ATOM     14  C   UNL     1      34.608 -11.082 -24.136  0.00  0.00    +0.171 C 
BRANCH  14  15
ATOM     15  O   UNL     1      34.536 -10.207 -25.255  0.00  0.00    -0.346 OA
ATOM     16  C   UNL     1      35.633 -10.399 -26.138  0.00  0.00    +0.175 C 
ENDBRANCH  14  15
ENDBRANCH  10  14
BRANCH   1  17
ATOM     17  C   UNL     1      35.156 -17.060 -24.207  0.00  0.00    -0.029 C 
BRANCH  17  20
ATOM     18  O   UNL     1      34.015 -18.381 -22.578  0.00  0.00    -0.474 OA
ATOM     19  O   UNL     1      36.519 -19.395 -21.578  0.00  0.00    -0.469 OA
ATOM     20  C   UNL     1      35.241 -18.289 -23.315  0.00  0.00    +0.189 C 
ATOM     21  C   UNL     1      36.415 -18.194 -22.349  0.00  0.00    +0.246 C 
ATOM     22  C   UNL     1      34.093 -19.290 -21.557  0.00  0.00    +0.172 C 
ATOM     23  C   UNL     1      35.306 -19.790 -21.080  0.00  0.00    +0.172 C 
ATOM     24  C   UNL     1      32.891 -19.708 -20.983  0.00  0.00    +0.040 C 
ATOM     25  C   UNL     1      35.318 -20.740 -20.058  0.00  0.00    +0.040 C 
ATOM     26  C   UNL     1      32.904 -20.648 -19.953  0.00  0.00    +0.003 C 
ATOM     27  C   UNL     1      34.115 -21.167 -19.494  0.00  0.00    +0.003 C 
ENDBRANCH  17  20
ENDBRANCH   1  17
TORSDOF 4
ENDMDL
MODEL 9
REMARK VINA RESULT:      -8.7      5.089      8.774
REMARK  Name = 46207731
REMARK  4 active torsions:
REMARK  status: ('A' for Active; 'I' for Inactive)
REMARK    1  A    between atoms: N_1  and  C_17
REMARK    2  A    between atoms: C_10  and  C_14
REMARK    3  A    between atoms: C_14  and  O_15
REMARK    4  A    between atoms: C_17  and  C_20
REMARK                            x       y       z     vdW  Elec       q    Type
REMARK                         _______ _______ _______ _____ _____    ______ ____
ROOT
ATOM      1  N   UNL     1      32.479 -12.651 -22.361  0.00  0.00    +0.392 N 
ATOM      2  N   UNL     1      32.118  -9.839 -22.711  0.00  0.00    -0.298 N 
ATOM      3  C   UNL     1      31.706 -11.875 -21.384  0.00  0.00    -0.055 C 
ATOM      4  C   UNL     1      33.560 -11.825 -22.912  0.00  0.00    -0.055 C 
ATOM      5  C   UNL     1      33.004 -10.583 -23.612  0.00  0.00    +0.069 C 
ATOM      6  C   UNL     1      31.087 -10.635 -22.033  0.00  0.00    +0.069 C 
ATOM      7  H   UNL     1      31.860 -12.932 -23.122  0.00  0.00    -0.079 HD
ATOM      8  N   UNL     1      31.260  -8.172 -24.139  0.00  0.00    -0.229 NA
ATOM      9  C   UNL     1      31.847  -8.490 -22.963  0.00  0.00    +0.130 C 
ATOM     10  C   UNL     1      32.196  -7.561 -21.994  0.00  0.00    +0.039 C 
ATOM     11  C   UNL     1      31.927  -6.222 -22.249  0.00  0.00    +0.003 C 
ATOM     12  C   UNL     1      31.013  -6.860 -24.351  0.00  0.00    +0.100 C 
ATOM     13  C   UNL     1      31.324  -5.856 -23.448  0.00  0.00    +0.021 C 
ENDROOT
BRANCH  10  14
ATOM     14  C   UNL     1      32.844  -7.950 -20.709  0.00  0.00    +0.171 C 
BRANCH  14  15
ATOM     15  O   UNL     1      31.860  -8.021 -19.685  0.00  0.00    -0.346 OA
ATOM     16  C   UNL     1      31.845  -9.300 -19.065  0.00  0.00    +0.175 C 
ENDBRANCH  14  15
ENDBRANCH  10  14
BRANCH   1  17
ATOM     17  C   UNL     1      33.020 -13.861 -21.743  0.00  0.00    -0.029 C 
BRANCH  17  20
ATOM     18  O   UNL     1      33.821 -16.076 -22.133  0.00  0.00    -0.474 OA
ATOM     19  O   UNL     1      33.808 -15.631 -24.979  0.00  0.00    -0.469 OA
ATOM     20  C   UNL     1      33.101 -15.000 -22.748  0.00  0.00    +0.189 C 
ATOM     21  C   UNL     1      33.814 -14.567 -24.022  0.00  0.00    +0.246 C 
ATOM     22  C   UNL     1      34.182 -17.040 -23.037  0.00  0.00    +0.172 C 
ATOM     23  C   UNL     1      34.165 -16.827 -24.416  0.00  0.00    +0.172 C 
ATOM     24  C   UNL     1      34.588 -18.273 -22.524  0.00  0.00    +0.040 C 
ATOM     25  C   UNL     1      34.512 -17.861 -25.287  0.00  0.00    +0.040 C 
ATOM     26  C   UNL     1      34.949 -19.302 -23.395  0.00  0.00    +0.003 C 
ATOM     27  C   UNL     1      34.906 -19.097 -24.775  0.00  0.00    +0.003 C 
ENDBRANCH  17  20
ENDBRANCH   1  17
TORSDOF 4
ENDMDL
