MODEL 1
REMARK VINA RESULT:      -9.7      0.000      0.000
REMARK  Name = 4634231
REMARK  3 active torsions:
REMARK  status: ('A' for Active; 'I' for Inactive)
REMARK    1  A    between atoms: C_9  and  N_19
REMARK    2  A    between atoms: C_10  and  O_20
REMARK    3  A    between atoms: C_11  and  O_22
REMARK                            x       y       z     vdW  Elec       q    Type
REMARK                         _______ _______ _______ _____ _____    ______ ____
ROOT
ATOM      1  O   UNL     1      37.724 -22.437 -15.624  0.00  0.00    -0.287 OA
ATOM      2  O   UNL     1      32.607 -23.400 -16.827  0.00  0.00    -0.286 OA
ATOM      3  C   UNL     1      35.645 -23.317 -14.892  0.00  0.00    +0.067 C 
ATOM      4  C   UNL     1      34.309 -23.563 -15.217  0.00  0.00    +0.077 C 
ATOM      5  C   UNL     1      34.679 -22.537 -17.518  0.00  0.00    +0.076 C 
ATOM      6  C   UNL     1      36.015 -22.289 -17.193  0.00  0.00    +0.045 C 
ATOM      7  C   UNL     1      36.546 -22.671 -15.868  0.00  0.00    +0.198 C 
ATOM      8  C   UNL     1      33.778 -23.182 -16.541  0.00  0.00    +0.202 C 
ATOM      9  C   UNL     1      36.137 -23.684 -13.634  0.00  0.00    +0.146 C 
ATOM     10  C   UNL     1      33.466 -24.177 -14.284  0.00  0.00    +0.137 C 
ATOM     11  C   UNL     1      34.188 -22.171 -18.776  0.00  0.00    +0.137 C 
ATOM     12  C   UNL     1      36.859 -21.676 -18.126  0.00  0.00    +0.003 C 
ATOM     13  C   UNL     1      35.293 -24.296 -12.707  0.00  0.00    +0.027 C 
ATOM     14  C   UNL     1      33.960 -24.542 -13.031  0.00  0.00    +0.038 C 
ATOM     15  C   UNL     1      35.032 -21.561 -19.704  0.00  0.00    +0.037 C 
ATOM     16  C   UNL     1      36.365 -21.314 -19.380  0.00  0.00    +0.003 C 
ENDROOT
BRANCH   9  19
ATOM     17  O   UNL     1      37.747 -22.467 -12.519  0.00  0.00    -0.126 OA
ATOM     18  O   UNL     1      38.357 -24.304 -13.557  0.00  0.00    -0.126 OA
ATOM     19  N   UNL     1      37.483 -23.474 -13.215  0.00  0.00    +0.058 N 
ENDBRANCH   9  19
BRANCH  10  20
ATOM     20  O   UNL     1      32.153 -24.447 -14.533  0.00  0.00    -0.505 OA
ATOM     21  H   UNL     1      31.494 -24.169 -13.926  0.00  0.00    +0.292 HD
ENDBRANCH  10  20
BRANCH  11  22
ATOM     22  O   UNL     1      32.896 -22.382 -19.160  0.00  0.00    -0.505 OA
ATOM     23  H   UNL     1      32.462 -23.178 -18.925  0.00  0.00    +0.292 HD
ENDBRANCH  11  22
TORSDOF 3
ENDMDL
MODEL 2
REMARK VINA RESULT:      -9.6      2.082      4.079
REMARK  Name = 4634231
REMARK  3 active torsions:
REMARK  status: ('A' for Active; 'I' for Inactive)
REMARK    1  A    between atoms: C_9  and  N_19
REMARK    2  A    between atoms: C_10  and  O_20
REMARK    3  A    between atoms: C_11  and  O_22
REMARK                            x       y       z     vdW  Elec       q    Type
REMARK                         _______ _______ _______ _____ _____    ______ ____
ROOT
ATOM      1  O   UNL     1      33.869 -24.487 -12.372  0.00  0.00    -0.287 OA
ATOM      2  O   UNL     1      34.567 -22.782 -17.388  0.00  0.00    -0.286 OA
ATOM      3  C   UNL     1      35.418 -23.873 -14.061  0.00  0.00    +0.067 C 
ATOM      4  C   UNL     1      35.588 -23.427 -15.374  0.00  0.00    +0.077 C 
ATOM      5  C   UNL     1      33.062 -23.398 -15.692  0.00  0.00    +0.076 C 
ATOM      6  C   UNL     1      32.891 -23.844 -14.380  0.00  0.00    +0.045 C 
ATOM      7  C   UNL     1      34.063 -24.097 -13.517  0.00  0.00    +0.198 C 
ATOM      8  C   UNL     1      34.417 -23.174 -16.237  0.00  0.00    +0.202 C 
ATOM      9  C   UNL     1      36.536 -24.108 -13.253  0.00  0.00    +0.146 C 
ATOM     10  C   UNL     1      36.878 -23.218 -15.878  0.00  0.00    +0.137 C 
ATOM     11  C   UNL     1      31.944 -23.160 -16.501  0.00  0.00    +0.137 C 
ATOM     12  C   UNL     1      31.603 -24.053 -13.875  0.00  0.00    +0.003 C 
ATOM     13  C   UNL     1      37.819 -23.898 -13.759  0.00  0.00    +0.027 C 
ATOM     14  C   UNL     1      37.990 -23.453 -15.069  0.00  0.00    +0.038 C 
ATOM     15  C   UNL     1      30.661 -23.370 -15.994  0.00  0.00    +0.037 C 
ATOM     16  C   UNL     1      30.491 -23.815 -14.684  0.00  0.00    +0.003 C 
ENDROOT
BRANCH   9  19
ATOM     17  O   UNL     1      36.444 -25.794 -11.682  0.00  0.00    -0.126 OA
ATOM     18  O   UNL     1      36.411 -23.712 -10.984  0.00  0.00    -0.126 OA
ATOM     19  N   UNL     1      36.460 -24.561 -11.904  0.00  0.00    +0.058 N 
ENDBRANCH   9  19
BRANCH  10  20
ATOM     20  O   UNL     1      37.118 -22.785 -17.148  0.00  0.00    -0.505 OA
ATOM     21  H   UNL     1      37.940 -22.972 -17.559  0.00  0.00    +0.292 HD
ENDBRANCH  10  20
BRANCH  11  22
ATOM     22  O   UNL     1      32.037 -22.726 -17.790  0.00  0.00    -0.505 OA
ATOM     23  H   UNL     1      32.707 -22.117 -18.031  0.00  0.00    +0.292 HD
ENDBRANCH  11  22
TORSDOF 3
ENDMDL
MODEL 3
REMARK VINA RESULT:      -9.3      2.366      5.421
REMARK  Name = 4634231
REMARK  3 active torsions:
REMARK  status: ('A' for Active; 'I' for Inactive)
REMARK    1  A    between atoms: C_9  and  N_19
REMARK    2  A    between atoms: C_10  and  O_20
REMARK    3  A    between atoms: C_11  and  O_22
REMARK                            x       y       z     vdW  Elec       q    Type
REMARK                         _______ _______ _______ _____ _____    ______ ____
ROOT
ATOM      1  O   UNL     1      33.369 -24.691 -12.761  0.00  0.00    -0.287 OA
ATOM      2  O   UNL     1      36.614 -23.174 -16.726  0.00  0.00    -0.286 OA
ATOM      3  C   UNL     1      33.540 -23.830 -14.965  0.00  0.00    +0.067 C 
ATOM      4  C   UNL     1      34.397 -23.436 -15.995  0.00  0.00    +0.077 C 
ATOM      5  C   UNL     1      36.407 -24.024 -14.546  0.00  0.00    +0.076 C 
ATOM      6  C   UNL     1      35.551 -24.417 -13.516  0.00  0.00    +0.045 C 
ATOM      7  C   UNL     1      34.085 -24.335 -13.689  0.00  0.00    +0.198 C 
ATOM      8  C   UNL     1      35.862 -23.518 -15.823  0.00  0.00    +0.202 C 
ATOM      9  C   UNL     1      32.153 -23.749 -15.141  0.00  0.00    +0.146 C 
ATOM     10  C   UNL     1      33.868 -22.960 -17.200  0.00  0.00    +0.137 C 
ATOM     11  C   UNL     1      37.794 -24.107 -14.371  0.00  0.00    +0.137 C 
ATOM     12  C   UNL     1      36.079 -24.894 -12.311  0.00  0.00    +0.003 C 
ATOM     13  C   UNL     1      31.630 -23.274 -16.343  0.00  0.00    +0.027 C 
ATOM     14  C   UNL     1      32.485 -22.881 -17.371  0.00  0.00    +0.038 C 
ATOM     15  C   UNL     1      38.317 -24.582 -13.169  0.00  0.00    +0.037 C 
ATOM     16  C   UNL     1      37.462 -24.975 -12.141  0.00  0.00    +0.003 C 
ENDROOT
BRANCH   9  19
ATOM     17  O   UNL     1      30.825 -23.273 -13.317  0.00  0.00    -0.126 OA
ATOM     18  O   UNL     1      30.777 -25.307 -14.142  0.00  0.00    -0.126 OA
ATOM     19  N   UNL     1      31.203 -24.129 -14.149  0.00  0.00    +0.058 N 
ENDBRANCH   9  19
BRANCH  10  20
ATOM     20  O   UNL     1      34.644 -22.557 -18.246  0.00  0.00    -0.505 OA
ATOM     21  H   UNL     1      34.456 -21.752 -18.686  0.00  0.00    +0.292 HD
ENDBRANCH  10  20
BRANCH  11  22
ATOM     22  O   UNL     1      38.688 -23.739 -15.333  0.00  0.00    -0.505 OA
ATOM     23  H   UNL     1      38.965 -24.361 -15.977  0.00  0.00    +0.292 HD
ENDBRANCH  11  22
TORSDOF 3
ENDMDL
MODEL 4
REMARK VINA RESULT:      -9.2      1.602      3.776
REMARK  Name = 4634231
REMARK  3 active torsions:
REMARK  status: ('A' for Active; 'I' for Inactive)
REMARK    1  A    between atoms: C_9  and  N_19
REMARK    2  A    between atoms: C_10  and  O_20
REMARK    3  A    between atoms: C_11  and  O_22
REMARK                            x       y       z     vdW  Elec       q    Type
REMARK                         _______ _______ _______ _____ _____    ______ ____
ROOT
ATOM      1  O   UNL     1      32.136 -23.513 -16.076  0.00  0.00    -0.287 OA
ATOM      2  O   UNL     1      37.349 -22.378 -16.377  0.00  0.00    -0.286 OA
ATOM      3  C   UNL     1      34.235 -23.518 -14.969  0.00  0.00    +0.067 C 
ATOM      4  C   UNL     1      35.596 -23.218 -15.059  0.00  0.00    +0.077 C 
ATOM      5  C   UNL     1      35.256 -22.389 -17.443  0.00  0.00    +0.076 C 
ATOM      6  C   UNL     1      33.895 -22.690 -17.353  0.00  0.00    +0.045 C 
ATOM      7  C   UNL     1      33.335 -23.264 -16.113  0.00  0.00    +0.198 C 
ATOM      8  C   UNL     1      36.156 -22.643 -16.299  0.00  0.00    +0.202 C 
ATOM      9  C   UNL     1      33.715 -24.061 -13.788  0.00  0.00    +0.146 C 
ATOM     10  C   UNL     1      36.438 -23.461 -13.968  0.00  0.00    +0.137 C 
ATOM     11  C   UNL     1      35.774 -21.844 -18.623  0.00  0.00    +0.137 C 
ATOM     12  C   UNL     1      33.052 -22.445 -18.444  0.00  0.00    +0.003 C 
ATOM     13  C   UNL     1      34.558 -24.302 -12.703  0.00  0.00    +0.027 C 
ATOM     14  C   UNL     1      35.916 -24.003 -12.792  0.00  0.00    +0.038 C 
ATOM     15  C   UNL     1      34.932 -21.602 -19.708  0.00  0.00    +0.037 C 
ATOM     16  C   UNL     1      33.573 -21.902 -19.619  0.00  0.00    +0.003 C 
ENDROOT
BRANCH   9  19
ATOM     17  O   UNL     1      31.949 -25.533 -13.952  0.00  0.00    -0.126 OA
ATOM     18  O   UNL     1      31.576 -23.544 -13.100  0.00  0.00    -0.126 OA
ATOM     19  N   UNL     1      32.343 -24.397 -13.604  0.00  0.00    +0.058 N 
ENDBRANCH   9  19
BRANCH  10  20
ATOM     20  O   UNL     1      37.774 -23.194 -13.986  0.00  0.00    -0.505 OA
ATOM     21  H   UNL     1      38.081 -22.358 -14.278  0.00  0.00    +0.292 HD
ENDBRANCH  10  20
BRANCH  11  22
ATOM     22  O   UNL     1      37.092 -21.528 -18.780  0.00  0.00    -0.505 OA
ATOM     23  H   UNL     1      37.716 -22.201 -18.964  0.00  0.00    +0.292 HD
ENDBRANCH  11  22
TORSDOF 3
ENDMDL
MODEL 5
REMARK VINA RESULT:      -9.2      1.764      4.414
REMARK  Name = 4634231
REMARK  3 active torsions:
REMARK  status: ('A' for Active; 'I' for Inactive)
REMARK    1  A    between atoms: C_9  and  N_19
REMARK    2  A    between atoms: C_10  and  O_20
REMARK    3  A    between atoms: C_11  and  O_22
REMARK                            x       y       z     vdW  Elec       q    Type
REMARK                         _______ _______ _______ _____ _____    ______ ____
ROOT
ATOM      1  O   UNL     1      34.992 -24.320 -13.797  0.00  0.00    -0.287 OA
ATOM      2  O   UNL     1      32.261 -22.480 -18.005  0.00  0.00    -0.286 OA
ATOM      3  C   UNL     1      35.087 -23.215 -15.894  0.00  0.00    +0.067 C 
ATOM      4  C   UNL     1      34.363 -22.739 -16.989  0.00  0.00    +0.077 C 
ATOM      5  C   UNL     1      32.205 -23.572 -15.926  0.00  0.00    +0.076 C 
ATOM      6  C   UNL     1      32.928 -24.050 -14.831  0.00  0.00    +0.045 C 
ATOM      7  C   UNL     1      34.396 -23.888 -14.775  0.00  0.00    +0.198 C 
ATOM      8  C   UNL     1      32.896 -22.900 -17.045  0.00  0.00    +0.202 C 
ATOM      9  C   UNL     1      36.477 -23.055 -15.852  0.00  0.00    +0.146 C 
ATOM     10  C   UNL     1      35.029 -22.101 -18.043  0.00  0.00    +0.137 C 
ATOM     11  C   UNL     1      30.814 -23.731 -15.967  0.00  0.00    +0.137 C 
ATOM     12  C   UNL     1      32.262 -24.686 -13.777  0.00  0.00    +0.003 C 
ATOM     13  C   UNL     1      37.137 -22.420 -16.904  0.00  0.00    +0.027 C 
ATOM     14  C   UNL     1      36.415 -21.944 -17.997  0.00  0.00    +0.038 C 
ATOM     15  C   UNL     1      30.154 -24.365 -14.915  0.00  0.00    +0.037 C 
ATOM     16  C   UNL     1      30.876 -24.842 -13.822  0.00  0.00    +0.003 C 
ENDROOT
BRANCH   9  19
ATOM     17  O   UNL     1      37.783 -24.659 -14.834  0.00  0.00    -0.126 OA
ATOM     18  O   UNL     1      37.504 -22.736 -13.812  0.00  0.00    -0.126 OA
ATOM     19  N   UNL     1      37.297 -23.507 -14.778  0.00  0.00    +0.058 N 
ENDBRANCH   9  19
BRANCH  10  20
ATOM     20  O   UNL     1      34.387 -21.613 -19.142  0.00  0.00    -0.505 OA
ATOM     21  H   UNL     1      33.565 -21.173 -19.047  0.00  0.00    +0.292 HD
ENDBRANCH  10  20
BRANCH  11  22
ATOM     22  O   UNL     1      30.046 -23.290 -17.004  0.00  0.00    -0.505 OA
ATOM     23  H   UNL     1      29.112 -23.322 -16.942  0.00  0.00    +0.292 HD
ENDBRANCH  11  22
TORSDOF 3
ENDMDL
MODEL 6
REMARK VINA RESULT:      -9.0      2.523      5.376
REMARK  Name = 4634231
REMARK  3 active torsions:
REMARK  status: ('A' for Active; 'I' for Inactive)
REMARK    1  A    between atoms: C_9  and  N_19
REMARK    2  A    between atoms: C_10  and  O_20
REMARK    3  A    between atoms: C_11  and  O_22
REMARK                            x       y       z     vdW  Elec       q    Type
REMARK                         _______ _______ _______ _____ _____    ______ ____
ROOT
ATOM      1  O   UNL     1      32.376 -22.772 -18.179  0.00  0.00    -0.287 OA
ATOM      2  O   UNL     1      33.316 -24.179 -13.111  0.00  0.00    -0.286 OA
ATOM      3  C   UNL     1      33.989 -23.031 -16.459  0.00  0.00    +0.067 C 
ATOM      4  C   UNL     1      34.223 -23.400 -15.132  0.00  0.00    +0.077 C 
ATOM      5  C   UNL     1      31.746 -23.910 -14.837  0.00  0.00    +0.076 C 
ATOM      6  C   UNL     1      31.511 -23.540 -16.162  0.00  0.00    +0.045 C 
ATOM      7  C   UNL     1      32.624 -23.087 -17.022  0.00  0.00    +0.198 C 
ATOM      8  C   UNL     1      33.110 -23.853 -14.273  0.00  0.00    +0.202 C 
ATOM      9  C   UNL     1      35.052 -22.604 -17.264  0.00  0.00    +0.146 C 
ATOM     10  C   UNL     1      35.521 -23.343 -14.611  0.00  0.00    +0.137 C 
ATOM     11  C   UNL     1      30.683 -24.338 -14.033  0.00  0.00    +0.137 C 
ATOM     12  C   UNL     1      30.214 -23.597 -16.685  0.00  0.00    +0.003 C 
ATOM     13  C   UNL     1      36.344 -22.549 -16.740  0.00  0.00    +0.027 C 
ATOM     14  C   UNL     1      36.578 -22.918 -15.416  0.00  0.00    +0.038 C 
ATOM     15  C   UNL     1      29.392 -24.394 -14.557  0.00  0.00    +0.037 C 
ATOM     16  C   UNL     1      29.157 -24.025 -15.880  0.00  0.00    +0.003 C 
ENDROOT
BRANCH   9  19
ATOM     17  O   UNL     1      34.945 -20.990 -18.906  0.00  0.00    -0.126 OA
ATOM     18  O   UNL     1      34.753 -23.096 -19.497  0.00  0.00    -0.126 OA
ATOM     19  N   UNL     1      34.909 -22.210 -18.625  0.00  0.00    +0.058 N 
ENDBRANCH   9  19
BRANCH  10  20
ATOM     20  O   UNL     1      35.822 -23.687 -13.327  0.00  0.00    -0.505 OA
ATOM     21  H   UNL     1      36.243 -24.505 -13.147  0.00  0.00    +0.292 HD
ENDBRANCH  10  20
BRANCH  11  22
ATOM     22  O   UNL     1      30.840 -24.713 -12.731  0.00  0.00    -0.505 OA
ATOM     23  H   UNL     1      31.430 -25.407 -12.511  0.00  0.00    +0.292 HD
ENDBRANCH  11  22
TORSDOF 3
ENDMDL
MODEL 7
REMARK VINA RESULT:      -8.9      2.240      5.848
REMARK  Name = 4634231
REMARK  3 active torsions:
REMARK  status: ('A' for Active; 'I' for Inactive)
REMARK    1  A    between atoms: C_9  and  N_19
REMARK    2  A    between atoms: C_10  and  O_20
REMARK    3  A    between atoms: C_11  and  O_22
REMARK                            x       y       z     vdW  Elec       q    Type
REMARK                         _______ _______ _______ _____ _____    ______ ____
ROOT
ATOM      1  O   UNL     1      32.218 -22.842 -18.009  0.00  0.00    -0.287 OA
ATOM      2  O   UNL     1      35.599 -23.734 -13.969  0.00  0.00    -0.286 OA
ATOM      3  C   UNL     1      34.443 -22.654 -17.205  0.00  0.00    +0.067 C 
ATOM      4  C   UNL     1      35.317 -22.891 -16.142  0.00  0.00    +0.077 C 
ATOM      5  C   UNL     1      33.408 -23.903 -14.796  0.00  0.00    +0.076 C 
ATOM      6  C   UNL     1      32.533 -23.665 -15.858  0.00  0.00    +0.045 C 
ATOM      7  C   UNL     1      33.018 -23.032 -17.102  0.00  0.00    +0.198 C 
ATOM      8  C   UNL     1      34.832 -23.524 -14.900  0.00  0.00    +0.202 C 
ATOM      9  C   UNL     1      34.915 -22.054 -18.379  0.00  0.00    +0.146 C 
ATOM     10  C   UNL     1      36.665 -22.529 -16.254  0.00  0.00    +0.137 C 
ATOM     11  C   UNL     1      32.935 -24.505 -13.624  0.00  0.00    +0.137 C 
ATOM     12  C   UNL     1      31.185 -24.028 -15.748  0.00  0.00    +0.003 C 
ATOM     13  C   UNL     1      36.259 -21.694 -18.485  0.00  0.00    +0.027 C 
ATOM     14  C   UNL     1      37.132 -21.931 -17.425  0.00  0.00    +0.038 C 
ATOM     15  C   UNL     1      31.592 -24.865 -13.518  0.00  0.00    +0.037 C 
ATOM     16  C   UNL     1      30.719 -24.627 -14.578  0.00  0.00    +0.003 C 
ENDROOT
BRANCH   9  19
ATOM     17  O   UNL     1      33.734 -22.724 -20.242  0.00  0.00    -0.126 OA
ATOM     18  O   UNL     1      33.772 -20.586 -19.742  0.00  0.00    -0.126 OA
ATOM     19  N   UNL     1      34.099 -21.774 -19.512  0.00  0.00    +0.058 N 
ENDBRANCH   9  19
BRANCH  10  20
ATOM     20  O   UNL     1      37.573 -22.729 -15.257  0.00  0.00    -0.505 OA
ATOM     21  H   UNL     1      37.282 -22.844 -14.374  0.00  0.00    +0.292 HD
ENDBRANCH  10  20
BRANCH  11  22
ATOM     22  O   UNL     1      33.733 -24.766 -12.549  0.00  0.00    -0.505 OA
ATOM     23  H   UNL     1      33.722 -25.614 -12.152  0.00  0.00    +0.292 HD
ENDBRANCH  11  22
TORSDOF 3
ENDMDL
MODEL 8
REMARK VINA RESULT:      -8.9      8.552     11.151
REMARK  Name = 4634231
REMARK  3 active torsions:
REMARK  status: ('A' for Active; 'I' for Inactive)
REMARK    1  A    between atoms: C_9  and  N_19
REMARK    2  A    between atoms: C_10  and  O_20
REMARK    3  A    between atoms: C_11  and  O_22
REMARK                            x       y       z     vdW  Elec       q    Type
REMARK                         _______ _______ _______ _____ _____    ______ ____
ROOT
ATOM      1  O   UNL     1      33.693 -16.254 -20.280  0.00  0.00    -0.287 OA
ATOM      2  O   UNL     1      33.111 -13.722 -24.949  0.00  0.00    -0.286 OA
ATOM      3  C   UNL     1      34.002 -16.333 -22.631  0.00  0.00    +0.067 C 
ATOM      4  C   UNL     1      33.844 -15.662 -23.846  0.00  0.00    +0.077 C 
ATOM      5  C   UNL     1      32.820 -13.680 -22.619  0.00  0.00    +0.076 C 
ATOM      6  C   UNL     1      32.976 -14.350 -21.404  0.00  0.00    +0.045 C 
ATOM      7  C   UNL     1      33.573 -15.701 -21.366  0.00  0.00    +0.198 C 
ATOM      8  C   UNL     1      33.247 -14.311 -23.884  0.00  0.00    +0.202 C 
ATOM      9  C   UNL     1      34.570 -17.612 -22.608  0.00  0.00    +0.146 C 
ATOM     10  C   UNL     1      34.255 -16.271 -25.038  0.00  0.00    +0.137 C 
ATOM     11  C   UNL     1      32.254 -12.399 -22.642  0.00  0.00    +0.137 C 
ATOM     12  C   UNL     1      32.567 -13.742 -20.212  0.00  0.00    +0.003 C 
ATOM     13  C   UNL     1      34.977 -18.215 -23.798  0.00  0.00    +0.027 C 
ATOM     14  C   UNL     1      34.821 -17.546 -25.010  0.00  0.00    +0.038 C 
ATOM     15  C   UNL     1      31.847 -11.796 -21.452  0.00  0.00    +0.037 C 
ATOM     16  C   UNL     1      32.003 -12.466 -20.239  0.00  0.00    +0.003 C 
ENDROOT
BRANCH   9  19
ATOM     17  O   UNL     1      33.871 -19.160 -21.048  0.00  0.00    -0.126 OA
ATOM     18  O   UNL     1      35.839 -18.223 -20.782  0.00  0.00    -0.126 OA
ATOM     19  N   UNL     1      34.770 -18.371 -21.419  0.00  0.00    +0.058 N 
ENDBRANCH   9  19
BRANCH  10  20
ATOM     20  O   UNL     1      34.131 -15.675 -26.258  0.00  0.00    -0.505 OA
ATOM     21  H   UNL     1      33.282 -15.445 -26.582  0.00  0.00    +0.292 HD
ENDBRANCH  10  20
BRANCH  11  22
ATOM     22  O   UNL     1      32.071 -11.688 -23.791  0.00  0.00    -0.505 OA
ATOM     23  H   UNL     1      31.757 -10.806 -23.751  0.00  0.00    +0.292 HD
ENDBRANCH  11  22
TORSDOF 3
ENDMDL
MODEL 9
REMARK VINA RESULT:      -8.9      2.684      5.130
REMARK  Name = 4634231
REMARK  3 active torsions:
REMARK  status: ('A' for Active; 'I' for Inactive)
REMARK    1  A    between atoms: C_9  and  N_19
REMARK    2  A    between atoms: C_10  and  O_20
REMARK    3  A    between atoms: C_11  and  O_22
REMARK                            x       y       z     vdW  Elec       q    Type
REMARK                         _______ _______ _______ _____ _____    ______ ____
ROOT
ATOM      1  O   UNL     1      35.653 -23.080 -17.179  0.00  0.00    -0.287 OA
ATOM      2  O   UNL     1      32.917 -24.459 -12.801  0.00  0.00    -0.286 OA
ATOM      3  C   UNL     1      33.520 -23.340 -16.172  0.00  0.00    +0.067 C 
ATOM      4  C   UNL     1      32.816 -23.703 -15.022  0.00  0.00    +0.077 C 
ATOM      5  C   UNL     1      35.011 -24.190 -13.829  0.00  0.00    +0.076 C 
ATOM      6  C   UNL     1      35.717 -23.828 -14.979  0.00  0.00    +0.045 C 
ATOM      7  C   UNL     1      34.997 -23.389 -16.192  0.00  0.00    +0.198 C 
ATOM      8  C   UNL     1      33.535 -24.142 -13.810  0.00  0.00    +0.202 C 
ATOM      9  C   UNL     1      32.827 -22.925 -17.315  0.00  0.00    +0.146 C 
ATOM     10  C   UNL     1      31.416 -23.651 -15.016  0.00  0.00    +0.137 C 
ATOM     11  C   UNL     1      35.705 -24.604 -12.686  0.00  0.00    +0.137 C 
ATOM     12  C   UNL     1      37.115 -23.879 -14.985  0.00  0.00    +0.003 C 
ATOM     13  C   UNL     1      31.433 -22.875 -17.305  0.00  0.00    +0.027 C 
ATOM     14  C   UNL     1      30.729 -23.237 -16.158  0.00  0.00    +0.038 C 
ATOM     15  C   UNL     1      37.099 -24.653 -12.696  0.00  0.00    +0.037 C 
ATOM     16  C   UNL     1      37.803 -24.292 -13.843  0.00  0.00    +0.003 C 
ENDROOT
BRANCH   9  19
ATOM     17  O   UNL     1      33.597 -21.315 -18.775  0.00  0.00    -0.126 OA
ATOM     18  O   UNL     1      33.859 -23.427 -19.315  0.00  0.00    -0.126 OA
ATOM     19  N   UNL     1      33.460 -22.536 -18.531  0.00  0.00    +0.058 N 
ENDBRANCH   9  19
BRANCH  10  20
ATOM     20  O   UNL     1      30.665 -23.992 -13.931  0.00  0.00    -0.505 OA
ATOM     21  H   UNL     1      30.898 -23.673 -13.081  0.00  0.00    +0.292 HD
ENDBRANCH  10  20
BRANCH  11  22
ATOM     22  O   UNL     1      35.081 -24.972 -11.530  0.00  0.00    -0.505 OA
ATOM     23  H   UNL     1      34.859 -24.324 -10.891  0.00  0.00    +0.292 HD
ENDBRANCH  11  22
TORSDOF 3
ENDMDL
