MODEL 1
REMARK VINA RESULT:      -9.4      0.000      0.000
REMARK  Name = 54683953
REMARK  2 active torsions:
REMARK  status: ('A' for Active; 'I' for Inactive)
REMARK    1  A    between atoms: C_11  and  C_19
REMARK    2  A    between atoms: C_11  and  O_23
REMARK                            x       y       z     vdW  Elec       q    Type
REMARK                         _______ _______ _______ _____ _____    ______ ____
ROOT
ATOM      1 CL   UNL     1      31.719 -24.991 -13.410  0.00  0.00    -0.082 Cl
ATOM      2  O   UNL     1      36.817 -22.020 -18.105  0.00  0.00    -0.269 OA
ATOM      3  O   UNL     1      32.753 -21.837 -19.519  0.00  0.00    -0.252 OA
ATOM      4  N   UNL     1      34.447 -22.386 -17.975  0.00  0.00    -0.189 N 
ATOM      5  N   UNL     1      34.904 -21.318 -20.017  0.00  0.00    -0.313 N 
ATOM      6  C   UNL     1      34.405 -23.423 -15.889  0.00  0.00    +0.022 C 
ATOM      7  C   UNL     1      33.625 -22.987 -16.969  0.00  0.00    +0.063 C 
ATOM      8  C   UNL     1      35.782 -23.090 -16.209  0.00  0.00    +0.090 C 
ATOM      9  C   UNL     1      35.811 -22.424 -17.547  0.00  0.00    +0.263 C 
ATOM     10  C   UNL     1      33.843 -24.042 -14.783  0.00  0.00    +0.013 C 
ATOM     11  C   UNL     1      36.880 -23.311 -15.483  0.00  0.00    +0.144 C 
ATOM     12  C   UNL     1      32.249 -23.172 -16.950  0.00  0.00    +0.016 C 
ATOM     13  C   UNL     1      32.462 -24.227 -14.764  0.00  0.00    +0.058 C 
ATOM     14  C   UNL     1      31.672 -23.796 -15.838  0.00  0.00    +0.013 C 
ATOM     15  C   UNL     1      33.937 -21.853 -19.182  0.00  0.00    +0.311 C 
ATOM     16  H   UNL     1      34.644 -20.923 -20.880  0.00  0.00    +0.147 HD
ATOM     17  H   UNL     1      35.850 -21.332 -19.746  0.00  0.00    +0.147 HD
ENDROOT
BRANCH  11  19
ATOM     18  S   UNL     1      37.095 -25.662 -14.060  0.00  0.00    -0.083 S 
ATOM     19  C   UNL     1      36.866 -23.967 -14.160  0.00  0.00    +0.063 C 
ATOM     20  C   UNL     1      36.687 -23.397 -12.918  0.00  0.00    +0.010 C 
ATOM     21  C   UNL     1      36.738 -24.362 -11.872  0.00  0.00    +0.008 C 
ATOM     22  C   UNL     1      36.955 -25.635 -12.353  0.00  0.00    +0.036 C 
ENDBRANCH  11  19
BRANCH  11  23
ATOM     23  O   UNL     1      38.136 -22.915 -15.913  0.00  0.00    -0.505 OA
ATOM     24  H   UNL     1      38.425 -22.036 -15.768  0.00  0.00    +0.292 HD
ENDBRANCH  11  23
TORSDOF 2
ENDMDL
MODEL 2
REMARK VINA RESULT:      -9.0      3.346      4.289
REMARK  Name = 54683953
REMARK  2 active torsions:
REMARK  status: ('A' for Active; 'I' for Inactive)
REMARK    1  A    between atoms: C_11  and  C_19
REMARK    2  A    between atoms: C_11  and  O_23
REMARK                            x       y       z     vdW  Elec       q    Type
REMARK                         _______ _______ _______ _____ _____    ______ ____
ROOT
ATOM      1 CL   UNL     1      36.056 -22.021 -18.847  0.00  0.00    -0.082 Cl
ATOM      2  O   UNL     1      31.033 -24.403 -13.753  0.00  0.00    -0.269 OA
ATOM      3  O   UNL     1      29.310 -22.655 -17.292  0.00  0.00    -0.252 OA
ATOM      4  N   UNL     1      31.089 -23.355 -15.913  0.00  0.00    -0.189 N 
ATOM      5  N   UNL     1      28.838 -23.617 -15.292  0.00  0.00    -0.313 N 
ATOM      6  C   UNL     1      33.403 -23.276 -16.162  0.00  0.00    +0.022 C 
ATOM      7  C   UNL     1      32.175 -22.965 -16.759  0.00  0.00    +0.063 C 
ATOM      8  C   UNL     1      33.100 -23.891 -14.882  0.00  0.00    +0.090 C 
ATOM      9  C   UNL     1      31.615 -23.944 -14.720  0.00  0.00    +0.263 C 
ATOM     10  C   UNL     1      34.611 -22.996 -16.784  0.00  0.00    +0.013 C 
ATOM     11  C   UNL     1      33.948 -24.352 -13.960  0.00  0.00    +0.144 C 
ATOM     12  C   UNL     1      32.144 -22.358 -18.008  0.00  0.00    +0.016 C 
ATOM     13  C   UNL     1      34.581 -22.387 -18.037  0.00  0.00    +0.058 C 
ATOM     14  C   UNL     1      33.358 -22.071 -18.644  0.00  0.00    +0.013 C 
ATOM     15  C   UNL     1      29.729 -23.167 -16.253  0.00  0.00    +0.311 C 
ATOM     16  H   UNL     1      27.869 -23.528 -15.441  0.00  0.00    +0.147 HD
ATOM     17  H   UNL     1      29.174 -24.025 -14.462  0.00  0.00    +0.147 HD
ENDROOT
BRANCH  11  19
ATOM     18  S   UNL     1      36.229 -25.621 -14.849  0.00  0.00    -0.083 S 
ATOM     19  C   UNL     1      35.418 -24.307 -14.107  0.00  0.00    +0.063 C 
ATOM     20  C   UNL     1      36.291 -23.316 -13.716  0.00  0.00    +0.010 C 
ATOM     21  C   UNL     1      37.643 -23.638 -14.030  0.00  0.00    +0.008 C 
ATOM     22  C   UNL     1      37.752 -24.863 -14.649  0.00  0.00    +0.036 C 
ENDBRANCH  11  19
BRANCH  11  23
ATOM     23  O   UNL     1      33.507 -24.938 -12.785  0.00  0.00    -0.505 OA
ATOM     24  H   UNL     1      33.518 -25.870 -12.694  0.00  0.00    +0.292 HD
ENDBRANCH  11  23
TORSDOF 2
ENDMDL
MODEL 3
REMARK VINA RESULT:      -8.0     13.131     15.096
REMARK  Name = 54683953
REMARK  2 active torsions:
REMARK  status: ('A' for Active; 'I' for Inactive)
REMARK    1  A    between atoms: C_11  and  C_19
REMARK    2  A    between atoms: C_11  and  O_23
REMARK                            x       y       z     vdW  Elec       q    Type
REMARK                         _______ _______ _______ _____ _____    ______ ____
ROOT
ATOM      1 CL   UNL     1      35.852 -10.774 -26.989  0.00  0.00    -0.082 Cl
ATOM      2  O   UNL     1      31.441 -11.475 -20.914  0.00  0.00    -0.269 OA
ATOM      3  O   UNL     1      32.926  -7.492 -21.605  0.00  0.00    -0.252 OA
ATOM      4  N   UNL     1      32.683  -9.786 -22.085  0.00  0.00    -0.189 N 
ATOM      5  N   UNL     1      31.649  -8.773 -20.236  0.00  0.00    -0.313 N 
ATOM      6  C   UNL     1      33.526 -11.140 -23.784  0.00  0.00    +0.022 C 
ATOM      7  C   UNL     1      33.492  -9.839 -23.265  0.00  0.00    +0.063 C 
ATOM      8  C   UNL     1      32.709 -11.959 -22.906  0.00  0.00    +0.090 C 
ATOM      9  C   UNL     1      32.167 -11.093 -21.816  0.00  0.00    +0.263 C 
ATOM     10  C   UNL     1      34.245 -11.453 -24.928  0.00  0.00    +0.013 C 
ATOM     11  C   UNL     1      32.445 -13.264 -22.996  0.00  0.00    +0.144 C 
ATOM     12  C   UNL     1      34.191  -8.821 -23.900  0.00  0.00    +0.016 C 
ATOM     13  C   UNL     1      34.947 -10.432 -25.565  0.00  0.00    +0.058 C 
ATOM     14  C   UNL     1      34.920  -9.127 -25.055  0.00  0.00    +0.013 C 
ATOM     15  C   UNL     1      32.463  -8.602 -21.343  0.00  0.00    +0.311 C 
ATOM     16  H   UNL     1      31.439  -8.004 -19.658  0.00  0.00    +0.147 HD
ATOM     17  H   UNL     1      31.281  -9.661 -20.027  0.00  0.00    +0.147 HD
ENDROOT
BRANCH  11  19
ATOM     18  S   UNL     1      34.203 -15.268 -23.700  0.00  0.00    -0.083 S 
ATOM     19  C   UNL     1      32.974 -14.133 -24.068  0.00  0.00    +0.063 C 
ATOM     20  C   UNL     1      32.612 -14.176 -25.397  0.00  0.00    +0.010 C 
ATOM     21  C   UNL     1      33.353 -15.153 -26.123  0.00  0.00    +0.008 C 
ATOM     22  C   UNL     1      34.253 -15.820 -25.321  0.00  0.00    +0.036 C 
ENDBRANCH  11  19
BRANCH  11  23
ATOM     23  O   UNL     1      31.623 -13.911 -22.087  0.00  0.00    -0.505 OA
ATOM     24  H   UNL     1      31.987 -14.282 -21.309  0.00  0.00    +0.292 HD
ENDBRANCH  11  23
TORSDOF 2
ENDMDL
MODEL 4
REMARK VINA RESULT:      -8.0      2.212      4.456
REMARK  Name = 54683953
REMARK  2 active torsions:
REMARK  status: ('A' for Active; 'I' for Inactive)
REMARK    1  A    between atoms: C_11  and  C_19
REMARK    2  A    between atoms: C_11  and  O_23
REMARK                            x       y       z     vdW  Elec       q    Type
REMARK                         _______ _______ _______ _____ _____    ______ ____
ROOT
ATOM      1 CL   UNL     1      35.498 -24.636 -12.392  0.00  0.00    -0.082 Cl
ATOM      2  O   UNL     1      32.620 -22.036 -18.858  0.00  0.00    -0.269 OA
ATOM      3  O   UNL     1      36.918 -21.914 -18.629  0.00  0.00    -0.252 OA
ATOM      4  N   UNL     1      34.755 -22.371 -17.813  0.00  0.00    -0.189 N 
ATOM      5  N   UNL     1      35.127 -21.448 -19.941  0.00  0.00    -0.313 N 
ATOM      6  C   UNL     1      33.984 -23.264 -15.804  0.00  0.00    +0.022 C 
ATOM      7  C   UNL     1      35.122 -22.897 -16.533  0.00  0.00    +0.063 C 
ATOM      8  C   UNL     1      32.837 -22.965 -16.645  0.00  0.00    +0.090 C 
ATOM      9  C   UNL     1      33.330 -22.392 -17.934  0.00  0.00    +0.263 C 
ATOM     10  C   UNL     1      34.072 -23.801 -14.529  0.00  0.00    +0.013 C 
ATOM     11  C   UNL     1      31.542 -23.144 -16.377  0.00  0.00    +0.144 C 
ATOM     12  C   UNL     1      36.384 -23.066 -15.980  0.00  0.00    +0.016 C 
ATOM     13  C   UNL     1      35.339 -23.972 -13.973  0.00  0.00    +0.058 C 
ATOM     14  C   UNL     1      36.485 -23.608 -14.693  0.00  0.00    +0.013 C 
ATOM     15  C   UNL     1      35.695 -21.918 -18.768  0.00  0.00    +0.311 C 
ATOM     16  H   UNL     1      35.703 -21.111 -20.665  0.00  0.00    +0.147 HD
ATOM     17  H   UNL     1      34.149 -21.451 -20.050  0.00  0.00    +0.147 HD
ENDROOT
BRANCH  11  19
ATOM     18  S   UNL     1      30.433 -25.310 -15.082  0.00  0.00    -0.083 S 
ATOM     19  C   UNL     1      31.040 -23.709 -15.107  0.00  0.00    +0.063 C 
ATOM     20  C   UNL     1      30.980 -23.114 -13.866  0.00  0.00    +0.010 C 
ATOM     21  C   UNL     1      30.428 -23.984 -12.881  0.00  0.00    +0.008 C 
ATOM     22  C   UNL     1      30.089 -25.211 -13.407  0.00  0.00    +0.036 C 
ENDBRANCH  11  19
BRANCH  11  23
ATOM     23  O   UNL     1      30.553 -22.828 -17.294  0.00  0.00    -0.505 OA
ATOM     24  H   UNL     1      30.424 -21.938 -17.555  0.00  0.00    +0.292 HD
ENDBRANCH  11  23
TORSDOF 2
ENDMDL
MODEL 5
REMARK VINA RESULT:      -7.9      3.009      5.276
REMARK  Name = 54683953
REMARK  2 active torsions:
REMARK  status: ('A' for Active; 'I' for Inactive)
REMARK    1  A    between atoms: C_11  and  C_19
REMARK    2  A    between atoms: C_11  and  O_23
REMARK                            x       y       z     vdW  Elec       q    Type
REMARK                         _______ _______ _______ _____ _____    ______ ____
ROOT
ATOM      1 CL   UNL     1      30.691 -23.270 -16.182  0.00  0.00    -0.082 Cl
ATOM      2  O   UNL     1      37.922 -23.499 -14.056  0.00  0.00    -0.269 OA
ATOM      3  O   UNL     1      35.130 -24.868 -11.076  0.00  0.00    -0.252 OA
ATOM      4  N   UNL     1      35.743 -24.010 -13.183  0.00  0.00    -0.189 N 
ATOM      5  N   UNL     1      37.326 -24.518 -11.523  0.00  0.00    -0.313 N 
ATOM      6  C   UNL     1      34.504 -23.392 -15.057  0.00  0.00    +0.022 C 
ATOM      7  C   UNL     1      34.434 -23.899 -13.752  0.00  0.00    +0.063 C 
ATOM      8  C   UNL     1      35.910 -23.168 -15.342  0.00  0.00    +0.090 C 
ATOM      9  C   UNL     1      36.707 -23.564 -14.142  0.00  0.00    +0.263 C 
ATOM     10  C   UNL     1      33.367 -23.190 -15.825  0.00  0.00    +0.013 C 
ATOM     11  C   UNL     1      36.466 -22.694 -16.459  0.00  0.00    +0.144 C 
ATOM     12  C   UNL     1      33.202 -24.212 -13.194  0.00  0.00    +0.016 C 
ATOM     13  C   UNL     1      32.130 -23.504 -15.265  0.00  0.00    +0.058 C 
ATOM     14  C   UNL     1      32.048 -24.011 -13.961  0.00  0.00    +0.013 C 
ATOM     15  C   UNL     1      35.987 -24.492 -11.876  0.00  0.00    +0.311 C 
ATOM     16  H   UNL     1      37.593 -24.839 -10.632  0.00  0.00    +0.147 HD
ATOM     17  H   UNL     1      38.010 -24.217 -12.164  0.00  0.00    +0.147 HD
ENDROOT
BRANCH  11  19
ATOM     18  S   UNL     1      36.422 -21.302 -18.838  0.00  0.00    -0.083 S 
ATOM     19  C   UNL     1      35.690 -22.299 -17.653  0.00  0.00    +0.063 C 
ATOM     20  C   UNL     1      34.393 -22.624 -17.983  0.00  0.00    +0.010 C 
ATOM     21  C   UNL     1      33.994 -22.049 -19.224  0.00  0.00    +0.008 C 
ATOM     22  C   UNL     1      35.003 -21.306 -19.797  0.00  0.00    +0.036 C 
ENDBRANCH  11  19
BRANCH  11  23
ATOM     23  O   UNL     1      37.837 -22.553 -16.594  0.00  0.00    -0.505 OA
ATOM     24  H   UNL     1      38.213 -22.426 -17.442  0.00  0.00    +0.292 HD
ENDBRANCH  11  23
TORSDOF 2
ENDMDL
MODEL 6
REMARK VINA RESULT:      -7.5     12.248     14.146
REMARK  Name = 54683953
REMARK  2 active torsions:
REMARK  status: ('A' for Active; 'I' for Inactive)
REMARK    1  A    between atoms: C_11  and  C_19
REMARK    2  A    between atoms: C_11  and  O_23
REMARK                            x       y       z     vdW  Elec       q    Type
REMARK                         _______ _______ _______ _____ _____    ______ ____
ROOT
ATOM      1 CL   UNL     1      35.230 -11.202 -26.806  0.00  0.00    -0.082 Cl
ATOM      2  O   UNL     1      31.505 -12.823 -20.454  0.00  0.00    -0.269 OA
ATOM      3  O   UNL     1      31.957  -8.614 -21.246  0.00  0.00    -0.252 OA
ATOM      4  N   UNL     1      32.235 -10.909 -21.706  0.00  0.00    -0.189 N 
ATOM      5  N   UNL     1      31.110 -10.137 -19.794  0.00  0.00    -0.313 N 
ATOM      6  C   UNL     1      33.265 -12.053 -23.455  0.00  0.00    +0.022 C 
ATOM      7  C   UNL     1      32.957 -10.788 -22.937  0.00  0.00    +0.063 C 
ATOM      8  C   UNL     1      32.722 -13.027 -22.524  0.00  0.00    +0.090 C 
ATOM      9  C   UNL     1      32.061 -12.295 -21.402  0.00  0.00    +0.263 C 
ATOM     10  C   UNL     1      33.963 -12.207 -24.643  0.00  0.00    +0.013 C 
ATOM     11  C   UNL     1      32.769 -14.359 -22.595  0.00  0.00    +0.144 C 
ATOM     12  C   UNL     1      33.353  -9.645 -23.617  0.00  0.00    +0.016 C 
ATOM     13  C   UNL     1      34.361 -11.060 -25.326  0.00  0.00    +0.058 C 
ATOM     14  C   UNL     1      34.058  -9.789 -24.818  0.00  0.00    +0.013 C 
ATOM     15  C   UNL     1      31.789  -9.798 -20.953  0.00  0.00    +0.311 C 
ATOM     16  H   UNL     1      30.761  -9.430 -19.204  0.00  0.00    +0.147 HD
ATOM     17  H   UNL     1      30.976 -11.084 -19.561  0.00  0.00    +0.147 HD
ENDROOT
BRANCH  11  19
ATOM     18  S   UNL     1      34.775 -16.088 -23.363  0.00  0.00    -0.083 S 
ATOM     19  C   UNL     1      33.419 -15.096 -23.699  0.00  0.00    +0.063 C 
ATOM     20  C   UNL     1      33.088 -15.112 -25.036  0.00  0.00    +0.010 C 
ATOM     21  C   UNL     1      33.956 -15.948 -25.794  0.00  0.00    +0.008 C 
ATOM     22  C   UNL     1      34.919 -16.541 -25.008  0.00  0.00    +0.036 C 
ENDBRANCH  11  19
BRANCH  11  23
ATOM     23  O   UNL     1      32.183 -15.167 -21.634  0.00  0.00    -0.505 OA
ATOM     24  H   UNL     1      32.112 -16.089 -21.778  0.00  0.00    +0.292 HD
ENDBRANCH  11  23
TORSDOF 2
ENDMDL
MODEL 7
REMARK VINA RESULT:      -7.3     14.327     16.912
REMARK  Name = 54683953
REMARK  2 active torsions:
REMARK  status: ('A' for Active; 'I' for Inactive)
REMARK    1  A    between atoms: C_11  and  C_19
REMARK    2  A    between atoms: C_11  and  O_23
REMARK                            x       y       z     vdW  Elec       q    Type
REMARK                         _______ _______ _______ _____ _____    ______ ____
ROOT
ATOM      1 CL   UNL     1      34.499 -11.240 -26.276  0.00  0.00    -0.082 Cl
ATOM      2  O   UNL     1      31.585  -8.247 -19.998  0.00  0.00    -0.269 OA
ATOM      3  O   UNL     1      31.657 -12.553 -20.069  0.00  0.00    -0.252 OA
ATOM      4  N   UNL     1      32.043 -10.403 -20.953  0.00  0.00    -0.189 N 
ATOM      5  N   UNL     1      31.075 -10.738 -18.839  0.00  0.00    -0.313 N 
ATOM      6  C   UNL     1      32.961  -9.665 -22.964  0.00  0.00    +0.022 C 
ATOM      7  C   UNL     1      32.622 -10.792 -22.203  0.00  0.00    +0.063 C 
ATOM      8  C   UNL     1      32.588  -8.504 -22.176  0.00  0.00    +0.090 C 
ATOM      9  C   UNL     1      31.999  -8.974 -20.885  0.00  0.00    +0.263 C 
ATOM     10  C   UNL     1      33.539  -9.776 -24.219  0.00  0.00    +0.013 C 
ATOM     11  C   UNL     1      32.718  -7.212 -22.487  0.00  0.00    +0.144 C 
ATOM     12  C   UNL     1      32.864 -12.065 -22.703  0.00  0.00    +0.016 C 
ATOM     13  C   UNL     1      33.781 -11.053 -24.722  0.00  0.00    +0.058 C 
ATOM     14  C   UNL     1      33.447 -12.188 -23.970  0.00  0.00    +0.013 C 
ATOM     15  C   UNL     1      31.604 -11.326 -19.976  0.00  0.00    +0.311 C 
ATOM     16  H   UNL     1      30.743 -11.301 -18.104  0.00  0.00    +0.147 HD
ATOM     17  H   UNL     1      31.032  -9.757 -18.767  0.00  0.00    +0.147 HD
ENDROOT
BRANCH  11  19
ATOM     18  S   UNL     1      32.325  -5.821 -24.834  0.00  0.00    -0.083 S 
ATOM     19  C   UNL     1      33.298  -6.732 -23.758  0.00  0.00    +0.063 C 
ATOM     20  C   UNL     1      34.574  -6.915 -24.245  0.00  0.00    +0.010 C 
ATOM     21  C   UNL     1      34.756  -6.298 -25.516  0.00  0.00    +0.008 C 
ATOM     22  C   UNL     1      33.613  -5.667 -25.953  0.00  0.00    +0.036 C 
ENDBRANCH  11  19
BRANCH  11  23
ATOM     23  O   UNL     1      32.331  -6.205 -21.617  0.00  0.00    -0.505 OA
ATOM     24  H   UNL     1      31.903  -6.421 -20.813  0.00  0.00    +0.292 HD
ENDBRANCH  11  23
TORSDOF 2
ENDMDL
MODEL 8
REMARK VINA RESULT:      -7.1      8.034     10.564
REMARK  Name = 54683953
REMARK  2 active torsions:
REMARK  status: ('A' for Active; 'I' for Inactive)
REMARK    1  A    between atoms: C_11  and  C_19
REMARK    2  A    between atoms: C_11  and  O_23
REMARK                            x       y       z     vdW  Elec       q    Type
REMARK                         _______ _______ _______ _____ _____    ______ ____
ROOT
ATOM      1 CL   UNL     1      32.541 -15.142 -19.124  0.00  0.00    -0.082 Cl
ATOM      2  O   UNL     1      34.561 -16.378 -26.283  0.00  0.00    -0.269 OA
ATOM      3  O   UNL     1      32.819 -12.508 -25.551  0.00  0.00    -0.252 OA
ATOM      4  N   UNL     1      33.569 -14.656 -24.935  0.00  0.00    -0.189 N 
ATOM      5  N   UNL     1      33.710 -13.860 -27.141  0.00  0.00    -0.313 N 
ATOM      6  C   UNL     1      33.605 -15.791 -22.901  0.00  0.00    +0.022 C 
ATOM      7  C   UNL     1      33.251 -14.596 -23.541  0.00  0.00    +0.063 C 
ATOM      8  C   UNL     1      34.174 -16.655 -23.919  0.00  0.00    +0.090 C 
ATOM      9  C   UNL     1      34.153 -15.929 -25.225  0.00  0.00    +0.263 C 
ATOM     10  C   UNL     1      33.397 -15.983 -21.543  0.00  0.00    +0.013 C 
ATOM     11  C   UNL     1      34.653 -17.894 -23.785  0.00  0.00    +0.144 C 
ATOM     12  C   UNL     1      32.673 -13.564 -22.813  0.00  0.00    +0.016 C 
ATOM     13  C   UNL     1      32.817 -14.948 -20.813  0.00  0.00    +0.058 C 
ATOM     14  C   UNL     1      32.459 -13.749 -21.442  0.00  0.00    +0.013 C 
ATOM     15  C   UNL     1      33.325 -13.594 -25.837  0.00  0.00    +0.311 C 
ATOM     16  H   UNL     1      33.579 -13.179 -27.840  0.00  0.00    +0.147 HD
ATOM     17  H   UNL     1      34.113 -14.728 -27.368  0.00  0.00    +0.147 HD
ENDROOT
BRANCH  11  19
ATOM     18  S   UNL     1      36.103 -18.594 -21.548  0.00  0.00    -0.083 S 
ATOM     19  C   UNL     1      34.681 -18.624 -22.500  0.00  0.00    +0.063 C 
ATOM     20  C   UNL     1      33.682 -19.371 -21.914  0.00  0.00    +0.010 C 
ATOM     21  C   UNL     1      34.090 -19.925 -20.667  0.00  0.00    +0.008 C 
ATOM     22  C   UNL     1      35.385 -19.581 -20.346  0.00  0.00    +0.036 C 
ENDBRANCH  11  19
BRANCH  11  23
ATOM     23  O   UNL     1      35.189 -18.594 -24.853  0.00  0.00    -0.505 OA
ATOM     24  H   UNL     1      35.218 -19.530 -24.832  0.00  0.00    +0.292 HD
ENDBRANCH  11  23
TORSDOF 2
ENDMDL
MODEL 9
REMARK VINA RESULT:      -6.9     10.112     12.921
REMARK  Name = 54683953
REMARK  2 active torsions:
REMARK  status: ('A' for Active; 'I' for Inactive)
REMARK    1  A    between atoms: C_11  and  C_19
REMARK    2  A    between atoms: C_11  and  O_23
REMARK                            x       y       z     vdW  Elec       q    Type
REMARK                         _______ _______ _______ _____ _____    ______ ____
ROOT
ATOM      1 CL   UNL     1      32.945 -12.924 -27.239  0.00  0.00    -0.082 Cl
ATOM      2  O   UNL     1      33.609 -15.858 -20.324  0.00  0.00    -0.269 OA
ATOM      3  O   UNL     1      34.784 -18.499 -23.516  0.00  0.00    -0.252 OA
ATOM      4  N   UNL     1      33.978 -16.476 -22.615  0.00  0.00    -0.189 N 
ATOM      5  N   UNL     1      34.574 -18.305 -21.266  0.00  0.00    -0.313 N 
ATOM      6  C   UNL     1      33.296 -14.475 -23.593  0.00  0.00    +0.022 C 
ATOM      7  C   UNL     1      33.789 -15.763 -23.842  0.00  0.00    +0.063 C 
ATOM      8  C   UNL     1      33.162 -14.352 -22.152  0.00  0.00    +0.090 C 
ATOM      9  C   UNL     1      33.599 -15.634 -21.522  0.00  0.00    +0.263 C 
ATOM     10  C   UNL     1      33.028 -13.583 -24.621  0.00  0.00    +0.013 C 
ATOM     11  C   UNL     1      32.729 -13.305 -21.445  0.00  0.00    +0.144 C 
ATOM     12  C   UNL     1      34.022 -16.177 -25.146  0.00  0.00    +0.016 C 
ATOM     13  C   UNL     1      33.262 -13.998 -25.930  0.00  0.00    +0.058 C 
ATOM     14  C   UNL     1      33.755 -15.284 -26.191  0.00  0.00    +0.013 C 
ATOM     15  C   UNL     1      34.467 -17.802 -22.552  0.00  0.00    +0.311 C 
ATOM     16  H   UNL     1      34.905 -19.221 -21.122  0.00  0.00    +0.147 HD
ATOM     17  H   UNL     1      34.319 -17.746 -20.496  0.00  0.00    +0.147 HD
ENDROOT
BRANCH  11  19
ATOM     18  S   UNL     1      30.781 -11.362 -21.610  0.00  0.00    -0.083 S 
ATOM     19  C   UNL     1      32.294 -12.031 -22.054  0.00  0.00    +0.063 C 
ATOM     20  C   UNL     1      32.952 -11.250 -22.979  0.00  0.00    +0.010 C 
ATOM     21  C   UNL     1      32.206 -10.088 -23.327  0.00  0.00    +0.008 C 
ATOM     22  C   UNL     1      31.006 -10.023 -22.655  0.00  0.00    +0.036 C 
ENDBRANCH  11  19
BRANCH  11  23
ATOM     23  O   UNL     1      32.674 -13.327 -20.061  0.00  0.00    -0.505 OA
ATOM     24  H   UNL     1      33.055 -14.041 -19.589  0.00  0.00    +0.292 HD
ENDBRANCH  11  23
TORSDOF 2
ENDMDL
