MODEL 1
REMARK VINA RESULT:     -10.6      0.000      0.000
REMARK  Name = 21022
REMARK  7 active torsions:
REMARK  status: ('A' for Active; 'I' for Inactive)
REMARK    1  A    between atoms: C_4  and  C_22
REMARK    2  A    between atoms: C_6  and  C_20
REMARK    3  A    between atoms: C_13  and  O_16
REMARK    4  A    between atoms: C_14  and  O_18
REMARK    5  A    between atoms: C_22  and  C_24
REMARK    6  A    between atoms: C_31  and  O_35
REMARK    7  A    between atoms: C_32  and  O_37
REMARK                            x       y       z     vdW  Elec       q    Type
REMARK                         _______ _______ _______ _____ _____    ______ ____
ROOT
ATOM      1  N   UNL     1      32.843 -13.436 -20.857  0.00  0.00    +0.394 N 
ATOM      2  C   UNL     1      32.309 -13.533 -22.232  0.00  0.00    -0.030 C 
ATOM      3  C   UNL     1      32.336 -12.106 -22.829  0.00  0.00    +0.005 C 
ATOM      4  C   UNL     1      31.791 -11.031 -21.908  0.00  0.00    -0.058 C 
ATOM      5  C   UNL     1      31.944 -12.637 -20.011  0.00  0.00    -0.054 C 
ATOM      6  C   UNL     1      31.574 -11.291 -20.602  0.00  0.00    -0.073 C 
ATOM      7  C   UNL     1      33.067 -14.759 -20.271  0.00  0.00    -0.072 C 
ATOM      8  C   UNL     1      33.062 -14.535 -23.106  0.00  0.00    -0.042 C 
ATOM      9  C   UNL     1      34.182 -15.467 -21.038  0.00  0.00    +0.003 C 
ATOM     10  C   UNL     1      33.934 -15.474 -22.523  0.00  0.00    -0.027 C 
ATOM     11  C   UNL     1      32.843 -14.593 -24.492  0.00  0.00    +0.033 C 
ATOM     12  C   UNL     1      34.613 -16.399 -23.329  0.00  0.00    +0.035 C 
ATOM     13  C   UNL     1      33.512 -15.527 -25.286  0.00  0.00    +0.172 C 
ATOM     14  C   UNL     1      34.401 -16.425 -24.705  0.00  0.00    +0.172 C 
ATOM     15  H   UNL     1      33.746 -12.966 -20.907  0.00  0.00    -0.079 HD
ENDROOT
BRANCH  13  16
ATOM     16  O   UNL     1      33.283 -15.550 -26.628  0.00  0.00    -0.468 OA
ATOM     17  C   UNL     1      33.069 -14.295 -27.271  0.00  0.00    +0.253 C 
ENDBRANCH  13  16
BRANCH  14  18
ATOM     18  O   UNL     1      35.065 -17.336 -25.469  0.00  0.00    -0.468 OA
ATOM     19  C   UNL     1      34.903 -18.711 -25.125  0.00  0.00    +0.253 C 
ENDBRANCH  14  18
BRANCH   6  20
ATOM     20  C   UNL     1      30.959 -10.338 -19.615  0.00  0.00    +0.019 C 
ATOM     21  C   UNL     1      31.962  -9.309 -19.136  0.00  0.00    +0.005 C 
ENDBRANCH   6  20
BRANCH   4  22
ATOM     22  C   UNL     1      31.539  -9.712 -22.587  0.00  0.00    +0.004 C 
BRANCH  22  24
ATOM     23  N   UNL     1      33.718  -9.768 -23.616  0.00  0.00    +0.388 N 
ATOM     24  C   UNL     1      32.840  -8.923 -22.784  0.00  0.00    -0.035 C 
ATOM     25  C   UNL     1      32.615  -7.534 -23.366  0.00  0.00    -0.043 C 
ATOM     26  C   UNL     1      34.931  -9.054 -24.001  0.00  0.00    -0.076 C 
ATOM     27  C   UNL     1      33.466  -7.041 -24.375  0.00  0.00    -0.027 C 
ATOM     28  C   UNL     1      34.569  -7.903 -24.934  0.00  0.00    +0.003 C 
ATOM     29  C   UNL     1      31.613  -6.687 -22.861  0.00  0.00    +0.033 C 
ATOM     30  C   UNL     1      33.268  -5.755 -24.899  0.00  0.00    +0.035 C 
ATOM     31  C   UNL     1      31.431  -5.404 -23.380  0.00  0.00    +0.172 C 
ATOM     32  C   UNL     1      32.252  -4.941 -24.402  0.00  0.00    +0.172 C 
ATOM     33  H   UNL     1      33.212 -10.043 -24.459  0.00  0.00    -0.084 HD
ATOM     34  H   UNL     1      33.986 -10.588 -23.072  0.00  0.00    -0.084 HD
BRANCH  31  35
ATOM     35  O   UNL     1      30.443  -4.614 -22.874  0.00  0.00    -0.468 OA
ATOM     36  C   UNL     1      30.069  -4.833 -21.515  0.00  0.00    +0.253 C 
ENDBRANCH  31  35
BRANCH  32  37
ATOM     37  O   UNL     1      32.080  -3.693 -24.920  0.00  0.00    -0.468 OA
ATOM     38  C   UNL     1      31.980  -3.588 -26.339  0.00  0.00    +0.253 C 
ENDBRANCH  32  37
ENDBRANCH  22  24
ENDBRANCH   4  22
TORSDOF 7
ENDMDL
MODEL 2
REMARK VINA RESULT:      -9.9      4.476     11.347
REMARK  Name = 21022
REMARK  7 active torsions:
REMARK  status: ('A' for Active; 'I' for Inactive)
REMARK    1  A    between atoms: C_4  and  C_22
REMARK    2  A    between atoms: C_6  and  C_20
REMARK    3  A    between atoms: C_13  and  O_16
REMARK    4  A    between atoms: C_14  and  O_18
REMARK    5  A    between atoms: C_22  and  C_24
REMARK    6  A    between atoms: C_31  and  O_35
REMARK    7  A    between atoms: C_32  and  O_37
REMARK                            x       y       z     vdW  Elec       q    Type
REMARK                         _______ _______ _______ _____ _____    ______ ____
ROOT
ATOM      1  N   UNL     1      33.937 -14.430 -24.211  0.00  0.00    +0.394 N 
ATOM      2  C   UNL     1      32.887 -14.331 -23.176  0.00  0.00    -0.030 C 
ATOM      3  C   UNL     1      33.343 -15.205 -21.984  0.00  0.00    +0.005 C 
ATOM      4  C   UNL     1      33.859 -16.577 -22.372  0.00  0.00    -0.058 C 
ATOM      5  C   UNL     1      34.017 -15.803 -24.734  0.00  0.00    -0.054 C 
ATOM      6  C   UNL     1      34.137 -16.866 -23.660  0.00  0.00    -0.073 C 
ATOM      7  C   UNL     1      33.716 -13.474 -25.297  0.00  0.00    -0.072 C 
ATOM      8  C   UNL     1      32.585 -12.895 -22.754  0.00  0.00    -0.042 C 
ATOM      9  C   UNL     1      33.879 -12.054 -24.758  0.00  0.00    +0.003 C 
ATOM     10  C   UNL     1      33.040 -11.813 -23.532  0.00  0.00    -0.027 C 
ATOM     11  C   UNL     1      31.786 -12.624 -21.631  0.00  0.00    +0.033 C 
ATOM     12  C   UNL     1      32.750 -10.497 -23.145  0.00  0.00    +0.035 C 
ATOM     13  C   UNL     1      31.489 -11.310 -21.260  0.00  0.00    +0.172 C 
ATOM     14  C   UNL     1      31.976 -10.248 -22.014  0.00  0.00    +0.172 C 
ATOM     15  H   UNL     1      34.828 -14.197 -23.773  0.00  0.00    -0.079 HD
ENDROOT
BRANCH  13  16
ATOM     16  O   UNL     1      30.719 -11.083 -20.161  0.00  0.00    -0.468 OA
ATOM     17  C   UNL     1      31.397 -10.919 -18.917  0.00  0.00    +0.253 C 
ENDBRANCH  13  16
BRANCH  14  18
ATOM     18  O   UNL     1      31.699  -8.962 -21.660  0.00  0.00    -0.468 OA
ATOM     19  C   UNL     1      32.763  -8.203 -21.087  0.00  0.00    +0.253 C 
ENDBRANCH  14  18
BRANCH   6  20
ATOM     20  C   UNL     1      34.569 -18.211 -24.177  0.00  0.00    +0.019 C 
ATOM     21  C   UNL     1      33.772 -18.620 -25.398  0.00  0.00    +0.005 C 
ENDBRANCH   6  20
BRANCH   4  22
ATOM     22  C   UNL     1      34.016 -17.523 -21.213  0.00  0.00    +0.004 C 
BRANCH  22  24
ATOM     23  N   UNL     1      36.362 -17.986 -21.506  0.00  0.00    +0.388 N 
ATOM     24  C   UNL     1      35.034 -18.628 -21.522  0.00  0.00    -0.035 C 
ATOM     25  C   UNL     1      34.930 -19.819 -20.579  0.00  0.00    -0.043 C 
ATOM     26  C   UNL     1      37.429 -18.973 -21.636  0.00  0.00    -0.076 C 
ATOM     27  C   UNL     1      36.096 -20.422 -20.067  0.00  0.00    -0.027 C 
ATOM     28  C   UNL     1      37.456 -19.859 -20.394  0.00  0.00    +0.003 C 
ATOM     29  C   UNL     1      33.686 -20.390 -20.263  0.00  0.00    +0.033 C 
ATOM     30  C   UNL     1      36.000 -21.528 -19.210  0.00  0.00    +0.035 C 
ATOM     31  C   UNL     1      33.600 -21.499 -19.419  0.00  0.00    +0.172 C 
ATOM     32  C   UNL     1      34.754 -22.063 -18.888  0.00  0.00    +0.172 C 
ATOM     33  H   UNL     1      36.478 -17.485 -20.625  0.00  0.00    -0.084 HD
ATOM     34  H   UNL     1      36.419 -17.345 -22.297  0.00  0.00    -0.084 HD
BRANCH  31  35
ATOM     35  O   UNL     1      32.376 -22.022 -19.126  0.00  0.00    -0.468 OA
ATOM     36  C   UNL     1      32.035 -22.139 -17.746  0.00  0.00    +0.253 C 
ENDBRANCH  31  35
BRANCH  32  37
ATOM     37  O   UNL     1      34.683 -23.143 -18.060  0.00  0.00    -0.468 OA
ATOM     38  C   UNL     1      35.136 -22.963 -16.719  0.00  0.00    +0.253 C 
ENDBRANCH  32  37
ENDBRANCH  22  24
ENDBRANCH   4  22
TORSDOF 7
ENDMDL
MODEL 3
REMARK VINA RESULT:      -9.7      2.015      9.339
REMARK  Name = 21022
REMARK  7 active torsions:
REMARK  status: ('A' for Active; 'I' for Inactive)
REMARK    1  A    between atoms: C_4  and  C_22
REMARK    2  A    between atoms: C_6  and  C_20
REMARK    3  A    between atoms: C_13  and  O_16
REMARK    4  A    between atoms: C_14  and  O_18
REMARK    5  A    between atoms: C_22  and  C_24
REMARK    6  A    between atoms: C_31  and  O_35
REMARK    7  A    between atoms: C_32  and  O_37
REMARK                            x       y       z     vdW  Elec       q    Type
REMARK                         _______ _______ _______ _____ _____    ______ ____
ROOT
ATOM      1  N   UNL     1      31.611  -8.310 -23.402  0.00  0.00    +0.394 N 
ATOM      2  C   UNL     1      33.016  -8.004 -23.743  0.00  0.00    -0.030 C 
ATOM      3  C   UNL     1      33.621  -9.289 -24.357  0.00  0.00    +0.005 C 
ATOM      4  C   UNL     1      33.317 -10.558 -23.584  0.00  0.00    -0.058 C 
ATOM      5  C   UNL     1      31.548  -9.324 -22.338  0.00  0.00    -0.054 C 
ATOM      6  C   UNL     1      32.376 -10.563 -22.617  0.00  0.00    -0.073 C 
ATOM      7  C   UNL     1      30.876  -7.105 -23.013  0.00  0.00    -0.072 C 
ATOM      8  C   UNL     1      33.166  -6.799 -24.670  0.00  0.00    -0.042 C 
ATOM      9  C   UNL     1      30.756  -6.177 -24.221  0.00  0.00    +0.003 C 
ATOM     10  C   UNL     1      32.089  -5.915 -24.870  0.00  0.00    -0.027 C 
ATOM     11  C   UNL     1      34.398  -6.503 -25.277  0.00  0.00    +0.033 C 
ATOM     12  C   UNL     1      32.237  -4.804 -25.712  0.00  0.00    +0.035 C 
ATOM     13  C   UNL     1      34.542  -5.386 -26.103  0.00  0.00    +0.172 C 
ATOM     14  C   UNL     1      33.460  -4.541 -26.325  0.00  0.00    +0.172 C 
ATOM     15  H   UNL     1      31.163  -8.687 -24.237  0.00  0.00    -0.079 HD
ENDROOT
BRANCH  13  16
ATOM     16  O   UNL     1      35.748  -5.134 -26.683  0.00  0.00    -0.468 OA
ATOM     17  C   UNL     1      35.795  -5.138 -28.108  0.00  0.00    +0.253 C 
ENDBRANCH  13  16
BRANCH  14  18
ATOM     18  O   UNL     1      33.585  -3.452 -27.133  0.00  0.00    -0.468 OA
ATOM     19  C   UNL     1      32.434  -3.065 -27.883  0.00  0.00    +0.253 C 
ENDBRANCH  14  18
BRANCH   6  20
ATOM     20  C   UNL     1      32.049 -11.731 -21.727  0.00  0.00    +0.019 C 
ATOM     21  C   UNL     1      31.393 -11.281 -20.438  0.00  0.00    +0.005 C 
ENDBRANCH   6  20
BRANCH   4  22
ATOM     22  C   UNL     1      34.143 -11.743 -24.003  0.00  0.00    +0.004 C 
BRANCH  22  24
ATOM     23  N   UNL     1      33.217 -12.588 -26.061  0.00  0.00    +0.388 N 
ATOM     24  C   UNL     1      33.271 -12.850 -24.610  0.00  0.00    -0.035 C 
ATOM     25  C   UNL     1      33.760 -14.252 -24.269  0.00  0.00    -0.043 C 
ATOM     26  C   UNL     1      32.539 -13.669 -26.769  0.00  0.00    -0.076 C 
ATOM     27  C   UNL     1      33.778 -15.256 -25.258  0.00  0.00    -0.027 C 
ATOM     28  C   UNL     1      33.376 -14.942 -26.676  0.00  0.00    +0.003 C 
ATOM     29  C   UNL     1      34.124 -14.596 -22.957  0.00  0.00    +0.033 C 
ATOM     30  C   UNL     1      34.214 -16.551 -24.939  0.00  0.00    +0.035 C 
ATOM     31  C   UNL     1      34.545 -15.890 -22.646  0.00  0.00    +0.172 C 
ATOM     32  C   UNL     1      34.597 -16.864 -23.637  0.00  0.00    +0.172 C 
ATOM     33  H   UNL     1      34.168 -12.502 -26.418  0.00  0.00    -0.084 HD
ATOM     34  H   UNL     1      32.693 -11.726 -26.213  0.00  0.00    -0.084 HD
BRANCH  31  35
ATOM     35  O   UNL     1      34.901 -16.187 -21.365  0.00  0.00    -0.468 OA
ATOM     36  C   UNL     1      34.549 -15.241 -20.358  0.00  0.00    +0.253 C 
ENDBRANCH  31  35
BRANCH  32  37
ATOM     37  O   UNL     1      35.010 -18.130 -23.346  0.00  0.00    -0.468 OA
ATOM     38  C   UNL     1      34.677 -19.152 -24.285  0.00  0.00    +0.253 C 
ENDBRANCH  32  37
ENDBRANCH  22  24
ENDBRANCH   4  22
TORSDOF 7
ENDMDL
MODEL 4
REMARK VINA RESULT:      -9.2      2.829      9.163
REMARK  Name = 21022
REMARK  7 active torsions:
REMARK  status: ('A' for Active; 'I' for Inactive)
REMARK    1  A    between atoms: C_4  and  C_22
REMARK    2  A    between atoms: C_6  and  C_20
REMARK    3  A    between atoms: C_13  and  O_16
REMARK    4  A    between atoms: C_14  and  O_18
REMARK    5  A    between atoms: C_22  and  C_24
REMARK    6  A    between atoms: C_31  and  O_35
REMARK    7  A    between atoms: C_32  and  O_37
REMARK                            x       y       z     vdW  Elec       q    Type
REMARK                         _______ _______ _______ _____ _____    ______ ____
ROOT
ATOM      1  N   UNL     1      32.090  -5.750 -24.029  0.00  0.00    +0.394 N 
ATOM      2  C   UNL     1      33.405  -5.721 -24.704  0.00  0.00    -0.030 C 
ATOM      3  C   UNL     1      33.869  -7.190 -24.851  0.00  0.00    +0.005 C 
ATOM      4  C   UNL     1      33.710  -8.027 -23.597  0.00  0.00    -0.058 C 
ATOM      5  C   UNL     1      32.227  -6.260 -22.657  0.00  0.00    -0.054 C 
ATOM      6  C   UNL     1      32.975  -7.575 -22.559  0.00  0.00    -0.073 C 
ATOM      7  C   UNL     1      31.455  -4.431 -24.030  0.00  0.00    -0.072 C 
ATOM      8  C   UNL     1      33.383  -4.989 -26.044  0.00  0.00    -0.042 C 
ATOM      9  C   UNL     1      31.111  -4.039 -25.466  0.00  0.00    +0.003 C 
ATOM     10  C   UNL     1      32.294  -4.165 -26.388  0.00  0.00    -0.027 C 
ATOM     11  C   UNL     1      34.476  -5.058 -26.924  0.00  0.00    +0.033 C 
ATOM     12  C   UNL     1      32.286  -3.486 -27.614  0.00  0.00    +0.035 C 
ATOM     13  C   UNL     1      34.466  -4.367 -28.138  0.00  0.00    +0.172 C 
ATOM     14  C   UNL     1      33.368  -3.587 -28.485  0.00  0.00    +0.172 C 
ATOM     15  H   UNL     1      31.486  -6.382 -24.553  0.00  0.00    -0.079 HD
ENDROOT
BRANCH  13  16
ATOM     16  O   UNL     1      35.538  -4.463 -28.971  0.00  0.00    -0.468 OA
ATOM     17  C   UNL     1      36.718  -5.064 -28.442  0.00  0.00    +0.253 C 
ENDBRANCH  13  16
BRANCH  14  18
ATOM     18  O   UNL     1      33.343  -2.912 -29.668  0.00  0.00    -0.468 OA
ATOM     19  C   UNL     1      32.144  -2.208 -29.988  0.00  0.00    +0.253 C 
ENDBRANCH  14  18
BRANCH   6  20
ATOM     20  C   UNL     1      32.817  -8.273 -21.236  0.00  0.00    +0.019 C 
ATOM     21  C   UNL     1      32.578  -7.286 -20.112  0.00  0.00    +0.005 C 
ENDBRANCH   6  20
BRANCH   4  22
ATOM     22  C   UNL     1      34.429  -9.347 -23.646  0.00  0.00    +0.004 C 
BRANCH  22  24
ATOM     23  N   UNL     1      34.493 -10.739 -25.612  0.00  0.00    +0.388 N 
ATOM     24  C   UNL     1      33.644 -10.385 -24.458  0.00  0.00    -0.035 C 
ATOM     25  C   UNL     1      33.218 -11.592 -23.634  0.00  0.00    -0.043 C 
ATOM     26  C   UNL     1      33.915 -11.838 -26.378  0.00  0.00    -0.076 C 
ATOM     27  C   UNL     1      33.329 -12.892 -24.169  0.00  0.00    -0.027 C 
ATOM     28  C   UNL     1      33.929 -13.109 -25.534  0.00  0.00    +0.003 C 
ATOM     29  C   UNL     1      32.633 -11.437 -22.366  0.00  0.00    +0.033 C 
ATOM     30  C   UNL     1      32.920 -14.001 -23.414  0.00  0.00    +0.035 C 
ATOM     31  C   UNL     1      32.218 -12.547 -21.627  0.00  0.00    +0.172 C 
ATOM     32  C   UNL     1      32.368 -13.827 -22.147  0.00  0.00    +0.172 C 
ATOM     33  H   UNL     1      35.414 -11.017 -25.274  0.00  0.00    -0.084 HD
ATOM     34  H   UNL     1      34.563  -9.924 -26.222  0.00  0.00    -0.084 HD
BRANCH  31  35
ATOM     35  O   UNL     1      31.665 -12.360 -20.396  0.00  0.00    -0.468 OA
ATOM     36  C   UNL     1      30.978 -11.130 -20.173  0.00  0.00    +0.253 C 
ENDBRANCH  31  35
BRANCH  32  37
ATOM     37  O   UNL     1      31.971 -14.918 -21.434  0.00  0.00    -0.468 OA
ATOM     38  C   UNL     1      32.994 -15.692 -20.809  0.00  0.00    +0.253 C 
ENDBRANCH  32  37
ENDBRANCH  22  24
ENDBRANCH   4  22
TORSDOF 7
ENDMDL
MODEL 5
REMARK VINA RESULT:      -8.5      2.318      3.897
REMARK  Name = 21022
REMARK  7 active torsions:
REMARK  status: ('A' for Active; 'I' for Inactive)
REMARK    1  A    between atoms: C_4  and  C_22
REMARK    2  A    between atoms: C_6  and  C_20
REMARK    3  A    between atoms: C_13  and  O_16
REMARK    4  A    between atoms: C_14  and  O_18
REMARK    5  A    between atoms: C_22  and  C_24
REMARK    6  A    between atoms: C_31  and  O_35
REMARK    7  A    between atoms: C_32  and  O_37
REMARK                            x       y       z     vdW  Elec       q    Type
REMARK                         _______ _______ _______ _____ _____    ______ ____
ROOT
ATOM      1  N   UNL     1      32.325 -10.616 -21.353  0.00  0.00    +0.394 N 
ATOM      2  C   UNL     1      32.318 -10.807 -22.819  0.00  0.00    -0.030 C 
ATOM      3  C   UNL     1      33.238  -9.718 -23.420  0.00  0.00    +0.005 C 
ATOM      4  C   UNL     1      33.010  -8.326 -22.864  0.00  0.00    -0.058 C 
ATOM      5  C   UNL     1      31.702  -9.332 -20.998  0.00  0.00    -0.054 C 
ATOM      6  C   UNL     1      32.262  -8.144 -21.755  0.00  0.00    -0.073 C 
ATOM      7  C   UNL     1      31.660 -11.723 -20.663  0.00  0.00    -0.072 C 
ATOM      8  C   UNL     1      32.734 -12.212 -23.249  0.00  0.00    -0.042 C 
ATOM      9  C   UNL     1      32.474 -13.001 -20.860  0.00  0.00    +0.003 C 
ATOM     10  C   UNL     1      32.778 -13.261 -22.311  0.00  0.00    -0.027 C 
ATOM     11  C   UNL     1      33.004 -12.506 -24.596  0.00  0.00    +0.033 C 
ATOM     12  C   UNL     1      33.149 -14.552 -22.715  0.00  0.00    +0.035 C 
ATOM     13  C   UNL     1      33.358 -13.797 -24.993  0.00  0.00    +0.172 C 
ATOM     14  C   UNL     1      33.437 -14.818 -24.051  0.00  0.00    +0.172 C 
ATOM     15  H   UNL     1      33.297 -10.603 -21.046  0.00  0.00    -0.079 HD
ENDROOT
BRANCH  13  16
ATOM     16  O   UNL     1      33.621 -14.045 -26.306  0.00  0.00    -0.468 OA
ATOM     17  C   UNL     1      33.159 -13.083 -27.252  0.00  0.00    +0.253 C 
ENDBRANCH  13  16
BRANCH  14  18
ATOM     18  O   UNL     1      33.787 -16.080 -24.424  0.00  0.00    -0.468 OA
ATOM     19  C   UNL     1      34.892 -16.674 -23.744  0.00  0.00    +0.253 C 
ENDBRANCH  14  18
BRANCH   6  20
ATOM     20  C   UNL     1      31.895  -6.812 -21.162  0.00  0.00    +0.019 C 
ATOM     21  C   UNL     1      32.628  -6.561 -19.861  0.00  0.00    +0.005 C 
ENDBRANCH   6  20
BRANCH   4  22
ATOM     22  C   UNL     1      33.682  -7.234 -23.651  0.00  0.00    +0.004 C 
BRANCH  22  24
ATOM     23  N   UNL     1      31.588  -6.076 -23.936  0.00  0.00    +0.388 N 
ATOM     24  C   UNL     1      32.733  -6.624 -24.690  0.00  0.00    -0.035 C 
ATOM     25  C   UNL     1      33.409  -5.596 -25.587  0.00  0.00    -0.043 C 
ATOM     26  C   UNL     1      30.689  -5.329 -24.809  0.00  0.00    -0.076 C 
ATOM     27  C   UNL     1      32.750  -4.393 -25.910  0.00  0.00    -0.027 C 
ATOM     28  C   UNL     1      31.398  -4.079 -25.322  0.00  0.00    +0.003 C 
ATOM     29  C   UNL     1      34.659  -5.854 -26.175  0.00  0.00    +0.033 C 
ATOM     30  C   UNL     1      33.367  -3.454 -26.750  0.00  0.00    +0.035 C 
ATOM     31  C   UNL     1      35.260  -4.919 -27.020  0.00  0.00    +0.172 C 
ATOM     32  C   UNL     1      34.619  -3.718 -27.301  0.00  0.00    +0.172 C 
ATOM     33  H   UNL     1      31.938  -5.453 -23.208  0.00  0.00    -0.084 HD
ATOM     34  H   UNL     1      31.069  -6.854 -23.529  0.00  0.00    -0.084 HD
BRANCH  31  35
ATOM     35  O   UNL     1      36.478  -5.198 -27.565  0.00  0.00    -0.468 OA
ATOM     36  C   UNL     1      36.527  -5.388 -28.977  0.00  0.00    +0.253 C 
ENDBRANCH  31  35
BRANCH  32  37
ATOM     37  O   UNL     1      35.199  -2.796 -28.120  0.00  0.00    -0.468 OA
ATOM     38  C   UNL     1      35.994  -1.787 -27.500  0.00  0.00    +0.253 C 
ENDBRANCH  32  37
ENDBRANCH  22  24
ENDBRANCH   4  22
TORSDOF 7
ENDMDL
MODEL 6
REMARK VINA RESULT:      -8.4      3.681     10.796
REMARK  Name = 21022
REMARK  7 active torsions:
REMARK  status: ('A' for Active; 'I' for Inactive)
REMARK    1  A    between atoms: C_4  and  C_22
REMARK    2  A    between atoms: C_6  and  C_20
REMARK    3  A    between atoms: C_13  and  O_16
REMARK    4  A    between atoms: C_14  and  O_18
REMARK    5  A    between atoms: C_22  and  C_24
REMARK    6  A    between atoms: C_31  and  O_35
REMARK    7  A    between atoms: C_32  and  O_37
REMARK                            x       y       z     vdW  Elec       q    Type
REMARK                         _______ _______ _______ _____ _____    ______ ____
ROOT
ATOM      1  N   UNL     1      34.023 -13.933 -25.374  0.00  0.00    +0.394 N 
ATOM      2  C   UNL     1      33.363 -13.820 -24.057  0.00  0.00    -0.030 C 
ATOM      3  C   UNL     1      34.258 -14.566 -23.038  0.00  0.00    +0.005 C 
ATOM      4  C   UNL     1      34.736 -15.928 -23.501  0.00  0.00    -0.058 C 
ATOM      5  C   UNL     1      34.047 -15.334 -25.820  0.00  0.00    -0.054 C 
ATOM      6  C   UNL     1      34.603 -16.300 -24.792  0.00  0.00    -0.073 C 
ATOM      7  C   UNL     1      33.377 -13.082 -26.375  0.00  0.00    -0.072 C 
ATOM      8  C   UNL     1      33.093 -12.378 -23.635  0.00  0.00    -0.042 C 
ATOM      9  C   UNL     1      33.582 -11.616 -25.997  0.00  0.00    +0.003 C 
ATOM     10  C   UNL     1      33.172 -11.334 -24.577  0.00  0.00    -0.027 C 
ATOM     11  C   UNL     1      32.684 -12.071 -22.327  0.00  0.00    +0.033 C 
ATOM     12  C   UNL     1      32.911 -10.013 -24.186  0.00  0.00    +0.035 C 
ATOM     13  C   UNL     1      32.411 -10.754 -21.950  0.00  0.00    +0.172 C 
ATOM     14  C   UNL     1      32.531  -9.725 -22.878  0.00  0.00    +0.172 C 
ATOM     15  H   UNL     1      34.984 -13.608 -25.269  0.00  0.00    -0.079 HD
ENDROOT
BRANCH  13  16
ATOM     16  O   UNL     1      32.024 -10.491 -20.670  0.00  0.00    -0.468 OA
ATOM     17  C   UNL     1      31.596 -11.600 -19.883  0.00  0.00    +0.253 C 
ENDBRANCH  13  16
BRANCH  14  18
ATOM     18  O   UNL     1      32.273  -8.436 -22.521  0.00  0.00    -0.468 OA
ATOM     19  C   UNL     1      31.377  -7.700 -23.352  0.00  0.00    +0.253 C 
ENDBRANCH  14  18
BRANCH   6  20
ATOM     20  C   UNL     1      34.958 -17.651 -25.350  0.00  0.00    +0.019 C 
ATOM     21  C   UNL     1      34.052 -18.734 -24.802  0.00  0.00    +0.005 C 
ENDBRANCH   6  20
BRANCH   4  22
ATOM     22  C   UNL     1      35.345 -16.768 -22.411  0.00  0.00    +0.004 C 
BRANCH  22  24
ATOM     23  N   UNL     1      33.121 -16.278 -21.623  0.00  0.00    +0.388 N 
ATOM     24  C   UNL     1      34.372 -16.963 -21.242  0.00  0.00    -0.035 C 
ATOM     25  C   UNL     1      34.167 -18.426 -20.871  0.00  0.00    -0.043 C 
ATOM     26  C   UNL     1      32.064 -16.528 -20.649  0.00  0.00    -0.076 C 
ATOM     27  C   UNL     1      32.877 -18.909 -20.576  0.00  0.00    -0.027 C 
ATOM     28  C   UNL     1      31.677 -18.003 -20.685  0.00  0.00    +0.003 C 
ATOM     29  C   UNL     1      35.258 -19.301 -20.737  0.00  0.00    +0.033 C 
ATOM     30  C   UNL     1      32.692 -20.253 -20.219  0.00  0.00    +0.035 C 
ATOM     31  C   UNL     1      35.066 -20.634 -20.369  0.00  0.00    +0.172 C 
ATOM     32  C   UNL     1      33.785 -21.111 -20.118  0.00  0.00    +0.172 C 
ATOM     33  H   UNL     1      32.821 -16.619 -22.535  0.00  0.00    -0.084 HD
ATOM     34  H   UNL     1      33.301 -15.274 -21.653  0.00  0.00    -0.084 HD
BRANCH  31  35
ATOM     35  O   UNL     1      36.145 -21.458 -20.258  0.00  0.00    -0.468 OA
ATOM     36  C   UNL     1      36.812 -21.487 -18.997  0.00  0.00    +0.253 C 
ENDBRANCH  31  35
BRANCH  32  37
ATOM     37  O   UNL     1      33.584 -22.412 -19.763  0.00  0.00    -0.468 OA
ATOM     38  C   UNL     1      33.404 -22.684 -18.374  0.00  0.00    +0.253 C 
ENDBRANCH  32  37
ENDBRANCH  22  24
ENDBRANCH   4  22
TORSDOF 7
ENDMDL
MODEL 7
REMARK VINA RESULT:      -8.3      1.439      8.996
REMARK  Name = 21022
REMARK  7 active torsions:
REMARK  status: ('A' for Active; 'I' for Inactive)
REMARK    1  A    between atoms: C_4  and  C_22
REMARK    2  A    between atoms: C_6  and  C_20
REMARK    3  A    between atoms: C_13  and  O_16
REMARK    4  A    between atoms: C_14  and  O_18
REMARK    5  A    between atoms: C_22  and  C_24
REMARK    6  A    between atoms: C_31  and  O_35
REMARK    7  A    between atoms: C_32  and  O_37
REMARK                            x       y       z     vdW  Elec       q    Type
REMARK                         _______ _______ _______ _____ _____    ______ ____
ROOT
ATOM      1  N   UNL     1      31.496  -7.700 -21.198  0.00  0.00    +0.394 N 
ATOM      2  C   UNL     1      32.392  -7.852 -22.363  0.00  0.00    -0.030 C 
ATOM      3  C   UNL     1      32.012  -9.183 -23.054  0.00  0.00    +0.005 C 
ATOM      4  C   UNL     1      31.839 -10.355 -22.108  0.00  0.00    -0.058 C 
ATOM      5  C   UNL     1      31.760  -8.751 -20.204  0.00  0.00    -0.054 C 
ATOM      6  C   UNL     1      31.759 -10.155 -20.775  0.00  0.00    -0.073 C 
ATOM      7  C   UNL     1      31.619  -6.372 -20.593  0.00  0.00    -0.072 C 
ATOM      8  C   UNL     1      32.340  -6.669 -23.328  0.00  0.00    -0.042 C 
ATOM      9  C   UNL     1      31.108  -5.321 -21.577  0.00  0.00    +0.003 C 
ATOM     10  C   UNL     1      31.749  -5.454 -22.933  0.00  0.00    -0.027 C 
ATOM     11  C   UNL     1      32.947  -6.740 -24.592  0.00  0.00    +0.033 C 
ATOM     12  C   UNL     1      31.715  -4.367 -23.818  0.00  0.00    +0.035 C 
ATOM     13  C   UNL     1      32.922  -5.648 -25.463  0.00  0.00    +0.172 C 
ATOM     14  C   UNL     1      32.300  -4.465 -25.078  0.00  0.00    +0.172 C 
ATOM     15  H   UNL     1      30.537  -7.798 -21.529  0.00  0.00    -0.079 HD
ENDROOT
BRANCH  13  16
ATOM     16  O   UNL     1      33.512  -5.754 -26.686  0.00  0.00    -0.468 OA
ATOM     17  C   UNL     1      34.795  -5.150 -26.840  0.00  0.00    +0.253 C 
ENDBRANCH  13  16
BRANCH  14  18
ATOM     18  O   UNL     1      32.264  -3.395 -25.920  0.00  0.00    -0.468 OA
ATOM     19  C   UNL     1      31.350  -2.348 -25.598  0.00  0.00    +0.253 C 
ENDBRANCH  14  18
BRANCH   6  20
ATOM     20  C   UNL     1      31.675 -11.239 -19.736  0.00  0.00    +0.019 C 
ATOM     21  C   UNL     1      31.346 -10.675 -18.369  0.00  0.00    +0.005 C 
ENDBRANCH   6  20
BRANCH   4  22
ATOM     22  C   UNL     1      31.768 -11.692 -22.794  0.00  0.00    +0.004 C 
BRANCH  22  24
ATOM     23  N   UNL     1      32.455 -13.127 -20.984  0.00  0.00    +0.388 N 
ATOM     24  C   UNL     1      32.878 -12.633 -22.308  0.00  0.00    -0.035 C 
ATOM     25  C   UNL     1      33.190 -13.750 -23.295  0.00  0.00    -0.043 C 
ATOM     26  C   UNL     1      33.363 -14.156 -20.487  0.00  0.00    -0.076 C 
ATOM     27  C   UNL     1      33.401 -15.065 -22.834  0.00  0.00    -0.027 C 
ATOM     28  C   UNL     1      33.259 -15.396 -21.370  0.00  0.00    +0.003 C 
ATOM     29  C   UNL     1      33.353 -13.486 -24.665  0.00  0.00    +0.033 C 
ATOM     30  C   UNL     1      33.703 -16.091 -23.742  0.00  0.00    +0.035 C 
ATOM     31  C   UNL     1      33.667 -14.510 -25.560  0.00  0.00    +0.172 C 
ATOM     32  C   UNL     1      33.834 -15.812 -25.101  0.00  0.00    +0.172 C 
ATOM     33  H   UNL     1      31.517 -13.520 -21.060  0.00  0.00    -0.084 HD
ATOM     34  H   UNL     1      32.467 -12.344 -20.330  0.00  0.00    -0.084 HD
BRANCH  31  35
ATOM     35  O   UNL     1      33.808 -14.220 -26.884  0.00  0.00    -0.468 OA
ATOM     36  C   UNL     1      33.111 -13.077 -27.375  0.00  0.00    +0.253 C 
ENDBRANCH  31  35
BRANCH  32  37
ATOM     37  O   UNL     1      34.136 -16.821 -25.966  0.00  0.00    -0.468 OA
ATOM     38  C   UNL     1      34.438 -18.094 -25.396  0.00  0.00    +0.253 C 
ENDBRANCH  32  37
ENDBRANCH  22  24
ENDBRANCH   4  22
TORSDOF 7
ENDMDL
MODEL 8
REMARK VINA RESULT:      -7.8      2.519      9.969
REMARK  Name = 21022
REMARK  7 active torsions:
REMARK  status: ('A' for Active; 'I' for Inactive)
REMARK    1  A    between atoms: C_4  and  C_22
REMARK    2  A    between atoms: C_6  and  C_20
REMARK    3  A    between atoms: C_13  and  O_16
REMARK    4  A    between atoms: C_14  and  O_18
REMARK    5  A    between atoms: C_22  and  C_24
REMARK    6  A    between atoms: C_31  and  O_35
REMARK    7  A    between atoms: C_32  and  O_37
REMARK                            x       y       z     vdW  Elec       q    Type
REMARK                         _______ _______ _______ _____ _____    ______ ____
ROOT
ATOM      1  N   UNL     1      34.273 -10.152 -24.718  0.00  0.00    +0.394 N 
ATOM      2  C   UNL     1      33.133 -10.422 -23.818  0.00  0.00    -0.030 C 
ATOM      3  C   UNL     1      33.233 -11.906 -23.394  0.00  0.00    +0.005 C 
ATOM      4  C   UNL     1      33.507 -12.868 -24.534  0.00  0.00    -0.058 C 
ATOM      5  C   UNL     1      34.143 -10.928 -25.961  0.00  0.00    -0.054 C 
ATOM      6  C   UNL     1      33.895 -12.407 -25.741  0.00  0.00    -0.073 C 
ATOM      7  C   UNL     1      34.403  -8.723 -25.011  0.00  0.00    -0.072 C 
ATOM      8  C   UNL     1      33.075  -9.483 -22.614  0.00  0.00    -0.042 C 
ATOM      9  C   UNL     1      34.776  -7.979 -23.730  0.00  0.00    +0.003 C 
ATOM     10  C   UNL     1      33.843  -8.303 -22.594  0.00  0.00    -0.027 C 
ATOM     11  C   UNL     1      32.201  -9.733 -21.543  0.00  0.00    +0.033 C 
ATOM     12  C   UNL     1      33.776  -7.439 -21.491  0.00  0.00    +0.035 C 
ATOM     13  C   UNL     1      32.130  -8.860 -20.456  0.00  0.00    +0.172 C 
ATOM     14  C   UNL     1      32.922  -7.718 -20.427  0.00  0.00    +0.172 C 
ATOM     15  H   UNL     1      35.124 -10.445 -24.239  0.00  0.00    -0.079 HD
ENDROOT
BRANCH  13  16
ATOM     16  O   UNL     1      31.278  -9.138 -19.430  0.00  0.00    -0.468 OA
ATOM     17  C   UNL     1      31.135 -10.508 -19.060  0.00  0.00    +0.253 C 
ENDBRANCH  13  16
BRANCH  14  18
ATOM     18  O   UNL     1      32.867  -6.861 -19.369  0.00  0.00    -0.468 OA
ATOM     19  C   UNL     1      32.287  -5.578 -19.603  0.00  0.00    +0.253 C 
ENDBRANCH  14  18
BRANCH   6  20
ATOM     20  C   UNL     1      34.111 -13.253 -26.967  0.00  0.00    +0.019 C 
ATOM     21  C   UNL     1      32.800 -13.762 -27.529  0.00  0.00    +0.005 C 
ENDBRANCH   6  20
BRANCH   4  22
ATOM     22  C   UNL     1      33.307 -14.315 -24.176  0.00  0.00    +0.004 C 
BRANCH  22  24
ATOM     23  N   UNL     1      32.614 -13.994 -21.891  0.00  0.00    +0.388 N 
ATOM     24  C   UNL     1      33.683 -14.591 -22.714  0.00  0.00    -0.035 C 
ATOM     25  C   UNL     1      33.912 -16.068 -22.424  0.00  0.00    -0.043 C 
ATOM     26  C   UNL     1      32.783 -14.328 -20.480  0.00  0.00    -0.076 C 
ATOM     27  C   UNL     1      33.405 -16.645 -21.243  0.00  0.00    -0.027 C 
ATOM     28  C   UNL     1      32.578 -15.827 -20.284  0.00  0.00    +0.003 C 
ATOM     29  C   UNL     1      34.695 -16.864 -23.277  0.00  0.00    +0.033 C 
ATOM     30  C   UNL     1      33.631 -18.002 -20.968  0.00  0.00    +0.035 C 
ATOM     31  C   UNL     1      34.925 -18.211 -22.990  0.00  0.00    +0.172 C 
ATOM     32  C   UNL     1      34.388 -18.781 -21.841  0.00  0.00    +0.172 C 
ATOM     33  H   UNL     1      31.712 -14.348 -22.210  0.00  0.00    -0.084 HD
ATOM     34  H   UNL     1      32.660 -12.980 -21.989  0.00  0.00    -0.084 HD
BRANCH  31  35
ATOM     35  O   UNL     1      35.681 -18.956 -23.844  0.00  0.00    -0.468 OA
ATOM     36  C   UNL     1      34.992 -19.652 -24.880  0.00  0.00    +0.253 C 
ENDBRANCH  31  35
BRANCH  32  37
ATOM     37  O   UNL     1      34.602 -20.096 -21.553  0.00  0.00    -0.468 OA
ATOM     38  C   UNL     1      35.388 -20.386 -20.398  0.00  0.00    +0.253 C 
ENDBRANCH  32  37
ENDBRANCH  22  24
ENDBRANCH   4  22
TORSDOF 7
ENDMDL
MODEL 9
REMARK VINA RESULT:      -7.6      2.583      5.019
REMARK  Name = 21022
REMARK  7 active torsions:
REMARK  status: ('A' for Active; 'I' for Inactive)
REMARK    1  A    between atoms: C_4  and  C_22
REMARK    2  A    between atoms: C_6  and  C_20
REMARK    3  A    between atoms: C_13  and  O_16
REMARK    4  A    between atoms: C_14  and  O_18
REMARK    5  A    between atoms: C_22  and  C_24
REMARK    6  A    between atoms: C_31  and  O_35
REMARK    7  A    between atoms: C_32  and  O_37
REMARK                            x       y       z     vdW  Elec       q    Type
REMARK                         _______ _______ _______ _____ _____    ______ ____
ROOT
ATOM      1  N   UNL     1      33.603 -15.748 -25.194  0.00  0.00    +0.394 N 
ATOM      2  C   UNL     1      34.635 -15.741 -24.136  0.00  0.00    -0.030 C 
ATOM      3  C   UNL     1      34.325 -14.540 -23.210  0.00  0.00    +0.005 C 
ATOM      4  C   UNL     1      34.019 -13.247 -23.941  0.00  0.00    -0.058 C 
ATOM      5  C   UNL     1      33.726 -14.553 -26.042  0.00  0.00    -0.054 C 
ATOM      6  C   UNL     1      33.777 -13.250 -25.268  0.00  0.00    -0.073 C 
ATOM      7  C   UNL     1      33.669 -16.966 -26.002  0.00  0.00    -0.072 C 
ATOM      8  C   UNL     1      34.720 -17.055 -23.362  0.00  0.00    -0.042 C 
ATOM      9  C   UNL     1      33.298 -18.168 -25.135  0.00  0.00    +0.003 C 
ATOM     10  C   UNL     1      34.102 -18.217 -23.862  0.00  0.00    -0.027 C 
ATOM     11  C   UNL     1      35.478 -17.153 -22.184  0.00  0.00    +0.033 C 
ATOM     12  C   UNL     1      34.193 -19.424 -23.154  0.00  0.00    +0.035 C 
ATOM     13  C   UNL     1      35.577 -18.362 -21.492  0.00  0.00    +0.172 C 
ATOM     14  C   UNL     1      34.929 -19.495 -21.974  0.00  0.00    +0.172 C 
ATOM     15  H   UNL     1      32.691 -15.731 -24.738  0.00  0.00    -0.079 HD
ENDROOT
BRANCH  13  16
ATOM     16  O   UNL     1      36.314 -18.420 -20.348  0.00  0.00    -0.468 OA
ATOM     17  C   UNL     1      37.358 -19.389 -20.298  0.00  0.00    +0.253 C 
ENDBRANCH  13  16
BRANCH  14  18
ATOM     18  O   UNL     1      35.013 -20.679 -21.305  0.00  0.00    -0.468 OA
ATOM     19  C   UNL     1      34.060 -20.906 -20.267  0.00  0.00    +0.253 C 
ENDBRANCH  14  18
BRANCH   6  20
ATOM     20  C   UNL     1      33.549 -12.027 -26.113  0.00  0.00    +0.019 C 
ATOM     21  C   UNL     1      34.799 -11.178 -26.212  0.00  0.00    +0.005 C 
ENDBRANCH   6  20
BRANCH   4  22
ATOM     22  C   UNL     1      34.016 -12.030 -23.057  0.00  0.00    +0.004 C 
BRANCH  22  24
ATOM     23  N   UNL     1      32.244 -12.420 -21.470  0.00  0.00    +0.388 N 
ATOM     24  C   UNL     1      32.590 -11.624 -22.663  0.00  0.00    -0.035 C 
ATOM     25  C   UNL     1      32.432 -10.124 -22.451  0.00  0.00    -0.043 C 
ATOM     26  C   UNL     1      30.962 -12.007 -20.910  0.00  0.00    -0.076 C 
ATOM     27  C   UNL     1      31.682  -9.637 -21.362  0.00  0.00    -0.027 C 
ATOM     28  C   UNL     1      31.081 -10.589 -20.359  0.00  0.00    +0.003 C 
ATOM     29  C   UNL     1      32.955  -9.200 -23.371  0.00  0.00    +0.033 C 
ATOM     30  C   UNL     1      31.523  -8.256 -21.177  0.00  0.00    +0.035 C 
ATOM     31  C   UNL     1      32.782  -7.827 -23.186  0.00  0.00    +0.172 C 
ATOM     32  C   UNL     1      32.074  -7.355 -22.087  0.00  0.00    +0.172 C 
ATOM     33  H   UNL     1      32.971 -12.295 -20.766  0.00  0.00    -0.084 HD
ATOM     34  H   UNL     1      32.173 -13.400 -21.747  0.00  0.00    -0.084 HD
BRANCH  31  35
ATOM     35  O   UNL     1      33.312  -6.959 -24.092  0.00  0.00    -0.468 OA
ATOM     36  C   UNL     1      34.713  -7.054 -24.338  0.00  0.00    +0.253 C 
ENDBRANCH  31  35
BRANCH  32  37
ATOM     37  O   UNL     1      31.902  -6.017 -21.892  0.00  0.00    -0.468 OA
ATOM     38  C   UNL     1      30.625  -5.473 -22.222  0.00  0.00    +0.253 C 
ENDBRANCH  32  37
ENDBRANCH  22  24
ENDBRANCH   4  22
TORSDOF 7
ENDMDL
