MODEL 1
REMARK VINA RESULT:      -9.0      0.000      0.000
REMARK  Name = 60464
REMARK  5 active torsions:
REMARK  status: ('A' for Active; 'I' for Inactive)
REMARK    1  A    between atoms: N_4  and  C_27
REMARK    2  A    between atoms: C_6  and  N_14
REMARK    3  A    between atoms: C_10  and  N_24
REMARK    4  A    between atoms: C_11  and  C_31
REMARK    5  A    between atoms: C_31  and  O_32
REMARK                            x       y       z     vdW  Elec       q    Type
REMARK                         _______ _______ _______ _____ _____    ______ ____
ROOT
ATOM      1  F   UNL     1      32.308 -10.984 -24.207  0.00  0.00    -0.201 F 
ATOM      2  F   UNL     1      31.580 -12.227 -19.718  0.00  0.00    -0.201 F 
ATOM      3  O   UNL     1      33.784 -16.292 -21.829  0.00  0.00    -0.286 OA
ATOM      4  N   UNL     1      33.486 -13.526 -24.807  0.00  0.00    -0.285 N 
ATOM      5  C   UNL     1      32.993 -13.170 -23.520  0.00  0.00    +0.085 A 
ATOM      6  C   UNL     1      31.945 -11.604 -21.972  0.00  0.00    +0.106 A 
ATOM      7  C   UNL     1      34.040 -14.776 -25.004  0.00  0.00    +0.075 C 
ATOM      8  C   UNL     1      33.076 -14.100 -22.461  0.00  0.00    +0.070 A 
ATOM      9  C   UNL     1      32.418 -11.918 -23.249  0.00  0.00    +0.169 A 
ATOM     10  C   UNL     1      32.602 -13.785 -21.182  0.00  0.00    +0.075 A 
ATOM     11  C   UNL     1      34.167 -15.729 -24.073  0.00  0.00    +0.129 C 
ATOM     12  C   UNL     1      32.037 -12.537 -20.942  0.00  0.00    +0.168 A 
ATOM     13  C   UNL     1      33.678 -15.438 -22.701  0.00  0.00    +0.206 C 
ENDROOT
BRANCH   6  14
ATOM     14  N   UNL     1      31.379 -10.358 -21.729  0.00  0.00    -0.308 N 
ATOM     15  N   UNL     1      32.041  -7.629 -22.140  0.00  0.00    +0.389 N 
ATOM     16  C   UNL     1      32.723  -8.415 -21.102  0.00  0.00    -0.042 C 
ATOM     17  C   UNL     1      31.610  -8.471 -23.268  0.00  0.00    -0.042 C 
ATOM     18  C   UNL     1      31.816  -9.549 -20.586  0.00  0.00    +0.070 C 
ATOM     19  C   UNL     1      30.688  -9.593 -22.768  0.00  0.00    +0.070 C 
ATOM     20  C   UNL     1      33.125  -7.487 -19.958  0.00  0.00    -0.022 C 
ATOM     21  C   UNL     1      30.892  -7.601 -24.296  0.00  0.00    -0.022 C 
ATOM     22  H   UNL     1      32.681  -6.914 -22.488  0.00  0.00    -0.084 HD
ATOM     23  H   UNL     1      31.211  -7.207 -21.725  0.00  0.00    -0.084 HD
ENDBRANCH   6  14
BRANCH  10  24
ATOM     24  N   UNL     1      32.664 -14.686 -20.094  0.00  0.00    -0.355 N 
ATOM     25  H   UNL     1      32.520 -14.360 -19.177  0.00  0.00    +0.142 HD
ATOM     26  H   UNL     1      32.850 -15.639 -20.255  0.00  0.00    +0.142 HD
ENDBRANCH  10  24
BRANCH   4  27
ATOM     27  C   UNL     1      33.433 -12.603 -25.963  0.00  0.00    +0.077 C 
ATOM     28  C   UNL     1      32.662 -12.959 -27.190  0.00  0.00    +0.022 C 
ATOM     29  C   UNL     1      34.161 -12.918 -27.227  0.00  0.00    +0.022 C 
ENDBRANCH   4  27
BRANCH  11  31
ATOM     30  O   UNL     1      34.501 -17.622 -25.472  0.00  0.00    -0.245 OA
ATOM     31  C   UNL     1      34.781 -17.000 -24.462  0.00  0.00    +0.342 C 
BRANCH  31  32
ATOM     32  O   UNL     1      35.693 -17.366 -23.538  0.00  0.00    -0.477 OA
ATOM     33  H   UNL     1      36.142 -18.184 -23.621  0.00  0.00    +0.295 HD
ENDBRANCH  31  32
ENDBRANCH  11  31
TORSDOF 5
ENDMDL
MODEL 2
REMARK VINA RESULT:      -9.0      9.740     12.787
REMARK  Name = 60464
REMARK  5 active torsions:
REMARK  status: ('A' for Active; 'I' for Inactive)
REMARK    1  A    between atoms: N_4  and  C_27
REMARK    2  A    between atoms: C_6  and  N_14
REMARK    3  A    between atoms: C_10  and  N_24
REMARK    4  A    between atoms: C_11  and  C_31
REMARK    5  A    between atoms: C_31  and  O_32
REMARK                            x       y       z     vdW  Elec       q    Type
REMARK                         _______ _______ _______ _____ _____    ______ ____
ROOT
ATOM      1  F   UNL     1      32.960 -22.716 -18.165  0.00  0.00    -0.201 F 
ATOM      2  F   UNL     1      37.448 -21.400 -18.762  0.00  0.00    -0.201 F 
ATOM      3  O   UNL     1      37.281 -23.270 -14.038  0.00  0.00    -0.286 OA
ATOM      4  N   UNL     1      33.491 -23.617 -15.497  0.00  0.00    -0.285 N 
ATOM      5  C   UNL     1      34.481 -23.049 -16.349  0.00  0.00    +0.085 A 
ATOM      6  C   UNL     1      35.195 -22.060 -18.460  0.00  0.00    +0.106 A 
ATOM      7  C   UNL     1      33.840 -24.026 -14.225  0.00  0.00    +0.075 C 
ATOM      8  C   UNL     1      35.806 -22.910 -15.881  0.00  0.00    +0.070 A 
ATOM      9  C   UNL     1      34.197 -22.613 -17.654  0.00  0.00    +0.169 A 
ATOM     10  C   UNL     1      36.805 -22.356 -16.690  0.00  0.00    +0.075 A 
ATOM     11  C   UNL     1      35.062 -23.940 -13.684  0.00  0.00    +0.129 C 
ATOM     12  C   UNL     1      36.495 -21.932 -17.979  0.00  0.00    +0.168 A 
ATOM     13  C   UNL     1      36.153 -23.359 -14.507  0.00  0.00    +0.206 C 
ENDROOT
BRANCH   6  14
ATOM     14  N   UNL     1      34.889 -21.634 -19.748  0.00  0.00    -0.308 N 
ATOM     15  N   UNL     1      34.383 -19.185 -21.090  0.00  0.00    +0.389 N 
ATOM     16  C   UNL     1      33.382 -19.757 -20.176  0.00  0.00    -0.042 C 
ATOM     17  C   UNL     1      35.753 -19.553 -20.699  0.00  0.00    -0.042 C 
ATOM     18  C   UNL     1      33.509 -21.291 -20.113  0.00  0.00    +0.070 C 
ATOM     19  C   UNL     1      35.897 -21.082 -20.654  0.00  0.00    +0.070 C 
ATOM     20  C   UNL     1      31.988 -19.353 -20.648  0.00  0.00    -0.022 C 
ATOM     21  C   UNL     1      36.737 -18.949 -21.697  0.00  0.00    -0.022 C 
ATOM     22  H   UNL     1      34.298 -18.168 -21.078  0.00  0.00    -0.084 HD
ATOM     23  H   UNL     1      34.209 -19.556 -22.023  0.00  0.00    -0.084 HD
ENDBRANCH   6  14
BRANCH  10  24
ATOM     24  N   UNL     1      38.143 -22.197 -16.262  0.00  0.00    -0.355 N 
ATOM     25  H   UNL     1      38.563 -22.884 -15.696  0.00  0.00    +0.142 HD
ATOM     26  H   UNL     1      38.653 -21.400 -16.530  0.00  0.00    +0.142 HD
ENDBRANCH  10  24
BRANCH   4  27
ATOM     27  C   UNL     1      32.085 -23.795 -15.920  0.00  0.00    +0.077 C 
ATOM     28  C   UNL     1      31.013 -22.891 -15.407  0.00  0.00    +0.022 C 
ATOM     29  C   UNL     1      31.063 -24.327 -14.971  0.00  0.00    +0.022 C 
ENDBRANCH   4  27
BRANCH  11  31
ATOM     30  O   UNL     1      34.791 -23.884 -11.323  0.00  0.00    -0.245 OA
ATOM     31  C   UNL     1      35.249 -24.424 -12.315  0.00  0.00    +0.342 C 
BRANCH  31  32
ATOM     32  O   UNL     1      35.997 -25.546 -12.329  0.00  0.00    -0.477 OA
ATOM     33  H   UNL     1      35.670 -26.321 -12.743  0.00  0.00    +0.295 HD
ENDBRANCH  31  32
ENDBRANCH  11  31
TORSDOF 5
ENDMDL
MODEL 3
REMARK VINA RESULT:      -8.9      3.643      7.546
REMARK  Name = 60464
REMARK  5 active torsions:
REMARK  status: ('A' for Active; 'I' for Inactive)
REMARK    1  A    between atoms: N_4  and  C_27
REMARK    2  A    between atoms: C_6  and  N_14
REMARK    3  A    between atoms: C_10  and  N_24
REMARK    4  A    between atoms: C_11  and  C_31
REMARK    5  A    between atoms: C_31  and  O_32
REMARK                            x       y       z     vdW  Elec       q    Type
REMARK                         _______ _______ _______ _____ _____    ______ ____
ROOT
ATOM      1  F   UNL     1      31.706 -13.087 -21.408  0.00  0.00    -0.201 F 
ATOM      2  F   UNL     1      34.492 -13.330 -25.204  0.00  0.00    -0.201 F 
ATOM      3  O   UNL     1      33.876  -8.351 -24.386  0.00  0.00    -0.286 OA
ATOM      4  N   UNL     1      31.735 -10.222 -21.466  0.00  0.00    -0.285 N 
ATOM      5  C   UNL     1      32.429 -11.037 -22.406  0.00  0.00    +0.085 A 
ATOM      6  C   UNL     1      33.092 -13.206 -23.299  0.00  0.00    +0.106 A 
ATOM      7  C   UNL     1      31.808  -8.847 -21.572  0.00  0.00    +0.075 C 
ATOM      8  C   UNL     1      33.181 -10.428 -23.434  0.00  0.00    +0.070 A 
ATOM      9  C   UNL     1      32.399 -12.440 -22.358  0.00  0.00    +0.169 A 
ATOM     10  C   UNL     1      33.875 -11.196 -24.376  0.00  0.00    +0.075 A 
ATOM     11  C   UNL     1      32.490  -8.170 -22.504  0.00  0.00    +0.129 C 
ATOM     12  C   UNL     1      33.828 -12.586 -24.305  0.00  0.00    +0.168 A 
ATOM     13  C   UNL     1      33.242  -8.945 -23.523  0.00  0.00    +0.206 C 
ENDROOT
BRANCH   6  14
ATOM     14  N   UNL     1      33.046 -14.594 -23.232  0.00  0.00    -0.308 N 
ATOM     15  N   UNL     1      34.880 -16.758 -23.125  0.00  0.00    +0.389 N 
ATOM     16  C   UNL     1      34.679 -16.010 -24.375  0.00  0.00    -0.042 C 
ATOM     17  C   UNL     1      34.649 -15.916 -21.941  0.00  0.00    -0.042 C 
ATOM     18  C   UNL     1      33.262 -15.407 -24.434  0.00  0.00    +0.070 C 
ATOM     19  C   UNL     1      33.231 -15.327 -21.978  0.00  0.00    +0.070 C 
ATOM     20  C   UNL     1      34.915 -16.944 -25.559  0.00  0.00    -0.022 C 
ATOM     21  C   UNL     1      34.851 -16.756 -20.682  0.00  0.00    -0.022 C 
ATOM     22  H   UNL     1      35.838 -17.109 -23.100  0.00  0.00    -0.084 HD
ATOM     23  H   UNL     1      34.209 -17.525 -23.104  0.00  0.00    -0.084 HD
ENDBRANCH   6  14
BRANCH  10  24
ATOM     24  N   UNL     1      34.639 -10.628 -25.421  0.00  0.00    -0.355 N 
ATOM     25  H   UNL     1      35.544 -10.966 -25.608  0.00  0.00    +0.142 HD
ATOM     26  H   UNL     1      34.264  -9.897 -25.962  0.00  0.00    +0.142 HD
ENDBRANCH  10  24
BRANCH   4  27
ATOM     27  C   UNL     1      30.929 -10.790 -20.363  0.00  0.00    +0.077 C 
ATOM     28  C   UNL     1      30.727 -10.030 -19.095  0.00  0.00    +0.022 C 
ATOM     29  C   UNL     1      31.580 -11.265 -19.106  0.00  0.00    +0.022 C 
ENDBRANCH   4  27
BRANCH  11  31
ATOM     30  O   UNL     1      32.498  -6.043 -21.441  0.00  0.00    -0.245 OA
ATOM     31  C   UNL     1      32.453  -6.707 -22.462  0.00  0.00    +0.342 C 
BRANCH  31  32
ATOM     32  O   UNL     1      32.364  -6.219 -23.717  0.00  0.00    -0.477 OA
ATOM     33  H   UNL     1      32.225  -5.302 -23.854  0.00  0.00    +0.295 HD
ENDBRANCH  31  32
ENDBRANCH  11  31
TORSDOF 5
ENDMDL
MODEL 4
REMARK VINA RESULT:      -8.6     11.539     14.693
REMARK  Name = 60464
REMARK  5 active torsions:
REMARK  status: ('A' for Active; 'I' for Inactive)
REMARK    1  A    between atoms: N_4  and  C_27
REMARK    2  A    between atoms: C_6  and  N_14
REMARK    3  A    between atoms: C_10  and  N_24
REMARK    4  A    between atoms: C_11  and  C_31
REMARK    5  A    between atoms: C_31  and  O_32
REMARK                            x       y       z     vdW  Elec       q    Type
REMARK                         _______ _______ _______ _____ _____    ______ ____
ROOT
ATOM      1  F   UNL     1      35.345 -22.704 -16.901  0.00  0.00    -0.201 F 
ATOM      2  F   UNL     1      34.739 -25.138 -12.910  0.00  0.00    -0.201 F 
ATOM      3  O   UNL     1      30.025 -24.208 -14.569  0.00  0.00    -0.286 OA
ATOM      4  N   UNL     1      32.516 -22.501 -17.306  0.00  0.00    -0.285 N 
ATOM      5  C   UNL     1      33.107 -23.167 -16.195  0.00  0.00    +0.085 A 
ATOM      6  C   UNL     1      35.042 -23.915 -14.914  0.00  0.00    +0.106 A 
ATOM      7  C   UNL     1      31.140 -22.454 -17.419  0.00  0.00    +0.075 C 
ATOM      8  C   UNL     1      32.279 -23.770 -15.224  0.00  0.00    +0.070 A 
ATOM      9  C   UNL     1      34.498 -23.253 -16.017  0.00  0.00    +0.169 A 
ATOM     10  C   UNL     1      32.826 -24.434 -14.118  0.00  0.00    +0.075 A 
ATOM     11  C   UNL     1      30.267 -22.991 -16.559  0.00  0.00    +0.129 C 
ATOM     12  C   UNL     1      34.207 -24.503 -13.967  0.00  0.00    +0.168 A 
ATOM     13  C   UNL     1      30.802 -23.705 -15.371  0.00  0.00    +0.206 C 
ENDROOT
BRANCH   6  14
ATOM     14  N   UNL     1      36.421 -23.986 -14.758  0.00  0.00    -0.308 N 
ATOM     15  N   UNL     1      38.282 -25.243 -13.022  0.00  0.00    +0.389 N 
ATOM     16  C   UNL     1      37.481 -24.100 -12.558  0.00  0.00    -0.042 C 
ATOM     17  C   UNL     1      37.576 -26.023 -14.051  0.00  0.00    -0.042 C 
ATOM     18  C   UNL     1      37.100 -23.182 -13.735  0.00  0.00    +0.070 C 
ATOM     19  C   UNL     1      37.210 -25.121 -15.239  0.00  0.00    +0.070 C 
ATOM     20  C   UNL     1      38.277 -23.327 -11.510  0.00  0.00    -0.022 C 
ATOM     21  C   UNL     1      38.468 -27.176 -14.504  0.00  0.00    -0.022 C 
ATOM     22  H   UNL     1      38.483 -25.850 -12.228  0.00  0.00    -0.084 HD
ATOM     23  H   UNL     1      39.142 -24.881 -13.434  0.00  0.00    -0.084 HD
ENDBRANCH   6  14
BRANCH  10  24
ATOM     24  N   UNL     1      32.034 -25.050 -13.122  0.00  0.00    -0.355 N 
ATOM     25  H   UNL     1      31.058 -25.109 -13.236  0.00  0.00    +0.142 HD
ATOM     26  H   UNL     1      32.460 -25.421 -12.316  0.00  0.00    +0.142 HD
ENDBRANCH  10  24
BRANCH   4  27
ATOM     27  C   UNL     1      33.320 -21.847 -18.362  0.00  0.00    +0.077 C 
ATOM     28  C   UNL     1      32.668 -21.291 -19.584  0.00  0.00    +0.022 C 
ATOM     29  C   UNL     1      33.534 -22.513 -19.681  0.00  0.00    +0.022 C 
ENDBRANCH   4  27
BRANCH  11  31
ATOM     30  O   UNL     1      28.260 -23.361 -17.779  0.00  0.00    -0.245 OA
ATOM     31  C   UNL     1      28.837 -22.843 -16.839  0.00  0.00    +0.342 C 
BRANCH  31  32
ATOM     32  O   UNL     1      28.271 -22.052 -15.904  0.00  0.00    -0.477 OA
ATOM     33  H   UNL     1      28.000 -22.417 -15.084  0.00  0.00    +0.295 HD
ENDBRANCH  31  32
ENDBRANCH  11  31
TORSDOF 5
ENDMDL
MODEL 5
REMARK VINA RESULT:      -8.1      3.352      7.032
REMARK  Name = 60464
REMARK  5 active torsions:
REMARK  status: ('A' for Active; 'I' for Inactive)
REMARK    1  A    between atoms: N_4  and  C_27
REMARK    2  A    between atoms: C_6  and  N_14
REMARK    3  A    between atoms: C_10  and  N_24
REMARK    4  A    between atoms: C_11  and  C_31
REMARK    5  A    between atoms: C_31  and  O_32
REMARK                            x       y       z     vdW  Elec       q    Type
REMARK                         _______ _______ _______ _____ _____    ______ ____
ROOT
ATOM      1  F   UNL     1      35.129 -14.848 -24.373  0.00  0.00    -0.201 F 
ATOM      2  F   UNL     1      33.785 -16.953 -20.375  0.00  0.00    -0.201 F 
ATOM      3  O   UNL     1      31.457 -12.434 -20.286  0.00  0.00    -0.286 OA
ATOM      4  N   UNL     1      33.588 -12.511 -23.760  0.00  0.00    -0.285 N 
ATOM      5  C   UNL     1      33.655 -13.655 -22.915  0.00  0.00    +0.085 A 
ATOM      6  C   UNL     1      34.460 -15.894 -22.382  0.00  0.00    +0.106 A 
ATOM      7  C   UNL     1      32.817 -11.429 -23.382  0.00  0.00    +0.075 C 
ATOM      8  C   UNL     1      32.933 -13.668 -21.702  0.00  0.00    +0.070 A 
ATOM      9  C   UNL     1      34.419 -14.790 -23.236  0.00  0.00    +0.169 A 
ATOM     10  C   UNL     1      32.975 -14.776 -20.846  0.00  0.00    +0.075 A 
ATOM     11  C   UNL     1      32.096 -11.338 -22.258  0.00  0.00    +0.129 C 
ATOM     12  C   UNL     1      33.740 -15.886 -21.190  0.00  0.00    +0.168 A 
ATOM     13  C   UNL     1      32.111 -12.490 -21.321  0.00  0.00    +0.206 C 
ENDROOT
BRANCH   6  14
ATOM     14  N   UNL     1      35.224 -17.005 -22.721  0.00  0.00    -0.308 N 
ATOM     15  N   UNL     1      34.874 -19.813 -22.939  0.00  0.00    +0.389 N 
ATOM     16  C   UNL     1      34.940 -19.169 -21.619  0.00  0.00    -0.042 C 
ATOM     17  C   UNL     1      34.321 -18.910 -23.961  0.00  0.00    -0.042 C 
ATOM     18  C   UNL     1      35.777 -17.877 -21.678  0.00  0.00    +0.070 C 
ATOM     19  C   UNL     1      35.162 -17.628 -24.044  0.00  0.00    +0.070 C 
ATOM     20  C   UNL     1      35.537 -20.151 -20.615  0.00  0.00    -0.022 C 
ATOM     21  C   UNL     1      34.301 -19.630 -25.307  0.00  0.00    -0.022 C 
ATOM     22  H   UNL     1      34.281 -20.641 -22.874  0.00  0.00    -0.084 HD
ATOM     23  H   UNL     1      35.822 -20.064 -23.218  0.00  0.00    -0.084 HD
ENDBRANCH   6  14
BRANCH  10  24
ATOM     24  N   UNL     1      32.269 -14.831 -19.623  0.00  0.00    -0.355 N 
ATOM     25  H   UNL     1      32.100 -15.699 -19.191  0.00  0.00    +0.142 HD
ATOM     26  H   UNL     1      31.948 -14.001 -19.202  0.00  0.00    +0.142 HD
ENDBRANCH  10  24
BRANCH   4  27
ATOM     27  C   UNL     1      34.317 -12.427 -25.045  0.00  0.00    +0.077 C 
ATOM     28  C   UNL     1      34.483 -11.119 -25.744  0.00  0.00    +0.022 C 
ATOM     29  C   UNL     1      33.587 -12.175 -26.322  0.00  0.00    +0.022 C 
ENDBRANCH   4  27
BRANCH  11  31
ATOM     30  O   UNL     1      30.693  -9.519 -22.871  0.00  0.00    -0.245 OA
ATOM     31  C   UNL     1      31.336 -10.110 -22.021  0.00  0.00    +0.342 C 
BRANCH  31  32
ATOM     32  O   UNL     1      31.460  -9.742 -20.728  0.00  0.00    -0.477 OA
ATOM     33  H   UNL     1      30.758  -9.898 -20.128  0.00  0.00    +0.295 HD
ENDBRANCH  31  32
ENDBRANCH  11  31
TORSDOF 5
ENDMDL
MODEL 6
REMARK VINA RESULT:      -8.1      2.306      3.347
REMARK  Name = 60464
REMARK  5 active torsions:
REMARK  status: ('A' for Active; 'I' for Inactive)
REMARK    1  A    between atoms: N_4  and  C_27
REMARK    2  A    between atoms: C_6  and  N_14
REMARK    3  A    between atoms: C_10  and  N_24
REMARK    4  A    between atoms: C_11  and  C_31
REMARK    5  A    between atoms: C_31  and  O_32
REMARK                            x       y       z     vdW  Elec       q    Type
REMARK                         _______ _______ _______ _____ _____    ______ ____
ROOT
ATOM      1  F   UNL     1      33.914  -8.402 -24.606  0.00  0.00    -0.201 F 
ATOM      2  F   UNL     1      31.497  -8.670 -20.567  0.00  0.00    -0.201 F 
ATOM      3  O   UNL     1      32.102 -13.504 -22.019  0.00  0.00    -0.286 OA
ATOM      4  N   UNL     1      33.924 -11.253 -24.887  0.00  0.00    -0.285 N 
ATOM      5  C   UNL     1      33.313 -10.571 -23.797  0.00  0.00    +0.085 A 
ATOM      6  C   UNL     1      32.710  -8.537 -22.596  0.00  0.00    +0.106 A 
ATOM      7  C   UNL     1      33.881 -12.633 -24.938  0.00  0.00    +0.075 C 
ATOM      8  C   UNL     1      32.671 -11.314 -22.783  0.00  0.00    +0.070 A 
ATOM      9  C   UNL     1      33.320  -9.171 -23.681  0.00  0.00    +0.169 A 
ATOM     10  C   UNL     1      32.059 -10.677 -21.696  0.00  0.00    +0.075 A 
ATOM     11  C   UNL     1      33.300 -13.430 -24.034  0.00  0.00    +0.129 C 
ATOM     12  C   UNL     1      32.081  -9.288 -21.607  0.00  0.00    +0.168 A 
ATOM     13  C   UNL     1      32.639 -12.797 -22.864  0.00  0.00    +0.206 C 
ENDROOT
BRANCH   6  14
ATOM     14  N   UNL     1      32.728  -7.150 -22.504  0.00  0.00    -0.308 N 
ATOM     15  N   UNL     1      31.136  -4.962 -23.363  0.00  0.00    +0.389 N 
ATOM     16  C   UNL     1      31.958  -5.712 -24.325  0.00  0.00    -0.042 C 
ATOM     17  C   UNL     1      30.699  -5.809 -22.242  0.00  0.00    -0.042 C 
ATOM     18  C   UNL     1      33.187  -6.332 -23.633  0.00  0.00    +0.070 C 
ATOM     19  C   UNL     1      31.918  -6.416 -21.531  0.00  0.00    +0.070 C 
ATOM     20  C   UNL     1      32.391  -4.774 -25.448  0.00  0.00    -0.022 C 
ATOM     21  C   UNL     1      29.873  -4.968 -21.272  0.00  0.00    -0.022 C 
ATOM     22  H   UNL     1      30.313  -4.600 -23.844  0.00  0.00    -0.084 HD
ATOM     23  H   UNL     1      31.703  -4.204 -22.985  0.00  0.00    -0.084 HD
ENDBRANCH   6  14
BRANCH  10  24
ATOM     24  N   UNL     1      31.404 -11.381 -20.661  0.00  0.00    -0.355 N 
ATOM     25  H   UNL     1      31.698 -12.290 -20.421  0.00  0.00    +0.142 HD
ATOM     26  H   UNL     1      30.655 -10.962 -20.179  0.00  0.00    +0.142 HD
ENDBRANCH  10  24
BRANCH   4  27
ATOM     27  C   UNL     1      34.616 -10.541 -25.984  0.00  0.00    +0.077 C 
ATOM     28  C   UNL     1      35.423 -11.291 -26.992  0.00  0.00    +0.022 C 
ATOM     29  C   UNL     1      36.103 -10.405 -25.989  0.00  0.00    +0.022 C 
ENDBRANCH   4  27
BRANCH  11  31
ATOM     30  O   UNL     1      33.203 -15.418 -25.334  0.00  0.00    -0.245 OA
ATOM     31  C   UNL     1      33.350 -14.877 -24.252  0.00  0.00    +0.342 C 
BRANCH  31  32
ATOM     32  O   UNL     1      33.584 -15.505 -23.080  0.00  0.00    -0.477 OA
ATOM     33  H   UNL     1      33.632 -16.441 -23.053  0.00  0.00    +0.295 HD
ENDBRANCH  31  32
ENDBRANCH  11  31
TORSDOF 5
ENDMDL
MODEL 7
REMARK VINA RESULT:      -8.0     10.704     14.086
REMARK  Name = 60464
REMARK  5 active torsions:
REMARK  status: ('A' for Active; 'I' for Inactive)
REMARK    1  A    between atoms: N_4  and  C_27
REMARK    2  A    between atoms: C_6  and  N_14
REMARK    3  A    between atoms: C_10  and  N_24
REMARK    4  A    between atoms: C_11  and  C_31
REMARK    5  A    between atoms: C_31  and  O_32
REMARK                            x       y       z     vdW  Elec       q    Type
REMARK                         _______ _______ _______ _____ _____    ______ ____
ROOT
ATOM      1  F   UNL     1      33.665 -24.345 -15.100  0.00  0.00    -0.201 F 
ATOM      2  F   UNL     1      38.205 -23.180 -15.607  0.00  0.00    -0.201 F 
ATOM      3  O   UNL     1      35.840 -20.803 -19.428  0.00  0.00    -0.286 OA
ATOM      4  N   UNL     1      32.925 -22.800 -17.397  0.00  0.00    -0.285 N 
ATOM      5  C   UNL     1      34.262 -22.913 -16.921  0.00  0.00    +0.085 A 
ATOM      6  C   UNL     1      35.925 -23.765 -15.354  0.00  0.00    +0.106 A 
ATOM      7  C   UNL     1      32.662 -22.031 -18.514  0.00  0.00    +0.075 C 
ATOM      8  C   UNL     1      35.301 -22.238 -17.596  0.00  0.00    +0.070 A 
ATOM      9  C   UNL     1      34.601 -23.678 -15.792  0.00  0.00    +0.169 A 
ATOM     10  C   UNL     1      36.627 -22.326 -17.157  0.00  0.00    +0.075 A 
ATOM     11  C   UNL     1      33.569 -21.352 -19.226  0.00  0.00    +0.129 C 
ATOM     12  C   UNL     1      36.935 -23.091 -16.036  0.00  0.00    +0.168 A 
ATOM     13  C   UNL     1      34.989 -21.417 -18.795  0.00  0.00    +0.206 C 
ENDROOT
BRANCH   6  14
ATOM     14  N   UNL     1      36.236 -24.529 -14.236  0.00  0.00    -0.308 N 
ATOM     15  N   UNL     1      38.198 -24.557 -12.185  0.00  0.00    +0.389 N 
ATOM     16  C   UNL     1      38.543 -24.965 -13.555  0.00  0.00    -0.042 C 
ATOM     17  C   UNL     1      37.115 -23.561 -12.168  0.00  0.00    -0.042 C 
ATOM     18  C   UNL     1      37.311 -25.527 -14.288  0.00  0.00    +0.070 C 
ATOM     19  C   UNL     1      35.873 -24.120 -12.878  0.00  0.00    +0.070 C 
ATOM     20  C   UNL     1      39.656 -26.008 -13.499  0.00  0.00    -0.022 C 
ATOM     21  C   UNL     1      36.791 -23.198 -10.721  0.00  0.00    -0.022 C 
ATOM     22  H   UNL     1      39.024 -24.153 -11.742  0.00  0.00    -0.084 HD
ATOM     23  H   UNL     1      37.879 -25.382 -11.679  0.00  0.00    -0.084 HD
ENDBRANCH   6  14
BRANCH  10  24
ATOM     24  N   UNL     1      37.698 -21.668 -17.804  0.00  0.00    -0.355 N 
ATOM     25  H   UNL     1      37.518 -20.912 -18.408  0.00  0.00    +0.142 HD
ATOM     26  H   UNL     1      38.623 -21.965 -17.649  0.00  0.00    +0.142 HD
ENDBRANCH  10  24
BRANCH   4  27
ATOM     27  C   UNL     1      31.786 -23.478 -16.740  0.00  0.00    +0.077 C 
ATOM     28  C   UNL     1      30.419 -22.880 -16.771  0.00  0.00    +0.022 C 
ATOM     29  C   UNL     1      31.191 -22.930 -15.485  0.00  0.00    +0.022 C 
ENDBRANCH   4  27
BRANCH  11  31
ATOM     30  O   UNL     1      32.143 -20.883 -21.070  0.00  0.00    -0.245 OA
ATOM     31  C   UNL     1      33.107 -20.587 -20.385  0.00  0.00    +0.342 C 
BRANCH  31  32
ATOM     32  O   UNL     1      33.909 -19.517 -20.572  0.00  0.00    -0.477 OA
ATOM     33  H   UNL     1      34.189 -19.287 -21.436  0.00  0.00    +0.295 HD
ENDBRANCH  31  32
ENDBRANCH  11  31
TORSDOF 5
ENDMDL
MODEL 8
REMARK VINA RESULT:      -7.9      1.948      2.751
REMARK  Name = 60464
REMARK  5 active torsions:
REMARK  status: ('A' for Active; 'I' for Inactive)
REMARK    1  A    between atoms: N_4  and  C_27
REMARK    2  A    between atoms: C_6  and  N_14
REMARK    3  A    between atoms: C_10  and  N_24
REMARK    4  A    between atoms: C_11  and  C_31
REMARK    5  A    between atoms: C_31  and  O_32
REMARK                            x       y       z     vdW  Elec       q    Type
REMARK                         _______ _______ _______ _____ _____    ______ ____
ROOT
ATOM      1  F   UNL     1      33.010 -11.437 -24.932  0.00  0.00    -0.201 F 
ATOM      2  F   UNL     1      31.472  -9.379 -20.979  0.00  0.00    -0.201 F 
ATOM      3  O   UNL     1      32.173 -14.248 -19.697  0.00  0.00    -0.286 OA
ATOM      4  N   UNL     1      33.199 -13.984 -23.633  0.00  0.00    -0.285 N 
ATOM      5  C   UNL     1      32.762 -12.796 -22.980  0.00  0.00    +0.085 A 
ATOM      6  C   UNL     1      32.244 -10.414 -22.964  0.00  0.00    +0.106 A 
ATOM      7  C   UNL     1      33.260 -15.168 -22.925  0.00  0.00    +0.075 C 
ATOM      8  C   UNL     1      32.397 -12.845 -21.617  0.00  0.00    +0.070 A 
ATOM      9  C   UNL     1      32.677 -11.558 -23.638  0.00  0.00    +0.169 A 
ATOM     10  C   UNL     1      31.963 -11.698 -20.943  0.00  0.00    +0.075 A 
ATOM     11  C   UNL     1      32.937 -15.324 -21.635  0.00  0.00    +0.129 C 
ATOM     12  C   UNL     1      31.887 -10.484 -21.620  0.00  0.00    +0.168 A 
ATOM     13  C   UNL     1      32.472 -14.133 -20.880  0.00  0.00    +0.206 C 
ENDROOT
BRANCH   6  14
ATOM     14  N   UNL     1      32.166  -9.200 -23.637  0.00  0.00    -0.308 N 
ATOM     15  N   UNL     1      32.860  -6.487 -23.174  0.00  0.00    +0.389 N 
ATOM     16  C   UNL     1      31.713  -7.094 -22.481  0.00  0.00    -0.042 C 
ATOM     17  C   UNL     1      33.899  -7.482 -23.483  0.00  0.00    -0.042 C 
ATOM     18  C   UNL     1      31.106  -8.236 -23.319  0.00  0.00    +0.070 C 
ATOM     19  C   UNL     1      33.310  -8.614 -24.337  0.00  0.00    +0.070 C 
ATOM     20  C   UNL     1      30.669  -6.015 -22.207  0.00  0.00    -0.022 C 
ATOM     21  C   UNL     1      35.047  -6.794 -24.219  0.00  0.00    -0.022 C 
ATOM     22  H   UNL     1      33.262  -5.764 -22.576  0.00  0.00    -0.084 HD
ATOM     23  H   UNL     1      32.527  -6.093 -24.053  0.00  0.00    -0.084 HD
ENDBRANCH   6  14
BRANCH  10  24
ATOM     24  N   UNL     1      31.586 -11.702 -19.580  0.00  0.00    -0.355 N 
ATOM     25  H   UNL     1      32.139 -12.177 -18.918  0.00  0.00    +0.142 HD
ATOM     26  H   UNL     1      30.772 -11.229 -19.294  0.00  0.00    +0.142 HD
ENDBRANCH  10  24
BRANCH   4  27
ATOM     27  C   UNL     1      33.599 -14.007 -25.058  0.00  0.00    +0.077 C 
ATOM     28  C   UNL     1      32.611 -14.351 -26.122  0.00  0.00    +0.022 C 
ATOM     29  C   UNL     1      33.727 -15.300 -25.794  0.00  0.00    +0.022 C 
ENDBRANCH   4  27
BRANCH  11  31
ATOM     30  O   UNL     1      34.086 -17.321 -21.047  0.00  0.00    -0.245 OA
ATOM     31  C   UNL     1      33.063 -16.659 -21.047  0.00  0.00    +0.342 C 
BRANCH  31  32
ATOM     32  O   UNL     1      31.881 -17.033 -20.513  0.00  0.00    -0.477 OA
ATOM     33  H   UNL     1      31.296 -16.385 -20.173  0.00  0.00    +0.295 HD
ENDBRANCH  31  32
ENDBRANCH  11  31
TORSDOF 5
ENDMDL
MODEL 9
REMARK VINA RESULT:      -7.8     11.378     14.547
REMARK  Name = 60464
REMARK  5 active torsions:
REMARK  status: ('A' for Active; 'I' for Inactive)
REMARK    1  A    between atoms: N_4  and  C_27
REMARK    2  A    between atoms: C_6  and  N_14
REMARK    3  A    between atoms: C_10  and  N_24
REMARK    4  A    between atoms: C_11  and  C_31
REMARK    5  A    between atoms: C_31  and  O_32
REMARK                            x       y       z     vdW  Elec       q    Type
REMARK                         _______ _______ _______ _____ _____    ______ ____
ROOT
ATOM      1  F   UNL     1      34.824 -22.847 -16.318  0.00  0.00    -0.201 F 
ATOM      2  F   UNL     1      33.634 -25.159 -12.385  0.00  0.00    -0.201 F 
ATOM      3  O   UNL     1      29.206 -24.182 -14.684  0.00  0.00    -0.286 OA
ATOM      4  N   UNL     1      32.079 -22.599 -17.103  0.00  0.00    -0.285 N 
ATOM      5  C   UNL     1      32.501 -23.246 -15.907  0.00  0.00    +0.085 A 
ATOM      6  C   UNL     1      34.230 -23.997 -14.360  0.00  0.00    +0.106 A 
ATOM      7  C   UNL     1      30.732 -22.529 -17.401  0.00  0.00    +0.075 C 
ATOM      8  C   UNL     1      31.538 -23.806 -15.041  0.00  0.00    +0.070 A 
ATOM      9  C   UNL     1      33.854 -23.355 -15.542  0.00  0.00    +0.169 A 
ATOM     10  C   UNL     1      31.916 -24.450 -13.857  0.00  0.00    +0.075 A 
ATOM     11  C   UNL     1      29.740 -23.025 -16.652  0.00  0.00    +0.129 C 
ATOM     12  C   UNL     1      33.263 -24.542 -13.520  0.00  0.00    +0.168 A 
ATOM     13  C   UNL     1      30.095 -23.716 -15.387  0.00  0.00    +0.206 C 
ENDROOT
BRANCH   6  14
ATOM     14  N   UNL     1      35.574 -24.090 -14.019  0.00  0.00    -0.308 N 
ATOM     15  N   UNL     1      38.007 -24.883 -15.249  0.00  0.00    +0.389 N 
ATOM     16  C   UNL     1      37.008 -25.887 -14.851  0.00  0.00    -0.042 C 
ATOM     17  C   UNL     1      37.381 -23.597 -15.593  0.00  0.00    -0.042 C 
ATOM     18  C   UNL     1      36.166 -25.385 -13.663  0.00  0.00    +0.070 C 
ATOM     19  C   UNL     1      36.556 -23.075 -14.407  0.00  0.00    +0.070 C 
ATOM     20  C   UNL     1      37.724 -27.186 -14.491  0.00  0.00    -0.022 C 
ATOM     21  C   UNL     1      38.469 -22.596 -15.973  0.00  0.00    -0.022 C 
ATOM     22  H   UNL     1      38.518 -25.229 -16.061  0.00  0.00    -0.084 HD
ATOM     23  H   UNL     1      38.633 -24.729 -14.459  0.00  0.00    -0.084 HD
ENDBRANCH   6  14
BRANCH  10  24
ATOM     24  N   UNL     1      30.984 -25.023 -12.961  0.00  0.00    -0.355 N 
ATOM     25  H   UNL     1      30.646 -24.497 -12.200  0.00  0.00    +0.142 HD
ATOM     26  H   UNL     1      30.674 -25.947 -13.098  0.00  0.00    +0.142 HD
ENDBRANCH  10  24
BRANCH   4  27
ATOM     27  C   UNL     1      33.032 -21.991 -18.058  0.00  0.00    +0.077 C 
ATOM     28  C   UNL     1      32.573 -21.513 -19.395  0.00  0.00    +0.022 C 
ATOM     29  C   UNL     1      33.454 -22.724 -19.288  0.00  0.00    +0.022 C 
ENDBRANCH   4  27
BRANCH  11  31
ATOM     30  O   UNL     1      27.770 -21.793 -17.156  0.00  0.00    -0.245 OA
ATOM     31  C   UNL     1      28.365 -22.856 -17.126  0.00  0.00    +0.342 C 
BRANCH  31  32
ATOM     32  O   UNL     1      27.870 -24.049 -17.518  0.00  0.00    -0.477 OA
ATOM     33  H   UNL     1      27.514 -24.639 -16.883  0.00  0.00    +0.295 HD
ENDBRANCH  31  32
ENDBRANCH  11  31
TORSDOF 5
ENDMDL
