MODEL 1
REMARK VINA RESULT:      -6.4      0.000      0.000
REMARK  Name = 15684
REMARK  2 active torsions:
REMARK  status: ('A' for Active; 'I' for Inactive)
REMARK    1  A    between atoms: C_3  and  C_9
REMARK    2  A    between atoms: C_9  and  O_10
REMARK                            x       y       z     vdW  Elec       q    Type
REMARK                         _______ _______ _______ _____ _____    ______ ____
ROOT
ATOM      1 CL   UNL     1      36.718 -21.648 -19.127  0.00  0.00    -0.082 Cl
ATOM      2 CL   UNL     1      34.646 -17.900 -22.386  0.00  0.00    -0.082 Cl
ATOM      3  C   UNL     1      34.044 -21.367 -19.564  0.00  0.00    +0.018 C 
ATOM      4  C   UNL     1      35.331 -20.910 -19.842  0.00  0.00    +0.057 C 
ATOM      5  C   UNL     1      32.942 -20.752 -20.158  0.00  0.00    -0.000 C 
ATOM      6  C   UNL     1      35.518 -19.839 -20.715  0.00  0.00    +0.023 C 
ATOM      7  C   UNL     1      33.129 -19.680 -21.031  0.00  0.00    +0.011 C 
ATOM      8  C   UNL     1      34.416 -19.223 -21.309  0.00  0.00    +0.058 C 
ENDROOT
BRANCH   3   9
ATOM      9  C   UNL     1      33.802 -22.512 -18.635  0.00  0.00    +0.164 C 
BRANCH   9  10
ATOM     10  O   UNL     1      33.914 -23.733 -19.354  0.00  0.00    -0.377 OA
ATOM     11  H   UNL     1      33.569 -24.460 -18.813  0.00  0.00    +0.211 HD
ENDBRANCH   9  10
ENDBRANCH   3   9
TORSDOF 2
ENDMDL
MODEL 2
REMARK VINA RESULT:      -6.0      2.709      3.949
REMARK  Name = 15684
REMARK  2 active torsions:
REMARK  status: ('A' for Active; 'I' for Inactive)
REMARK    1  A    between atoms: C_3  and  C_9
REMARK    2  A    between atoms: C_9  and  O_10
REMARK                            x       y       z     vdW  Elec       q    Type
REMARK                         _______ _______ _______ _____ _____    ______ ____
ROOT
ATOM      1 CL   UNL     1      37.185 -19.397 -20.957  0.00  0.00    -0.082 Cl
ATOM      2 CL   UNL     1      33.787 -22.871 -18.644  0.00  0.00    -0.082 Cl
ATOM      3  C   UNL     1      34.476 -19.143 -21.089  0.00  0.00    +0.018 C 
ATOM      4  C   UNL     1      35.563 -19.881 -20.622  0.00  0.00    +0.057 C 
ATOM      5  C   UNL     1      33.176 -19.557 -20.800  0.00  0.00    -0.000 C 
ATOM      6  C   UNL     1      35.350 -21.033 -19.865  0.00  0.00    +0.023 C 
ATOM      7  C   UNL     1      32.963 -20.710 -20.044  0.00  0.00    +0.011 C 
ATOM      8  C   UNL     1      34.050 -21.448 -19.577  0.00  0.00    +0.058 C 
ENDROOT
BRANCH   3   9
ATOM      9  C   UNL     1      34.662 -17.903 -21.901  0.00  0.00    +0.164 C 
BRANCH   9  10
ATOM     10  O   UNL     1      34.977 -16.818 -21.038  0.00  0.00    -0.377 OA
ATOM     11  H   UNL     1      35.860 -16.480 -21.253  0.00  0.00    +0.211 HD
ENDBRANCH   9  10
ENDBRANCH   3   9
TORSDOF 2
ENDMDL
MODEL 3
REMARK VINA RESULT:      -5.9      2.605      4.470
REMARK  Name = 15684
REMARK  2 active torsions:
REMARK  status: ('A' for Active; 'I' for Inactive)
REMARK    1  A    between atoms: C_3  and  C_9
REMARK    2  A    between atoms: C_9  and  O_10
REMARK                            x       y       z     vdW  Elec       q    Type
REMARK                         _______ _______ _______ _____ _____    ______ ____
ROOT
ATOM      1 CL   UNL     1      32.562 -19.862 -21.067  0.00  0.00    -0.082 Cl
ATOM      2 CL   UNL     1      33.806 -23.493 -17.294  0.00  0.00    -0.082 Cl
ATOM      3  C   UNL     1      35.121 -20.401 -20.303  0.00  0.00    +0.018 C 
ATOM      4  C   UNL     1      33.765 -20.679 -20.137  0.00  0.00    +0.057 C 
ATOM      5  C   UNL     1      36.071 -21.078 -19.539  0.00  0.00    -0.000 C 
ATOM      6  C   UNL     1      33.358 -21.636 -19.208  0.00  0.00    +0.023 C 
ATOM      7  C   UNL     1      35.664 -22.034 -18.609  0.00  0.00    +0.011 C 
ATOM      8  C   UNL     1      34.307 -22.313 -18.442  0.00  0.00    +0.058 C 
ENDROOT
BRANCH   3   9
ATOM      9  C   UNL     1      35.598 -19.384 -21.289  0.00  0.00    +0.164 C 
BRANCH   9  10
ATOM     10  O   UNL     1      35.609 -18.102 -20.673  0.00  0.00    -0.377 OA
ATOM     11  H   UNL     1      36.385 -17.605 -20.976  0.00  0.00    +0.211 HD
ENDBRANCH   9  10
ENDBRANCH   3   9
TORSDOF 2
ENDMDL
MODEL 4
REMARK VINA RESULT:      -5.9      3.997      5.697
REMARK  Name = 15684
REMARK  2 active torsions:
REMARK  status: ('A' for Active; 'I' for Inactive)
REMARK    1  A    between atoms: C_3  and  C_9
REMARK    2  A    between atoms: C_9  and  O_10
REMARK                            x       y       z     vdW  Elec       q    Type
REMARK                         _______ _______ _______ _____ _____    ______ ____
ROOT
ATOM      1 CL   UNL     1      34.574 -15.125 -21.645  0.00  0.00    -0.082 Cl
ATOM      2 CL   UNL     1      35.259 -20.306 -20.360  0.00  0.00    -0.082 Cl
ATOM      3  C   UNL     1      34.656 -17.121 -23.497  0.00  0.00    +0.018 C 
ATOM      4  C   UNL     1      34.721 -16.769 -22.149  0.00  0.00    +0.057 C 
ATOM      5  C   UNL     1      34.777 -18.458 -23.875  0.00  0.00    -0.000 C 
ATOM      6  C   UNL     1      34.907 -17.753 -21.179  0.00  0.00    +0.023 C 
ATOM      7  C   UNL     1      34.963 -19.443 -22.904  0.00  0.00    +0.011 C 
ATOM      8  C   UNL     1      35.029 -19.090 -21.557  0.00  0.00    +0.058 C 
ENDROOT
BRANCH   3   9
ATOM      9  C   UNL     1      34.457 -16.097 -24.566  0.00  0.00    +0.164 C 
BRANCH   9  10
ATOM     10  O   UNL     1      34.768 -16.670 -25.830  0.00  0.00    -0.377 OA
ATOM     11  H   UNL     1      34.163 -17.408 -26.007  0.00  0.00    +0.211 HD
ENDBRANCH   9  10
ENDBRANCH   3   9
TORSDOF 2
ENDMDL
MODEL 5
REMARK VINA RESULT:      -5.8      3.897      4.982
REMARK  Name = 15684
REMARK  2 active torsions:
REMARK  status: ('A' for Active; 'I' for Inactive)
REMARK    1  A    between atoms: C_3  and  C_9
REMARK    2  A    between atoms: C_9  and  O_10
REMARK                            x       y       z     vdW  Elec       q    Type
REMARK                         _______ _______ _______ _____ _____    ______ ____
ROOT
ATOM      1 CL   UNL     1      34.745 -15.792 -20.651  0.00  0.00    -0.082 Cl
ATOM      2 CL   UNL     1      33.489 -15.485 -25.875  0.00  0.00    -0.082 Cl
ATOM      3  C   UNL     1      35.342 -17.754 -22.444  0.00  0.00    +0.018 C 
ATOM      4  C   UNL     1      34.766 -16.503 -22.223  0.00  0.00    +0.057 C 
ATOM      5  C   UNL     1      35.345 -18.303 -23.726  0.00  0.00    -0.000 C 
ATOM      6  C   UNL     1      34.193 -15.801 -23.283  0.00  0.00    +0.023 C 
ATOM      7  C   UNL     1      34.772 -17.601 -24.787  0.00  0.00    +0.011 C 
ATOM      8  C   UNL     1      34.196 -16.351 -24.565  0.00  0.00    +0.058 C 
ENDROOT
BRANCH   3   9
ATOM      9  C   UNL     1      35.966 -18.536 -21.335  0.00  0.00    +0.164 C 
BRANCH   9  10
ATOM     10  O   UNL     1      34.949 -19.223 -20.615  0.00  0.00    -0.377 OA
ATOM     11  H   UNL     1      34.668 -18.683 -19.859  0.00  0.00    +0.211 HD
ENDBRANCH   9  10
ENDBRANCH   3   9
TORSDOF 2
ENDMDL
MODEL 6
REMARK VINA RESULT:      -5.8      5.169      6.871
REMARK  Name = 15684
REMARK  2 active torsions:
REMARK  status: ('A' for Active; 'I' for Inactive)
REMARK    1  A    between atoms: C_3  and  C_9
REMARK    2  A    between atoms: C_9  and  O_10
REMARK                            x       y       z     vdW  Elec       q    Type
REMARK                         _______ _______ _______ _____ _____    ______ ____
ROOT
ATOM      1 CL   UNL     1      33.928 -13.936 -23.142  0.00  0.00    -0.082 Cl
ATOM      2 CL   UNL     1      36.117 -18.579 -21.528  0.00  0.00    -0.082 Cl
ATOM      3  C   UNL     1      34.139 -16.123 -24.753  0.00  0.00    +0.018 C 
ATOM      4  C   UNL     1      34.378 -15.563 -23.498  0.00  0.00    +0.057 C 
ATOM      5  C   UNL     1      34.512 -17.441 -25.011  0.00  0.00    -0.000 C 
ATOM      6  C   UNL     1      34.989 -16.323 -22.501  0.00  0.00    +0.023 C 
ATOM      7  C   UNL     1      35.124 -18.201 -24.013  0.00  0.00    +0.011 C 
ATOM      8  C   UNL     1      35.363 -17.641 -22.758  0.00  0.00    +0.058 C 
ENDROOT
BRANCH   3   9
ATOM      9  C   UNL     1      33.487 -15.342 -25.847  0.00  0.00    +0.164 C 
BRANCH   9  10
ATOM     10  O   UNL     1      32.708 -16.220 -26.650  0.00  0.00    -0.377 OA
ATOM     11  H   UNL     1      32.802 -17.128 -26.321  0.00  0.00    +0.211 HD
ENDBRANCH   9  10
ENDBRANCH   3   9
TORSDOF 2
ENDMDL
MODEL 7
REMARK VINA RESULT:      -5.8      2.150      2.779
REMARK  Name = 15684
REMARK  2 active torsions:
REMARK  status: ('A' for Active; 'I' for Inactive)
REMARK    1  A    between atoms: C_3  and  C_9
REMARK    2  A    between atoms: C_9  and  O_10
REMARK                            x       y       z     vdW  Elec       q    Type
REMARK                         _______ _______ _______ _____ _____    ______ ____
ROOT
ATOM      1 CL   UNL     1      33.133 -21.169 -19.823  0.00  0.00    -0.082 Cl
ATOM      2 CL   UNL     1      34.849 -17.210 -23.040  0.00  0.00    -0.082 Cl
ATOM      3  C   UNL     1      35.758 -20.485 -20.073  0.00  0.00    +0.018 C 
ATOM      4  C   UNL     1      34.441 -20.240 -20.460  0.00  0.00    +0.057 C 
ATOM      5  C   UNL     1      36.794 -19.717 -20.604  0.00  0.00    -0.000 C 
ATOM      6  C   UNL     1      34.159 -19.228 -21.376  0.00  0.00    +0.023 C 
ATOM      7  C   UNL     1      36.513 -18.705 -21.521  0.00  0.00    +0.011 C 
ATOM      8  C   UNL     1      35.196 -18.460 -21.908  0.00  0.00    +0.058 C 
ENDROOT
BRANCH   3   9
ATOM      9  C   UNL     1      36.101 -21.560 -19.094  0.00  0.00    +0.164 C 
BRANCH   9  10
ATOM     10  O   UNL     1      36.811 -20.991 -18.001  0.00  0.00    -0.377 OA
ATOM     11  H   UNL     1      37.759 -20.974 -18.205  0.00  0.00    +0.211 HD
ENDBRANCH   9  10
ENDBRANCH   3   9
TORSDOF 2
ENDMDL
MODEL 8
REMARK VINA RESULT:      -5.7      4.830      6.004
REMARK  Name = 15684
REMARK  2 active torsions:
REMARK  status: ('A' for Active; 'I' for Inactive)
REMARK    1  A    between atoms: C_3  and  C_9
REMARK    2  A    between atoms: C_9  and  O_10
REMARK                            x       y       z     vdW  Elec       q    Type
REMARK                         _______ _______ _______ _____ _____    ______ ____
ROOT
ATOM      1 CL   UNL     1      35.483 -18.656 -23.519  0.00  0.00    -0.082 Cl
ATOM      2 CL   UNL     1      33.155 -14.856 -26.535  0.00  0.00    -0.082 Cl
ATOM      3  C   UNL     1      34.546 -16.311 -22.498  0.00  0.00    +0.018 C 
ATOM      4  C   UNL     1      34.730 -17.108 -23.628  0.00  0.00    +0.057 C 
ATOM      5  C   UNL     1      33.932 -15.064 -22.617  0.00  0.00    -0.000 C 
ATOM      6  C   UNL     1      34.299 -16.659 -24.876  0.00  0.00    +0.023 C 
ATOM      7  C   UNL     1      33.502 -14.615 -23.865  0.00  0.00    +0.011 C 
ATOM      8  C   UNL     1      33.686 -15.412 -24.995  0.00  0.00    +0.058 C 
ENDROOT
BRANCH   3   9
ATOM      9  C   UNL     1      34.993 -16.756 -21.144  0.00  0.00    +0.164 C 
BRANCH   9  10
ATOM     10  O   UNL     1      34.905 -15.664 -20.238  0.00  0.00    -0.377 OA
ATOM     11  H   UNL     1      34.600 -15.984 -19.375  0.00  0.00    +0.211 HD
ENDBRANCH   9  10
ENDBRANCH   3   9
TORSDOF 2
ENDMDL
MODEL 9
REMARK VINA RESULT:      -5.7      3.366      4.632
REMARK  Name = 15684
REMARK  2 active torsions:
REMARK  status: ('A' for Active; 'I' for Inactive)
REMARK    1  A    between atoms: C_3  and  C_9
REMARK    2  A    between atoms: C_9  and  O_10
REMARK                            x       y       z     vdW  Elec       q    Type
REMARK                         _______ _______ _______ _____ _____    ______ ____
ROOT
ATOM      1 CL   UNL     1      34.957 -19.127 -24.159  0.00  0.00    -0.082 Cl
ATOM      2 CL   UNL     1      34.161 -13.845 -23.498  0.00  0.00    -0.082 Cl
ATOM      3  C   UNL     1      34.961 -17.914 -21.721  0.00  0.00    +0.018 C 
ATOM      4  C   UNL     1      34.826 -17.770 -23.101  0.00  0.00    +0.057 C 
ATOM      5  C   UNL     1      34.848 -16.799 -20.890  0.00  0.00    -0.000 C 
ATOM      6  C   UNL     1      34.578 -16.513 -23.651  0.00  0.00    +0.023 C 
ATOM      7  C   UNL     1      34.601 -15.541 -21.440  0.00  0.00    +0.011 C 
ATOM      8  C   UNL     1      34.467 -15.398 -22.820  0.00  0.00    +0.058 C 
ENDROOT
BRANCH   3   9
ATOM      9  C   UNL     1      35.226 -19.243 -21.093  0.00  0.00    +0.164 C 
BRANCH   9  10
ATOM     10  O   UNL     1      36.468 -19.197 -20.402  0.00  0.00    -0.377 OA
ATOM     11  H   UNL     1      36.588 -18.317 -20.013  0.00  0.00    +0.211 HD
ENDBRANCH   9  10
ENDBRANCH   3   9
TORSDOF 2
ENDMDL
