MODEL 1
REMARK VINA RESULT:      -6.8      0.000      0.000
REMARK  Name = 637511
REMARK  2 active torsions:
REMARK  status: ('A' for Active; 'I' for Inactive)
REMARK    1  A    between atoms: C_1  and  C_7
REMARK    2  A    between atoms: C_8  and  C_10
REMARK                            x       y       z     vdW  Elec       q    Type
REMARK                         _______ _______ _______ _____ _____    ______ ____
ROOT
ATOM      1  C   UNL     1      34.482 -19.713 -21.186  0.00  0.00    +0.000 C 
ATOM      2  C   UNL     1      35.631 -20.351 -20.720  0.00  0.00    +0.000 C 
ATOM      3  C   UNL     1      33.233 -20.066 -20.676  0.00  0.00    +0.000 C 
ATOM      4  C   UNL     1      35.532 -21.344 -19.746  0.00  0.00    +0.000 C 
ATOM      5  C   UNL     1      33.133 -21.059 -19.701  0.00  0.00    +0.000 C 
ATOM      6  C   UNL     1      34.282 -21.697 -19.235  0.00  0.00    +0.000 C 
ENDROOT
BRANCH   1   7
ATOM      7  C   UNL     1      34.586 -18.677 -22.203  0.00  0.00    +0.003 C 
ATOM      8  C   UNL     1      34.827 -18.891 -23.514  0.00  0.00    +0.045 C 
BRANCH   8  10
ATOM      9  O   UNL     1      34.453 -17.772 -25.565  0.00  0.00    -0.283 OA
ATOM     10  C   UNL     1      34.916 -17.735 -24.431  0.00  0.00    +0.234 C 
ENDBRANCH   8  10
ENDBRANCH   1   7
TORSDOF 2
ENDMDL
MODEL 2
REMARK VINA RESULT:      -6.8      0.142      1.533
REMARK  Name = 637511
REMARK  2 active torsions:
REMARK  status: ('A' for Active; 'I' for Inactive)
REMARK    1  A    between atoms: C_1  and  C_7
REMARK    2  A    between atoms: C_8  and  C_10
REMARK                            x       y       z     vdW  Elec       q    Type
REMARK                         _______ _______ _______ _____ _____    ______ ____
ROOT
ATOM      1  C   UNL     1      34.521 -19.773 -21.122  0.00  0.00    +0.000 C 
ATOM      2  C   UNL     1      33.300 -20.211 -20.610  0.00  0.00    +0.000 C 
ATOM      3  C   UNL     1      35.712 -20.329 -20.655  0.00  0.00    +0.000 C 
ATOM      4  C   UNL     1      33.269 -21.204 -19.631  0.00  0.00    +0.000 C 
ATOM      5  C   UNL     1      35.682 -21.323 -19.677  0.00  0.00    +0.000 C 
ATOM      6  C   UNL     1      34.461 -21.761 -19.165  0.00  0.00    +0.000 C 
ENDROOT
BRANCH   1   7
ATOM      7  C   UNL     1      34.553 -18.737 -22.143  0.00  0.00    +0.003 C 
ATOM      8  C   UNL     1      34.887 -18.926 -23.438  0.00  0.00    +0.045 C 
BRANCH   8  10
ATOM      9  O   UNL     1      34.464 -17.864 -25.509  0.00  0.00    -0.283 OA
ATOM     10  C   UNL     1      34.883 -17.773 -24.361  0.00  0.00    +0.234 C 
ENDBRANCH   8  10
ENDBRANCH   1   7
TORSDOF 2
ENDMDL
MODEL 3
REMARK VINA RESULT:      -6.6      1.485      1.646
REMARK  Name = 637511
REMARK  2 active torsions:
REMARK  status: ('A' for Active; 'I' for Inactive)
REMARK    1  A    between atoms: C_1  and  C_7
REMARK    2  A    between atoms: C_8  and  C_10
REMARK                            x       y       z     vdW  Elec       q    Type
REMARK                         _______ _______ _______ _____ _____    ______ ____
ROOT
ATOM      1  C   UNL     1      34.504 -19.421 -20.997  0.00  0.00    +0.000 C 
ATOM      2  C   UNL     1      35.671 -20.095 -20.637  0.00  0.00    +0.000 C 
ATOM      3  C   UNL     1      33.264 -19.904 -20.581  0.00  0.00    +0.000 C 
ATOM      4  C   UNL     1      35.598 -21.252 -19.862  0.00  0.00    +0.000 C 
ATOM      5  C   UNL     1      33.190 -21.061 -19.805  0.00  0.00    +0.000 C 
ATOM      6  C   UNL     1      34.357 -21.735 -19.445  0.00  0.00    +0.000 C 
ENDROOT
BRANCH   1   7
ATOM      7  C   UNL     1      34.580 -18.214 -21.805  0.00  0.00    +0.003 C 
ATOM      8  C   UNL     1      34.635 -16.953 -21.324  0.00  0.00    +0.045 C 
BRANCH   8  10
ATOM      9  O   UNL     1      35.344 -15.882 -23.311  0.00  0.00    -0.283 OA
ATOM     10  C   UNL     1      34.700 -15.820 -22.270  0.00  0.00    +0.234 C 
ENDBRANCH   8  10
ENDBRANCH   1   7
TORSDOF 2
ENDMDL
MODEL 4
REMARK VINA RESULT:      -6.5      2.597      4.968
REMARK  Name = 637511
REMARK  2 active torsions:
REMARK  status: ('A' for Active; 'I' for Inactive)
REMARK    1  A    between atoms: C_1  and  C_7
REMARK    2  A    between atoms: C_8  and  C_10
REMARK                            x       y       z     vdW  Elec       q    Type
REMARK                         _______ _______ _______ _____ _____    ______ ____
ROOT
ATOM      1  C   UNL     1      34.671 -18.721 -21.987  0.00  0.00    +0.000 C 
ATOM      2  C   UNL     1      34.741 -19.033 -23.344  0.00  0.00    +0.000 C 
ATOM      3  C   UNL     1      34.728 -17.390 -21.573  0.00  0.00    +0.000 C 
ATOM      4  C   UNL     1      34.868 -18.014 -24.289  0.00  0.00    +0.000 C 
ATOM      5  C   UNL     1      34.854 -16.371 -22.517  0.00  0.00    +0.000 C 
ATOM      6  C   UNL     1      34.924 -16.682 -23.875  0.00  0.00    +0.000 C 
ENDROOT
BRANCH   1   7
ATOM      7  C   UNL     1      34.538 -19.784 -21.002  0.00  0.00    +0.003 C 
ATOM      8  C   UNL     1      33.376 -20.206 -20.461  0.00  0.00    +0.045 C 
BRANCH   8  10
ATOM      9  O   UNL     1      32.979 -22.417 -19.717  0.00  0.00    -0.283 OA
ATOM     10  C   UNL     1      33.396 -21.294 -19.461  0.00  0.00    +0.234 C 
ENDBRANCH   8  10
ENDBRANCH   1   7
TORSDOF 2
ENDMDL
MODEL 5
REMARK VINA RESULT:      -6.5      2.592      5.042
REMARK  Name = 637511
REMARK  2 active torsions:
REMARK  status: ('A' for Active; 'I' for Inactive)
REMARK    1  A    between atoms: C_1  and  C_7
REMARK    2  A    between atoms: C_8  and  C_10
REMARK                            x       y       z     vdW  Elec       q    Type
REMARK                         _______ _______ _______ _____ _____    ______ ____
ROOT
ATOM      1  C   UNL     1      34.767 -18.745 -22.265  0.00  0.00    +0.000 C 
ATOM      2  C   UNL     1      34.927 -17.404 -21.920  0.00  0.00    +0.000 C 
ATOM      3  C   UNL     1      34.670 -19.113 -23.607  0.00  0.00    +0.000 C 
ATOM      4  C   UNL     1      34.991 -16.429 -22.916  0.00  0.00    +0.000 C 
ATOM      5  C   UNL     1      34.734 -18.139 -24.604  0.00  0.00    +0.000 C 
ATOM      6  C   UNL     1      34.895 -16.797 -24.258  0.00  0.00    +0.000 C 
ENDROOT
BRANCH   1   7
ATOM      7  C   UNL     1      34.701 -19.761 -21.226  0.00  0.00    +0.003 C 
ATOM      8  C   UNL     1      33.568 -20.214 -20.647  0.00  0.00    +0.045 C 
BRANCH   8  10
ATOM      9  O   UNL     1      32.718 -21.990 -19.335  0.00  0.00    -0.283 OA
ATOM     10  C   UNL     1      33.657 -21.246 -19.593  0.00  0.00    +0.234 C 
ENDBRANCH   8  10
ENDBRANCH   1   7
TORSDOF 2
ENDMDL
MODEL 6
REMARK VINA RESULT:      -6.2      3.773      5.652
REMARK  Name = 637511
REMARK  2 active torsions:
REMARK  status: ('A' for Active; 'I' for Inactive)
REMARK    1  A    between atoms: C_1  and  C_7
REMARK    2  A    between atoms: C_8  and  C_10
REMARK                            x       y       z     vdW  Elec       q    Type
REMARK                         _______ _______ _______ _____ _____    ______ ____
ROOT
ATOM      1  C   UNL     1      34.294 -21.242 -19.632  0.00  0.00    +0.000 C 
ATOM      2  C   UNL     1      35.462 -20.757 -20.221  0.00  0.00    +0.000 C 
ATOM      3  C   UNL     1      33.058 -20.703 -19.988  0.00  0.00    +0.000 C 
ATOM      4  C   UNL     1      35.394 -19.732 -21.165  0.00  0.00    +0.000 C 
ATOM      5  C   UNL     1      32.990 -19.678 -20.933  0.00  0.00    +0.000 C 
ATOM      6  C   UNL     1      34.158 -19.193 -21.521  0.00  0.00    +0.000 C 
ENDROOT
BRANCH   1   7
ATOM      7  C   UNL     1      34.365 -22.311 -18.648  0.00  0.00    +0.003 C 
ATOM      8  C   UNL     1      33.353 -22.700 -17.843  0.00  0.00    +0.045 C 
BRANCH   8  10
ATOM      9  O   UNL     1      34.671 -24.001 -16.371  0.00  0.00    -0.283 OA
ATOM     10  C   UNL     1      33.576 -23.799 -16.881  0.00  0.00    +0.234 C 
ENDBRANCH   8  10
ENDBRANCH   1   7
TORSDOF 2
ENDMDL
MODEL 7
REMARK VINA RESULT:      -6.2      2.714      4.941
REMARK  Name = 637511
REMARK  2 active torsions:
REMARK  status: ('A' for Active; 'I' for Inactive)
REMARK    1  A    between atoms: C_1  and  C_7
REMARK    2  A    between atoms: C_8  and  C_10
REMARK                            x       y       z     vdW  Elec       q    Type
REMARK                         _______ _______ _______ _____ _____    ______ ____
ROOT
ATOM      1  C   UNL     1      34.804 -18.968 -21.646  0.00  0.00    +0.000 C 
ATOM      2  C   UNL     1      34.905 -17.643 -21.224  0.00  0.00    +0.000 C 
ATOM      3  C   UNL     1      34.816 -19.269 -23.007  0.00  0.00    +0.000 C 
ATOM      4  C   UNL     1      35.019 -16.618 -22.163  0.00  0.00    +0.000 C 
ATOM      5  C   UNL     1      34.931 -18.245 -23.948  0.00  0.00    +0.000 C 
ATOM      6  C   UNL     1      35.032 -16.920 -23.526  0.00  0.00    +0.000 C 
ENDROOT
BRANCH   1   7
ATOM      7  C   UNL     1      34.686 -20.037 -20.665  0.00  0.00    +0.003 C 
ATOM      8  C   UNL     1      35.715 -20.743 -20.151  0.00  0.00    +0.045 C 
BRANCH   8  10
ATOM      9  O   UNL     1      34.814 -22.820 -19.465  0.00  0.00    -0.283 OA
ATOM     10  C   UNL     1      35.441 -21.810 -19.167  0.00  0.00    +0.234 C 
ENDBRANCH   8  10
ENDBRANCH   1   7
TORSDOF 2
ENDMDL
MODEL 8
REMARK VINA RESULT:      -6.2      3.927      5.656
REMARK  Name = 637511
REMARK  2 active torsions:
REMARK  status: ('A' for Active; 'I' for Inactive)
REMARK    1  A    between atoms: C_1  and  C_7
REMARK    2  A    between atoms: C_8  and  C_10
REMARK                            x       y       z     vdW  Elec       q    Type
REMARK                         _______ _______ _______ _____ _____    ______ ____
ROOT
ATOM      1  C   UNL     1      35.015 -21.246 -19.392  0.00  0.00    +0.000 C 
ATOM      2  C   UNL     1      35.876 -20.516 -20.211  0.00  0.00    +0.000 C 
ATOM      3  C   UNL     1      33.637 -21.181 -19.595  0.00  0.00    +0.000 C 
ATOM      4  C   UNL     1      35.358 -19.720 -21.233  0.00  0.00    +0.000 C 
ATOM      5  C   UNL     1      33.119 -20.386 -20.618  0.00  0.00    +0.000 C 
ATOM      6  C   UNL     1      33.979 -19.656 -21.437  0.00  0.00    +0.000 C 
ENDROOT
BRANCH   1   7
ATOM      7  C   UNL     1      35.555 -22.077 -18.327  0.00  0.00    +0.003 C 
ATOM      8  C   UNL     1      36.512 -21.701 -17.451  0.00  0.00    +0.045 C 
BRANCH   8  10
ATOM      9  O   UNL     1      38.138 -22.702 -16.055  0.00  0.00    -0.283 OA
ATOM     10  C   UNL     1      36.970 -22.659 -16.424  0.00  0.00    +0.234 C 
ENDBRANCH   8  10
ENDBRANCH   1   7
TORSDOF 2
ENDMDL
MODEL 9
REMARK VINA RESULT:      -6.1      3.652      5.634
REMARK  Name = 637511
REMARK  2 active torsions:
REMARK  status: ('A' for Active; 'I' for Inactive)
REMARK    1  A    between atoms: C_1  and  C_7
REMARK    2  A    between atoms: C_8  and  C_10
REMARK                            x       y       z     vdW  Elec       q    Type
REMARK                         _______ _______ _______ _____ _____    ______ ____
ROOT
ATOM      1  C   UNL     1      34.144 -20.931 -19.887  0.00  0.00    +0.000 C 
ATOM      2  C   UNL     1      33.413 -20.027 -20.658  0.00  0.00    +0.000 C 
ATOM      3  C   UNL     1      35.538 -20.885 -19.895  0.00  0.00    +0.000 C 
ATOM      4  C   UNL     1      34.076 -19.078 -21.437  0.00  0.00    +0.000 C 
ATOM      5  C   UNL     1      36.201 -19.936 -20.673  0.00  0.00    +0.000 C 
ATOM      6  C   UNL     1      35.470 -19.032 -21.444  0.00  0.00    +0.000 C 
ENDROOT
BRANCH   1   7
ATOM      7  C   UNL     1      33.453 -21.920 -19.075  0.00  0.00    +0.003 C 
ATOM      8  C   UNL     1      33.997 -22.603 -18.044  0.00  0.00    +0.045 C 
BRANCH   8  10
ATOM      9  O   UNL     1      32.144 -23.265 -16.732  0.00  0.00    -0.283 OA
ATOM     10  C   UNL     1      33.173 -23.587 -17.314  0.00  0.00    +0.234 C 
ENDBRANCH   8  10
ENDBRANCH   1   7
TORSDOF 2
ENDMDL
