MODEL 1
REMARK VINA RESULT:     -10.8      0.000      0.000
REMARK  Name = 185460
REMARK  11 active torsions:
REMARK  status: ('A' for Active; 'I' for Inactive)
REMARK    1  A    between atoms: N_1  and  C_22
REMARK    2  A    between atoms: C_2  and  C_10
REMARK    3  A    between atoms: N_8  and  C_17
REMARK    4  A    between atoms: C_17  and  C_18
REMARK    5  A    between atoms: C_18  and  O_19
REMARK    6  A    between atoms: O_19  and  C_20
REMARK    7  A    between atoms: C_22  and  C_23
REMARK    8  A    between atoms: C_23  and  C_24
REMARK    9  A    between atoms: C_27  and  C_30
REMARK   10  A    between atoms: C_30  and  C_34
REMARK   11  A    between atoms: C_34  and  O_35
REMARK                            x       y       z     vdW  Elec       q    Type
REMARK                         _______ _______ _______ _____ _____    ______ ____
ROOT
ATOM      1  N   UNL     1      35.091 -19.785 -20.254  0.00  0.00    +0.387 N 
ATOM      2  C   UNL     1      34.171 -17.443 -21.755  0.00  0.00    +0.063 C 
ATOM      3  C   UNL     1      33.200 -18.389 -21.032  0.00  0.00    -0.014 C 
ATOM      4  C   UNL     1      35.555 -17.502 -21.092  0.00  0.00    -0.014 C 
ATOM      5  C   UNL     1      33.784 -19.801 -20.925  0.00  0.00    -0.077 C 
ATOM      6  C   UNL     1      36.053 -18.946 -20.983  0.00  0.00    -0.077 C 
ATOM      7  H   UNL     1      34.962 -19.381 -19.325  0.00  0.00    -0.080 HD
ENDROOT
BRANCH   2  10
ATOM      8  N   UNL     1      33.893 -15.212 -22.911  0.00  0.00    -0.262 N 
ATOM      9  N   UNL     1      32.887 -15.426 -20.941  0.00  0.00    -0.394 NA
ATOM     10  C   UNL     1      33.635 -16.024 -21.841  0.00  0.00    +0.163 C 
ATOM     11  C   UNL     1      33.271 -14.011 -22.685  0.00  0.00    +0.079 C 
ATOM     12  C   UNL     1      32.651 -14.170 -21.449  0.00  0.00    +0.128 C 
ATOM     13  C   UNL     1      33.201 -12.835 -23.433  0.00  0.00    +0.017 C 
ATOM     14  C   UNL     1      31.910 -13.102 -20.912  0.00  0.00    +0.086 C 
ATOM     15  C   UNL     1      32.461 -11.783 -22.883  0.00  0.00    -0.003 C 
ATOM     16  C   UNL     1      31.827 -11.912 -21.646  0.00  0.00    -0.019 C 
BRANCH   8  17
ATOM     17  C   UNL     1      34.681 -15.555 -24.074  0.00  0.00    +0.130 C 
BRANCH  17  18
ATOM     18  C   UNL     1      33.872 -16.300 -25.127  0.00  0.00    +0.164 C 
BRANCH  18  19
ATOM     19  O   UNL     1      33.900 -15.579 -26.352  0.00  0.00    -0.352 OA
BRANCH  19  20
ATOM     20  C   UNL     1      32.813 -14.669 -26.446  0.00  0.00    +0.142 C 
ATOM     21  C   UNL     1      33.294 -13.393 -27.104  0.00  0.00    +0.035 C 
ENDBRANCH  19  20
ENDBRANCH  18  19
ENDBRANCH  17  18
ENDBRANCH   8  17
ENDBRANCH   2  10
BRANCH   1  22
ATOM     22  C   UNL     1      35.606 -21.146 -20.109  0.00  0.00    -0.073 C 
BRANCH  22  23
ATOM     23  C   UNL     1      36.778 -21.186 -19.126  0.00  0.00    +0.004 C 
BRANCH  23  24
ATOM     24  C   UNL     1      36.424 -21.953 -17.876  0.00  0.00    -0.024 C 
ATOM     25  C   UNL     1      37.393 -22.178 -16.898  0.00  0.00    -0.005 C 
ATOM     26  C   UNL     1      35.128 -22.436 -17.697  0.00  0.00    -0.005 C 
ATOM     27  C   UNL     1      35.770 -23.369 -15.563  0.00  0.00    -0.013 C 
ATOM     28  C   UNL     1      37.066 -22.886 -15.742  0.00  0.00    -0.004 C 
ATOM     29  C   UNL     1      34.801 -23.144 -16.541  0.00  0.00    -0.004 C 
BRANCH  27  30
ATOM     30  C   UNL     1      35.421 -24.126 -14.327  0.00  0.00    +0.108 C 
ATOM     31  C   UNL     1      36.043 -23.428 -13.074  0.00  0.00    +0.016 C 
ATOM     32  C   UNL     1      33.887 -24.252 -14.036  0.00  0.00    +0.016 C 
BRANCH  30  34
ATOM     33  O   UNL     1      35.933 -26.245 -15.447  0.00  0.00    -0.250 OA
ATOM     34  C   UNL     1      35.935 -25.598 -14.405  0.00  0.00    +0.317 C 
BRANCH  34  35
ATOM     35  O   UNL     1      36.358 -26.140 -13.234  0.00  0.00    -0.480 OA
ATOM     36  H   UNL     1      35.814 -26.094 -12.472  0.00  0.00    +0.295 HD
ENDBRANCH  34  35
ENDBRANCH  30  34
ENDBRANCH  27  30
ENDBRANCH  23  24
ENDBRANCH  22  23
ENDBRANCH   1  22
TORSDOF 11
ENDMDL
MODEL 2
REMARK VINA RESULT:     -10.8      1.576      3.260
REMARK  Name = 185460
REMARK  11 active torsions:
REMARK  status: ('A' for Active; 'I' for Inactive)
REMARK    1  A    between atoms: N_1  and  C_22
REMARK    2  A    between atoms: C_2  and  C_10
REMARK    3  A    between atoms: N_8  and  C_17
REMARK    4  A    between atoms: C_17  and  C_18
REMARK    5  A    between atoms: C_18  and  O_19
REMARK    6  A    between atoms: O_19  and  C_20
REMARK    7  A    between atoms: C_22  and  C_23
REMARK    8  A    between atoms: C_23  and  C_24
REMARK    9  A    between atoms: C_27  and  C_30
REMARK   10  A    between atoms: C_30  and  C_34
REMARK   11  A    between atoms: C_34  and  O_35
REMARK                            x       y       z     vdW  Elec       q    Type
REMARK                         _______ _______ _______ _____ _____    ______ ____
ROOT
ATOM      1  N   UNL     1      35.655 -20.715 -20.406  0.00  0.00    +0.387 N 
ATOM      2  C   UNL     1      34.833 -18.097 -21.434  0.00  0.00    +0.063 C 
ATOM      3  C   UNL     1      36.277 -18.610 -21.551  0.00  0.00    -0.014 C 
ATOM      4  C   UNL     1      33.860 -19.282 -21.330  0.00  0.00    -0.014 C 
ATOM      5  C   UNL     1      36.605 -19.595 -20.425  0.00  0.00    -0.077 C 
ATOM      6  C   UNL     1      34.277 -20.242 -20.212  0.00  0.00    -0.077 C 
ATOM      7  H   UNL     1      35.702 -21.183 -21.312  0.00  0.00    -0.080 HD
ENDROOT
BRANCH   2  10
ATOM      8  N   UNL     1      34.161 -15.834 -22.337  0.00  0.00    -0.262 N 
ATOM      9  N   UNL     1      34.399 -17.456 -23.838  0.00  0.00    -0.394 NA
ATOM     10  C   UNL     1      34.465 -17.148 -22.562  0.00  0.00    +0.163 C 
ATOM     11  C   UNL     1      33.880 -15.257 -23.548  0.00  0.00    +0.079 C 
ATOM     12  C   UNL     1      34.035 -16.289 -24.469  0.00  0.00    +0.128 C 
ATOM     13  C   UNL     1      33.513 -13.959 -23.907  0.00  0.00    +0.017 C 
ATOM     14  C   UNL     1      33.817 -16.030 -25.833  0.00  0.00    +0.086 C 
ATOM     15  C   UNL     1      33.300 -13.719 -25.268  0.00  0.00    -0.003 C 
ATOM     16  C   UNL     1      33.448 -14.734 -26.215  0.00  0.00    -0.019 C 
BRANCH   8  17
ATOM     17  C   UNL     1      34.139 -15.169 -21.054  0.00  0.00    +0.130 C 
BRANCH  17  18
ATOM     18  C   UNL     1      32.726 -14.846 -20.588  0.00  0.00    +0.164 C 
BRANCH  18  19
ATOM     19  O   UNL     1      32.654 -13.487 -20.180  0.00  0.00    -0.352 OA
BRANCH  19  20
ATOM     20  C   UNL     1      31.887 -12.710 -21.089  0.00  0.00    +0.142 C 
ATOM     21  C   UNL     1      31.337 -11.500 -20.362  0.00  0.00    +0.035 C 
ENDBRANCH  19  20
ENDBRANCH  18  19
ENDBRANCH  17  18
ENDBRANCH   8  17
ENDBRANCH   2  10
BRANCH   1  22
ATOM     22  C   UNL     1      36.018 -21.674 -19.362  0.00  0.00    -0.073 C 
BRANCH  22  23
ATOM     23  C   UNL     1      34.786 -22.110 -18.567  0.00  0.00    +0.004 C 
BRANCH  23  24
ATOM     24  C   UNL     1      35.164 -22.613 -17.196  0.00  0.00    -0.024 C 
ATOM     25  C   UNL     1      34.234 -23.319 -16.432  0.00  0.00    -0.005 C 
ATOM     26  C   UNL     1      36.442 -22.373 -16.693  0.00  0.00    -0.005 C 
ATOM     27  C   UNL     1      35.861 -23.545 -14.660  0.00  0.00    -0.013 C 
ATOM     28  C   UNL     1      34.583 -23.785 -15.164  0.00  0.00    -0.004 C 
ATOM     29  C   UNL     1      36.791 -22.839 -15.425  0.00  0.00    -0.004 C 
BRANCH  27  30
ATOM     30  C   UNL     1      36.233 -24.043 -13.305  0.00  0.00    +0.108 C 
ATOM     31  C   UNL     1      37.352 -23.141 -12.690  0.00  0.00    +0.016 C 
ATOM     32  C   UNL     1      35.067 -24.060 -12.261  0.00  0.00    +0.016 C 
BRANCH  30  34
ATOM     33  O   UNL     1      37.078 -26.058 -14.415  0.00  0.00    -0.250 OA
ATOM     34  C   UNL     1      36.737 -25.519 -13.367  0.00  0.00    +0.317 C 
BRANCH  34  35
ATOM     35  O   UNL     1      36.744 -26.192 -12.188  0.00  0.00    -0.480 OA
ATOM     36  H   UNL     1      36.480 -25.759 -11.400  0.00  0.00    +0.295 HD
ENDBRANCH  34  35
ENDBRANCH  30  34
ENDBRANCH  27  30
ENDBRANCH  23  24
ENDBRANCH  22  23
ENDBRANCH   1  22
TORSDOF 11
ENDMDL
MODEL 3
REMARK VINA RESULT:     -10.7      1.888      3.558
REMARK  Name = 185460
REMARK  11 active torsions:
REMARK  status: ('A' for Active; 'I' for Inactive)
REMARK    1  A    between atoms: N_1  and  C_22
REMARK    2  A    between atoms: C_2  and  C_10
REMARK    3  A    between atoms: N_8  and  C_17
REMARK    4  A    between atoms: C_17  and  C_18
REMARK    5  A    between atoms: C_18  and  O_19
REMARK    6  A    between atoms: O_19  and  C_20
REMARK    7  A    between atoms: C_22  and  C_23
REMARK    8  A    between atoms: C_23  and  C_24
REMARK    9  A    between atoms: C_27  and  C_30
REMARK   10  A    between atoms: C_30  and  C_34
REMARK   11  A    between atoms: C_34  and  O_35
REMARK                            x       y       z     vdW  Elec       q    Type
REMARK                         _______ _______ _______ _____ _____    ______ ____
ROOT
ATOM      1  N   UNL     1      35.831 -20.688 -20.519  0.00  0.00    +0.387 N 
ATOM      2  C   UNL     1      34.947 -18.076 -21.512  0.00  0.00    +0.063 C 
ATOM      3  C   UNL     1      36.385 -18.584 -21.701  0.00  0.00    -0.014 C 
ATOM      4  C   UNL     1      33.986 -19.264 -21.355  0.00  0.00    -0.014 C 
ATOM      5  C   UNL     1      36.774 -19.564 -20.590  0.00  0.00    -0.077 C 
ATOM      6  C   UNL     1      34.463 -20.218 -20.256  0.00  0.00    -0.077 C 
ATOM      7  H   UNL     1      35.833 -21.158 -21.425  0.00  0.00    -0.080 HD
ENDROOT
BRANCH   2  10
ATOM      8  N   UNL     1      34.178 -15.831 -22.380  0.00  0.00    -0.262 N 
ATOM      9  N   UNL     1      34.431 -17.434 -23.899  0.00  0.00    -0.394 NA
ATOM     10  C   UNL     1      34.519 -17.132 -22.623  0.00  0.00    +0.163 C 
ATOM     11  C   UNL     1      33.846 -15.255 -23.579  0.00  0.00    +0.079 C 
ATOM     12  C   UNL     1      34.012 -16.276 -24.512  0.00  0.00    +0.128 C 
ATOM     13  C   UNL     1      33.427 -13.968 -23.919  0.00  0.00    +0.017 C 
ATOM     14  C   UNL     1      33.750 -16.014 -25.868  0.00  0.00    +0.086 C 
ATOM     15  C   UNL     1      33.170 -13.725 -25.272  0.00  0.00    -0.003 C 
ATOM     16  C   UNL     1      33.328 -14.728 -26.231  0.00  0.00    -0.019 C 
BRANCH   8  17
ATOM     17  C   UNL     1      34.167 -15.176 -21.092  0.00  0.00    +0.130 C 
BRANCH  17  18
ATOM     18  C   UNL     1      32.756 -14.923 -20.578  0.00  0.00    +0.164 C 
BRANCH  18  19
ATOM     19  O   UNL     1      32.644 -13.580 -20.126  0.00  0.00    -0.352 OA
BRANCH  19  20
ATOM     20  C   UNL     1      31.903 -12.783 -21.039  0.00  0.00    +0.142 C 
ATOM     21  C   UNL     1      31.485 -11.501 -20.348  0.00  0.00    +0.035 C 
ENDBRANCH  19  20
ENDBRANCH  18  19
ENDBRANCH  17  18
ENDBRANCH   8  17
ENDBRANCH   2  10
BRANCH   1  22
ATOM     22  C   UNL     1      36.250 -21.641 -19.492  0.00  0.00    -0.073 C 
BRANCH  22  23
ATOM     23  C   UNL     1      35.153 -21.834 -18.443  0.00  0.00    +0.004 C 
BRANCH  23  24
ATOM     24  C   UNL     1      35.699 -22.450 -17.180  0.00  0.00    -0.024 C 
ATOM     25  C   UNL     1      34.866 -23.208 -16.356  0.00  0.00    -0.005 C 
ATOM     26  C   UNL     1      37.038 -22.263 -16.834  0.00  0.00    -0.005 C 
ATOM     27  C   UNL     1      36.709 -23.592 -14.842  0.00  0.00    -0.013 C 
ATOM     28  C   UNL     1      35.371 -23.778 -15.188  0.00  0.00    -0.004 C 
ATOM     29  C   UNL     1      37.542 -22.834 -15.666  0.00  0.00    -0.004 C 
BRANCH  27  30
ATOM     30  C   UNL     1      37.248 -24.201 -13.593  0.00  0.00    +0.108 C 
ATOM     31  C   UNL     1      36.369 -25.420 -13.166  0.00  0.00    +0.016 C 
ATOM     32  C   UNL     1      38.715 -24.740 -13.697  0.00  0.00    +0.016 C 
BRANCH  30  34
ATOM     33  O   UNL     1      38.331 -22.676 -12.009  0.00  0.00    -0.250 OA
ATOM     34  C   UNL     1      37.286 -23.161 -12.430  0.00  0.00    +0.317 C 
BRANCH  34  35
ATOM     35  O   UNL     1      36.085 -22.844 -11.881  0.00  0.00    -0.480 OA
ATOM     36  H   UNL     1      35.990 -22.810 -10.949  0.00  0.00    +0.295 HD
ENDBRANCH  34  35
ENDBRANCH  30  34
ENDBRANCH  27  30
ENDBRANCH  23  24
ENDBRANCH  22  23
ENDBRANCH   1  22
TORSDOF 11
ENDMDL
MODEL 4
REMARK VINA RESULT:     -10.4      2.113      2.972
REMARK  Name = 185460
REMARK  11 active torsions:
REMARK  status: ('A' for Active; 'I' for Inactive)
REMARK    1  A    between atoms: N_1  and  C_22
REMARK    2  A    between atoms: C_2  and  C_10
REMARK    3  A    between atoms: N_8  and  C_17
REMARK    4  A    between atoms: C_17  and  C_18
REMARK    5  A    between atoms: C_18  and  O_19
REMARK    6  A    between atoms: O_19  and  C_20
REMARK    7  A    between atoms: C_22  and  C_23
REMARK    8  A    between atoms: C_23  and  C_24
REMARK    9  A    between atoms: C_27  and  C_30
REMARK   10  A    between atoms: C_30  and  C_34
REMARK   11  A    between atoms: C_34  and  O_35
REMARK                            x       y       z     vdW  Elec       q    Type
REMARK                         _______ _______ _______ _____ _____    ______ ____
ROOT
ATOM      1  N   UNL     1      34.975 -20.514 -19.904  0.00  0.00    +0.387 N 
ATOM      2  C   UNL     1      34.236 -18.199 -21.541  0.00  0.00    +0.063 C 
ATOM      3  C   UNL     1      33.193 -19.043 -20.792  0.00  0.00    -0.014 C 
ATOM      4  C   UNL     1      35.602 -18.313 -20.847  0.00  0.00    -0.014 C 
ATOM      5  C   UNL     1      33.681 -20.481 -20.600  0.00  0.00    -0.077 C 
ATOM      6  C   UNL     1      36.002 -19.779 -20.654  0.00  0.00    -0.077 C 
ATOM      7  H   UNL     1      34.856 -20.056 -19.000  0.00  0.00    -0.080 HD
ENDROOT
BRANCH   2  10
ATOM      8  N   UNL     1      34.215 -15.985 -22.760  0.00  0.00    -0.262 N 
ATOM      9  N   UNL     1      32.990 -16.096 -20.908  0.00  0.00    -0.394 NA
ATOM     10  C   UNL     1      33.795 -16.755 -21.710  0.00  0.00    +0.163 C 
ATOM     11  C   UNL     1      33.643 -14.747 -22.625  0.00  0.00    +0.079 C 
ATOM     12  C   UNL     1      32.883 -14.841 -21.462  0.00  0.00    +0.128 C 
ATOM     13  C   UNL     1      33.722 -13.586 -23.396  0.00  0.00    +0.017 C 
ATOM     14  C   UNL     1      32.152 -13.722 -21.028  0.00  0.00    +0.086 C 
ATOM     15  C   UNL     1      32.989 -12.482 -22.949  0.00  0.00    -0.003 C 
ATOM     16  C   UNL     1      32.217 -12.546 -21.787  0.00  0.00    -0.019 C 
BRANCH   8  17
ATOM     17  C   UNL     1      35.103 -16.399 -23.823  0.00  0.00    +0.130 C 
BRANCH  17  18
ATOM     18  C   UNL     1      34.423 -16.395 -25.185  0.00  0.00    +0.164 C 
BRANCH  18  19
ATOM     19  O   UNL     1      34.584 -17.664 -25.804  0.00  0.00    -0.352 OA
BRANCH  19  20
ATOM     20  C   UNL     1      33.947 -18.692 -25.058  0.00  0.00    +0.142 C 
ATOM     21  C   UNL     1      34.974 -19.742 -24.689  0.00  0.00    +0.035 C 
ENDBRANCH  19  20
ENDBRANCH  18  19
ENDBRANCH  17  18
ENDBRANCH   8  17
ENDBRANCH   2  10
BRANCH   1  22
ATOM     22  C   UNL     1      35.397 -21.897 -19.679  0.00  0.00    -0.073 C 
BRANCH  22  23
ATOM     23  C   UNL     1      35.774 -22.123 -18.214  0.00  0.00    +0.004 C 
BRANCH  23  24
ATOM     24  C   UNL     1      34.585 -22.564 -17.399  0.00  0.00    -0.024 C 
ATOM     25  C   UNL     1      33.340 -22.721 -18.011  0.00  0.00    -0.005 C 
ATOM     26  C   UNL     1      34.728 -22.818 -16.035  0.00  0.00    -0.005 C 
ATOM     27  C   UNL     1      32.383 -23.383 -15.894  0.00  0.00    -0.013 C 
ATOM     28  C   UNL     1      32.240 -23.130 -17.258  0.00  0.00    -0.004 C 
ATOM     29  C   UNL     1      33.627 -23.227 -15.283  0.00  0.00    -0.004 C 
BRANCH  27  30
ATOM     30  C   UNL     1      31.206 -23.821 -15.090  0.00  0.00    +0.108 C 
ATOM     31  C   UNL     1      30.130 -22.687 -15.051  0.00  0.00    +0.016 C 
ATOM     32  C   UNL     1      30.472 -25.096 -15.626  0.00  0.00    +0.016 C 
BRANCH  30  34
ATOM     33  O   UNL     1      31.595 -23.370 -12.713  0.00  0.00    -0.250 OA
ATOM     34  C   UNL     1      31.625 -24.183 -13.631  0.00  0.00    +0.317 C 
BRANCH  34  35
ATOM     35  O   UNL     1      32.063 -25.454 -13.439  0.00  0.00    -0.480 OA
ATOM     36  H   UNL     1      31.735 -25.959 -12.721  0.00  0.00    +0.295 HD
ENDBRANCH  34  35
ENDBRANCH  30  34
ENDBRANCH  27  30
ENDBRANCH  23  24
ENDBRANCH  22  23
ENDBRANCH   1  22
TORSDOF 11
ENDMDL
MODEL 5
REMARK VINA RESULT:     -10.2      2.198      4.189
REMARK  Name = 185460
REMARK  11 active torsions:
REMARK  status: ('A' for Active; 'I' for Inactive)
REMARK    1  A    between atoms: N_1  and  C_22
REMARK    2  A    between atoms: C_2  and  C_10
REMARK    3  A    between atoms: N_8  and  C_17
REMARK    4  A    between atoms: C_17  and  C_18
REMARK    5  A    between atoms: C_18  and  O_19
REMARK    6  A    between atoms: O_19  and  C_20
REMARK    7  A    between atoms: C_22  and  C_23
REMARK    8  A    between atoms: C_23  and  C_24
REMARK    9  A    between atoms: C_27  and  C_30
REMARK   10  A    between atoms: C_30  and  C_34
REMARK   11  A    between atoms: C_34  and  O_35
REMARK                            x       y       z     vdW  Elec       q    Type
REMARK                         _______ _______ _______ _____ _____    ______ ____
ROOT
ATOM      1  N   UNL     1      34.098 -22.484 -19.280  0.00  0.00    +0.387 N 
ATOM      2  C   UNL     1      34.444 -19.873 -20.563  0.00  0.00    +0.063 C 
ATOM      3  C   UNL     1      35.540 -20.950 -20.581  0.00  0.00    -0.014 C 
ATOM      4  C   UNL     1      33.065 -20.529 -20.392  0.00  0.00    -0.014 C 
ATOM      5  C   UNL     1      35.429 -21.869 -19.361  0.00  0.00    -0.077 C 
ATOM      6  C   UNL     1      33.045 -21.464 -19.180  0.00  0.00    -0.077 C 
ATOM      7  H   UNL     1      33.943 -23.013 -20.139  0.00  0.00    -0.080 HD
ENDROOT
BRANCH   2  10
ATOM      8  N   UNL     1      34.703 -17.620 -21.680  0.00  0.00    -0.262 N 
ATOM      9  N   UNL     1      34.383 -19.354 -23.034  0.00  0.00    -0.394 NA
ATOM     10  C   UNL     1      34.505 -18.969 -21.783  0.00  0.00    +0.163 C 
ATOM     11  C   UNL     1      34.709 -17.100 -22.948  0.00  0.00    +0.079 C 
ATOM     12  C   UNL     1      34.507 -18.202 -23.775  0.00  0.00    +0.128 C 
ATOM     13  C   UNL     1      34.867 -15.800 -23.429  0.00  0.00    +0.017 C 
ATOM     14  C   UNL     1      34.459 -18.014 -25.167  0.00  0.00    +0.086 C 
ATOM     15  C   UNL     1      34.816 -15.631 -24.817  0.00  0.00    -0.003 C 
ATOM     16  C   UNL     1      34.616 -16.716 -25.672  0.00  0.00    -0.019 C 
BRANCH   8  17
ATOM     17  C   UNL     1      34.876 -16.873 -20.454  0.00  0.00    +0.130 C 
BRANCH  17  18
ATOM     18  C   UNL     1      34.479 -15.410 -20.603  0.00  0.00    +0.164 C 
BRANCH  18  19
ATOM     19  O   UNL     1      33.075 -15.274 -20.425  0.00  0.00    -0.352 OA
BRANCH  19  20
ATOM     20  C   UNL     1      32.652 -13.933 -20.630  0.00  0.00    +0.142 C 
ATOM     21  C   UNL     1      32.321 -13.739 -22.094  0.00  0.00    +0.035 C 
ENDBRANCH  19  20
ENDBRANCH  18  19
ENDBRANCH  17  18
ENDBRANCH   8  17
ENDBRANCH   2  10
BRANCH   1  22
ATOM     22  C   UNL     1      34.029 -23.403 -18.143  0.00  0.00    -0.073 C 
BRANCH  22  23
ATOM     23  C   UNL     1      33.992 -22.636 -16.820  0.00  0.00    +0.004 C 
BRANCH  23  24
ATOM     24  C   UNL     1      34.956 -23.218 -15.818  0.00  0.00    -0.024 C 
ATOM     25  C   UNL     1      34.481 -24.017 -14.776  0.00  0.00    -0.005 C 
ATOM     26  C   UNL     1      36.322 -22.961 -15.931  0.00  0.00    -0.005 C 
ATOM     27  C   UNL     1      36.737 -24.299 -13.962  0.00  0.00    -0.013 C 
ATOM     28  C   UNL     1      35.371 -24.557 -13.849  0.00  0.00    -0.004 C 
ATOM     29  C   UNL     1      37.212 -23.501 -15.003  0.00  0.00    -0.004 C 
BRANCH  27  30
ATOM     30  C   UNL     1      37.689 -24.876 -12.970  0.00  0.00    +0.108 C 
ATOM     31  C   UNL     1      37.231 -26.312 -12.557  0.00  0.00    +0.016 C 
ATOM     32  C   UNL     1      39.166 -25.020 -13.472  0.00  0.00    +0.016 C 
BRANCH  30  34
ATOM     33  O   UNL     1      37.040 -24.118 -10.732  0.00  0.00    -0.250 OA
ATOM     34  C   UNL     1      37.786 -23.980 -11.696  0.00  0.00    +0.317 C 
BRANCH  34  35
ATOM     35  O   UNL     1      38.729 -23.004 -11.728  0.00  0.00    -0.480 OA
ATOM     36  H   UNL     1      38.702 -22.305 -11.105  0.00  0.00    +0.295 HD
ENDBRANCH  34  35
ENDBRANCH  30  34
ENDBRANCH  27  30
ENDBRANCH  23  24
ENDBRANCH  22  23
ENDBRANCH   1  22
TORSDOF 11
ENDMDL
MODEL 6
REMARK VINA RESULT:      -9.9      5.363      9.730
REMARK  Name = 185460
REMARK  11 active torsions:
REMARK  status: ('A' for Active; 'I' for Inactive)
REMARK    1  A    between atoms: N_1  and  C_22
REMARK    2  A    between atoms: C_2  and  C_10
REMARK    3  A    between atoms: N_8  and  C_17
REMARK    4  A    between atoms: C_17  and  C_18
REMARK    5  A    between atoms: C_18  and  O_19
REMARK    6  A    between atoms: O_19  and  C_20
REMARK    7  A    between atoms: C_22  and  C_23
REMARK    8  A    between atoms: C_23  and  C_24
REMARK    9  A    between atoms: C_27  and  C_30
REMARK   10  A    between atoms: C_30  and  C_34
REMARK   11  A    between atoms: C_34  and  O_35
REMARK                            x       y       z     vdW  Elec       q    Type
REMARK                         _______ _______ _______ _____ _____    ______ ____
ROOT
ATOM      1  N   UNL     1      33.508 -10.999 -24.194  0.00  0.00    +0.387 N 
ATOM      2  C   UNL     1      33.103  -8.209 -23.397  0.00  0.00    +0.063 C 
ATOM      3  C   UNL     1      34.223  -8.635 -24.359  0.00  0.00    -0.014 C 
ATOM      4  C   UNL     1      31.952  -9.225 -23.446  0.00  0.00    -0.014 C 
ATOM      5  C   UNL     1      34.652 -10.082 -24.099  0.00  0.00    -0.077 C 
ATOM      6  C   UNL     1      32.464 -10.650 -23.220  0.00  0.00    -0.077 C 
ATOM      7  H   UNL     1      33.109 -10.909 -25.129  0.00  0.00    -0.080 HD
ENDROOT
BRANCH   2  10
ATOM      8  N   UNL     1      31.940  -6.069 -22.721  0.00  0.00    -0.262 N 
ATOM      9  N   UNL     1      32.815  -6.105 -24.764  0.00  0.00    -0.394 NA
ATOM     10  C   UNL     1      32.629  -6.789 -23.657  0.00  0.00    +0.163 C 
ATOM     11  C   UNL     1      31.664  -4.839 -23.259  0.00  0.00    +0.079 C 
ATOM     12  C   UNL     1      32.219  -4.886 -24.535  0.00  0.00    +0.128 C 
ATOM     13  C   UNL     1      30.994  -3.722 -22.756  0.00  0.00    +0.017 C 
ATOM     14  C   UNL     1      32.112  -3.762 -25.372  0.00  0.00    +0.086 C 
ATOM     15  C   UNL     1      30.896  -2.613 -23.603  0.00  0.00    -0.003 C 
ATOM     16  C   UNL     1      31.444  -2.630 -24.887  0.00  0.00    -0.019 C 
BRANCH   8  17
ATOM     17  C   UNL     1      31.569  -6.520 -21.398  0.00  0.00    +0.130 C 
BRANCH  17  18
ATOM     18  C   UNL     1      32.727  -6.454 -20.413  0.00  0.00    +0.164 C 
BRANCH  18  19
ATOM     19  O   UNL     1      32.744  -7.628 -19.613  0.00  0.00    -0.352 OA
BRANCH  19  20
ATOM     20  C   UNL     1      31.756  -8.559 -20.033  0.00  0.00    +0.142 C 
ATOM     21  C   UNL     1      32.012  -9.889 -19.355  0.00  0.00    +0.035 C 
ENDBRANCH  19  20
ENDBRANCH  18  19
ENDBRANCH  17  18
ENDBRANCH   8  17
ENDBRANCH   2  10
BRANCH   1  22
ATOM     22  C   UNL     1      33.946 -12.381 -24.000  0.00  0.00    -0.073 C 
BRANCH  22  23
ATOM     23  C   UNL     1      33.227 -13.023 -22.812  0.00  0.00    +0.004 C 
BRANCH  23  24
ATOM     24  C   UNL     1      33.635 -14.463 -22.632  0.00  0.00    -0.024 C 
ATOM     25  C   UNL     1      33.486 -15.080 -21.389  0.00  0.00    -0.005 C 
ATOM     26  C   UNL     1      34.161 -15.179 -23.707  0.00  0.00    -0.005 C 
ATOM     27  C   UNL     1      34.388 -17.129 -22.297  0.00  0.00    -0.013 C 
ATOM     28  C   UNL     1      33.862 -16.413 -21.222  0.00  0.00    -0.004 C 
ATOM     29  C   UNL     1      34.537 -16.512 -23.540  0.00  0.00    -0.004 C 
BRANCH  27  30
ATOM     30  C   UNL     1      34.791 -18.553 -22.118  0.00  0.00    +0.108 C 
ATOM     31  C   UNL     1      33.790 -19.280 -21.162  0.00  0.00    +0.016 C 
ATOM     32  C   UNL     1      34.828 -19.403 -23.433  0.00  0.00    +0.016 C 
BRANCH  30  34
ATOM     33  O   UNL     1      36.452 -18.985 -20.369  0.00  0.00    -0.250 OA
ATOM     34  C   UNL     1      36.233 -18.660 -21.531  0.00  0.00    +0.317 C 
BRANCH  34  35
ATOM     35  O   UNL     1      37.243 -18.336 -22.379  0.00  0.00    -0.480 OA
ATOM     36  H   UNL     1      38.129 -18.335 -22.074  0.00  0.00    +0.295 HD
ENDBRANCH  34  35
ENDBRANCH  30  34
ENDBRANCH  27  30
ENDBRANCH  23  24
ENDBRANCH  22  23
ENDBRANCH   1  22
TORSDOF 11
ENDMDL
MODEL 7
REMARK VINA RESULT:      -9.3      6.350     14.368
REMARK  Name = 185460
REMARK  11 active torsions:
REMARK  status: ('A' for Active; 'I' for Inactive)
REMARK    1  A    between atoms: N_1  and  C_22
REMARK    2  A    between atoms: C_2  and  C_10
REMARK    3  A    between atoms: N_8  and  C_17
REMARK    4  A    between atoms: C_17  and  C_18
REMARK    5  A    between atoms: C_18  and  O_19
REMARK    6  A    between atoms: O_19  and  C_20
REMARK    7  A    between atoms: C_22  and  C_23
REMARK    8  A    between atoms: C_23  and  C_24
REMARK    9  A    between atoms: C_27  and  C_30
REMARK   10  A    between atoms: C_30  and  C_34
REMARK   11  A    between atoms: C_34  and  O_35
REMARK                            x       y       z     vdW  Elec       q    Type
REMARK                         _______ _______ _______ _____ _____    ______ ____
ROOT
ATOM      1  N   UNL     1      32.337 -10.040 -22.528  0.00  0.00    +0.387 N 
ATOM      2  C   UNL     1      32.721 -12.908 -22.988  0.00  0.00    +0.063 C 
ATOM      3  C   UNL     1      33.720 -11.854 -23.491  0.00  0.00    -0.014 C 
ATOM      4  C   UNL     1      31.950 -12.366 -21.775  0.00  0.00    -0.014 C 
ATOM      5  C   UNL     1      33.025 -10.511 -23.738  0.00  0.00    -0.077 C 
ATOM      6  C   UNL     1      31.321 -11.005 -22.084  0.00  0.00    -0.077 C 
ATOM      7  H   UNL     1      33.031  -9.951 -21.786  0.00  0.00    -0.080 HD
ENDROOT
BRANCH   2  10
ATOM      8  N   UNL     1      33.498 -15.223 -23.642  0.00  0.00    -0.262 N 
ATOM      9  N   UNL     1      33.926 -14.601 -21.552  0.00  0.00    -0.394 NA
ATOM     10  C   UNL     1      33.390 -14.241 -22.697  0.00  0.00    +0.163 C 
ATOM     11  C   UNL     1      34.147 -16.286 -23.069  0.00  0.00    +0.079 C 
ATOM     12  C   UNL     1      34.403 -15.873 -21.765  0.00  0.00    +0.128 C 
ATOM     13  C   UNL     1      34.519 -17.536 -23.565  0.00  0.00    +0.017 C 
ATOM     14  C   UNL     1      35.071 -16.746 -20.888  0.00  0.00    +0.086 C 
ATOM     15  C   UNL     1      35.183 -18.392 -22.679  0.00  0.00    -0.003 C 
ATOM     16  C   UNL     1      35.454 -18.007 -21.365  0.00  0.00    -0.019 C 
BRANCH   8  17
ATOM     17  C   UNL     1      33.017 -15.156 -25.004  0.00  0.00    +0.130 C 
BRANCH  17  18
ATOM     18  C   UNL     1      34.132 -14.882 -26.004  0.00  0.00    +0.164 C 
BRANCH  18  19
ATOM     19  O   UNL     1      33.572 -14.585 -27.276  0.00  0.00    -0.352 OA
BRANCH  19  20
ATOM     20  C   UNL     1      32.942 -13.311 -27.284  0.00  0.00    +0.142 C 
ATOM     21  C   UNL     1      33.979 -12.246 -26.998  0.00  0.00    +0.035 C 
ENDBRANCH  19  20
ENDBRANCH  18  19
ENDBRANCH  17  18
ENDBRANCH   8  17
ENDBRANCH   2  10
BRANCH   1  22
ATOM     22  C   UNL     1      31.729  -8.731 -22.765  0.00  0.00    -0.073 C 
BRANCH  22  23
ATOM     23  C   UNL     1      32.728  -7.605 -22.492  0.00  0.00    +0.004 C 
BRANCH  23  24
ATOM     24  C   UNL     1      32.942  -6.748 -23.714  0.00  0.00    -0.024 C 
ATOM     25  C   UNL     1      34.131  -6.849 -24.437  0.00  0.00    -0.005 C 
ATOM     26  C   UNL     1      31.952  -5.855 -24.122  0.00  0.00    -0.005 C 
ATOM     27  C   UNL     1      33.339  -5.164 -25.976  0.00  0.00    -0.013 C 
ATOM     28  C   UNL     1      34.330  -6.057 -25.568  0.00  0.00    -0.004 C 
ATOM     29  C   UNL     1      32.150  -5.063 -25.253  0.00  0.00    -0.004 C 
BRANCH  27  30
ATOM     30  C   UNL     1      33.552  -4.317 -27.185  0.00  0.00    +0.108 C 
ATOM     31  C   UNL     1      35.079  -4.200 -27.498  0.00  0.00    +0.016 C 
ATOM     32  C   UNL     1      32.880  -4.850 -28.495  0.00  0.00    +0.016 C 
BRANCH  30  34
ATOM     33  O   UNL     1      33.472  -2.056 -26.242  0.00  0.00    -0.250 OA
ATOM     34  C   UNL     1      32.957  -2.889 -26.982  0.00  0.00    +0.317 C 
BRANCH  34  35
ATOM     35  O   UNL     1      31.804  -2.627 -27.650  0.00  0.00    -0.480 OA
ATOM     36  H   UNL     1      31.008  -2.492 -27.176  0.00  0.00    +0.295 HD
ENDBRANCH  34  35
ENDBRANCH  30  34
ENDBRANCH  27  30
ENDBRANCH  23  24
ENDBRANCH  22  23
ENDBRANCH   1  22
TORSDOF 11
ENDMDL
MODEL 8
REMARK VINA RESULT:      -9.3      2.646     11.481
REMARK  Name = 185460
REMARK  11 active torsions:
REMARK  status: ('A' for Active; 'I' for Inactive)
REMARK    1  A    between atoms: N_1  and  C_22
REMARK    2  A    between atoms: C_2  and  C_10
REMARK    3  A    between atoms: N_8  and  C_17
REMARK    4  A    between atoms: C_17  and  C_18
REMARK    5  A    between atoms: C_18  and  O_19
REMARK    6  A    between atoms: O_19  and  C_20
REMARK    7  A    between atoms: C_22  and  C_23
REMARK    8  A    between atoms: C_23  and  C_24
REMARK    9  A    between atoms: C_27  and  C_30
REMARK   10  A    between atoms: C_30  and  C_34
REMARK   11  A    between atoms: C_34  and  O_35
REMARK                            x       y       z     vdW  Elec       q    Type
REMARK                         _______ _______ _______ _____ _____    ______ ____
ROOT
ATOM      1  N   UNL     1      34.725 -20.066 -20.779  0.00  0.00    +0.387 N 
ATOM      2  C   UNL     1      34.854 -22.176 -18.750  0.00  0.00    +0.063 C 
ATOM      3  C   UNL     1      36.080 -21.336 -19.141  0.00  0.00    -0.014 C 
ATOM      4  C   UNL     1      33.565 -21.394 -19.042  0.00  0.00    -0.014 C 
ATOM      5  C   UNL     1      35.964 -20.831 -20.582  0.00  0.00    -0.077 C 
ATOM      6  C   UNL     1      33.541 -20.887 -20.486  0.00  0.00    -0.077 C 
ATOM      7  H   UNL     1      34.733 -19.281 -20.126  0.00  0.00    -0.080 HD
ENDROOT
BRANCH   2  10
ATOM      8  N   UNL     1      33.839 -23.197 -16.673  0.00  0.00    -0.262 N 
ATOM      9  N   UNL     1      35.982 -22.624 -16.535  0.00  0.00    -0.394 NA
ATOM     10  C   UNL     1      34.922 -22.659 -17.311  0.00  0.00    +0.163 C 
ATOM     11  C   UNL     1      34.227 -23.530 -15.400  0.00  0.00    +0.079 C 
ATOM     12  C   UNL     1      35.568 -23.162 -15.340  0.00  0.00    +0.128 C 
ATOM     13  C   UNL     1      33.540 -24.104 -14.329  0.00  0.00    +0.017 C 
ATOM     14  C   UNL     1      36.283 -23.373 -14.148  0.00  0.00    +0.086 C 
ATOM     15  C   UNL     1      34.267 -24.306 -13.151  0.00  0.00    -0.003 C 
ATOM     16  C   UNL     1      35.613 -23.948 -13.060  0.00  0.00    -0.019 C 
BRANCH   8  17
ATOM     17  C   UNL     1      32.520 -23.383 -17.234  0.00  0.00    +0.130 C 
BRANCH  17  18
ATOM     18  C   UNL     1      31.427 -22.769 -16.370  0.00  0.00    +0.164 C 
BRANCH  18  19
ATOM     19  O   UNL     1      30.280 -22.502 -17.166  0.00  0.00    -0.352 OA
BRANCH  19  20
ATOM     20  C   UNL     1      29.084 -22.588 -16.404  0.00  0.00    +0.142 C 
ATOM     21  C   UNL     1      28.052 -23.366 -17.192  0.00  0.00    +0.035 C 
ENDBRANCH  19  20
ENDBRANCH  18  19
ENDBRANCH  17  18
ENDBRANCH   8  17
ENDBRANCH   2  10
BRANCH   1  22
ATOM     22  C   UNL     1      34.659 -19.543 -22.144  0.00  0.00    -0.073 C 
BRANCH  22  23
ATOM     23  C   UNL     1      35.721 -18.465 -22.369  0.00  0.00    +0.004 C 
BRANCH  23  24
ATOM     24  C   UNL     1      35.109 -17.184 -22.876  0.00  0.00    -0.024 C 
ATOM     25  C   UNL     1      34.745 -17.069 -24.218  0.00  0.00    -0.005 C 
ATOM     26  C   UNL     1      34.905 -16.115 -22.004  0.00  0.00    -0.005 C 
ATOM     27  C   UNL     1      33.974 -14.815 -23.816  0.00  0.00    -0.013 C 
ATOM     28  C   UNL     1      34.177 -15.884 -24.688  0.00  0.00    -0.004 C 
ATOM     29  C   UNL     1      34.338 -14.931 -22.474  0.00  0.00    -0.004 C 
BRANCH  27  30
ATOM     30  C   UNL     1      33.368 -13.549 -24.318  0.00  0.00    +0.108 C 
ATOM     31  C   UNL     1      32.059 -13.227 -23.526  0.00  0.00    +0.016 C 
ATOM     32  C   UNL     1      34.276 -12.280 -24.187  0.00  0.00    +0.016 C 
BRANCH  30  34
ATOM     33  O   UNL     1      32.281 -14.500 -26.299  0.00  0.00    -0.250 OA
ATOM     34  C   UNL     1      33.037 -13.649 -25.840  0.00  0.00    +0.317 C 
BRANCH  34  35
ATOM     35  O   UNL     1      33.666 -12.753 -26.643  0.00  0.00    -0.480 OA
ATOM     36  H   UNL     1      34.320 -13.044 -27.248  0.00  0.00    +0.295 HD
ENDBRANCH  34  35
ENDBRANCH  30  34
ENDBRANCH  27  30
ENDBRANCH  23  24
ENDBRANCH  22  23
ENDBRANCH   1  22
TORSDOF 11
ENDMDL
MODEL 9
REMARK VINA RESULT:      -9.3      2.406      3.789
REMARK  Name = 185460
REMARK  11 active torsions:
REMARK  status: ('A' for Active; 'I' for Inactive)
REMARK    1  A    between atoms: N_1  and  C_22
REMARK    2  A    between atoms: C_2  and  C_10
REMARK    3  A    between atoms: N_8  and  C_17
REMARK    4  A    between atoms: C_17  and  C_18
REMARK    5  A    between atoms: C_18  and  O_19
REMARK    6  A    between atoms: O_19  and  C_20
REMARK    7  A    between atoms: C_22  and  C_23
REMARK    8  A    between atoms: C_23  and  C_24
REMARK    9  A    between atoms: C_27  and  C_30
REMARK   10  A    between atoms: C_30  and  C_34
REMARK   11  A    between atoms: C_34  and  O_35
REMARK                            x       y       z     vdW  Elec       q    Type
REMARK                         _______ _______ _______ _____ _____    ______ ____
ROOT
ATOM      1  N   UNL     1      35.404 -20.292 -19.720  0.00  0.00    +0.387 N 
ATOM      2  C   UNL     1      34.986 -18.982 -22.307  0.00  0.00    +0.063 C 
ATOM      3  C   UNL     1      33.825 -19.554 -21.478  0.00  0.00    -0.014 C 
ATOM      4  C   UNL     1      36.166 -18.630 -21.388  0.00  0.00    -0.014 C 
ATOM      5  C   UNL     1      34.298 -20.710 -20.592  0.00  0.00    -0.077 C 
ATOM      6  C   UNL     1      36.553 -19.820 -20.506  0.00  0.00    -0.077 C 
ATOM      7  H   UNL     1      35.076 -19.515 -19.145  0.00  0.00    -0.080 HD
ENDROOT
BRANCH   2  10
ATOM      8  N   UNL     1      34.153 -16.617 -22.625  0.00  0.00    -0.262 N 
ATOM      9  N   UNL     1      34.518 -17.784 -24.481  0.00  0.00    -0.394 NA
ATOM     10  C   UNL     1      34.555 -17.806 -23.167  0.00  0.00    +0.163 C 
ATOM     11  C   UNL     1      33.836 -15.772 -23.657  0.00  0.00    +0.079 C 
ATOM     12  C   UNL     1      34.072 -16.524 -24.805  0.00  0.00    +0.128 C 
ATOM     13  C   UNL     1      33.375 -14.455 -23.684  0.00  0.00    +0.017 C 
ATOM     14  C   UNL     1      33.842 -15.943 -26.064  0.00  0.00    +0.086 C 
ATOM     15  C   UNL     1      33.151 -13.893 -24.945  0.00  0.00    -0.003 C 
ATOM     16  C   UNL     1      33.379 -14.621 -26.115  0.00  0.00    -0.019 C 
BRANCH   8  17
ATOM     17  C   UNL     1      34.075 -16.303 -21.216  0.00  0.00    +0.130 C 
BRANCH  17  18
ATOM     18  C   UNL     1      34.291 -14.822 -20.935  0.00  0.00    +0.164 C 
BRANCH  18  19
ATOM     19  O   UNL     1      33.180 -14.303 -20.217  0.00  0.00    -0.352 OA
BRANCH  19  20
ATOM     20  C   UNL     1      32.384 -13.453 -21.032  0.00  0.00    +0.142 C 
ATOM     21  C   UNL     1      31.896 -12.287 -20.198  0.00  0.00    +0.035 C 
ENDBRANCH  19  20
ENDBRANCH  18  19
ENDBRANCH  17  18
ENDBRANCH   8  17
ENDBRANCH   2  10
BRANCH   1  22
ATOM     22  C   UNL     1      35.804 -21.391 -18.841  0.00  0.00    -0.073 C 
BRANCH  22  23
ATOM     23  C   UNL     1      34.909 -22.614 -19.051  0.00  0.00    +0.004 C 
BRANCH  23  24
ATOM     24  C   UNL     1      33.976 -22.821 -17.885  0.00  0.00    -0.024 C 
ATOM     25  C   UNL     1      34.485 -23.203 -16.643  0.00  0.00    -0.005 C 
ATOM     26  C   UNL     1      32.604 -22.630 -18.046  0.00  0.00    -0.005 C 
ATOM     27  C   UNL     1      32.251 -23.204 -15.725  0.00  0.00    -0.013 C 
ATOM     28  C   UNL     1      33.623 -23.395 -15.564  0.00  0.00    -0.004 C 
ATOM     29  C   UNL     1      31.741 -22.821 -16.966  0.00  0.00    -0.004 C 
BRANCH  27  30
ATOM     30  C   UNL     1      31.329 -23.409 -14.571  0.00  0.00    +0.108 C 
ATOM     31  C   UNL     1      31.924 -22.750 -13.284  0.00  0.00    +0.016 C 
ATOM     32  C   UNL     1      29.898 -22.799 -14.748  0.00  0.00    +0.016 C 
BRANCH  30  34
ATOM     33  O   UNL     1      30.628 -25.682 -15.159  0.00  0.00    -0.250 OA
ATOM     34  C   UNL     1      31.088 -24.928 -14.308  0.00  0.00    +0.317 C 
BRANCH  34  35
ATOM     35  O   UNL     1      31.385 -25.367 -13.057  0.00  0.00    -0.480 OA
ATOM     36  H   UNL     1      31.496 -26.283 -12.897  0.00  0.00    +0.295 HD
ENDBRANCH  34  35
ENDBRANCH  30  34
ENDBRANCH  27  30
ENDBRANCH  23  24
ENDBRANCH  22  23
ENDBRANCH   1  22
TORSDOF 11
ENDMDL
