MODEL 1
REMARK VINA RESULT:      -5.1      0.000      0.000
REMARK  Name = 108018
REMARK  3 active torsions:
REMARK  status: ('A' for Active; 'I' for Inactive)
REMARK    1  A    between atoms: C_1  and  S_2
REMARK    2  A    between atoms: C_1  and  C_6
REMARK    3  A    between atoms: C_6  and  N_8
REMARK                            x       y       z     vdW  Elec       q    Type
REMARK                         _______ _______ _______ _____ _____    ______ ____
ROOT
ATOM      1  C   UNL     1      38.829 -25.909 -14.332  0.00  0.00    +0.176 C 
ENDROOT
BRANCH   1   2
ATOM      2  S   UNL     1      40.581 -25.802 -14.518  0.00  0.00    +0.024 S 
ATOM      3  O   UNL     1      40.638 -26.030 -16.132  0.00  0.00    -0.069 OA
ATOM      4  O   UNL     1      41.194 -26.943 -13.864  0.00  0.00    -0.069 OA
ATOM      5  O   UNL     1      40.999 -24.443 -14.224  0.00  0.00    -0.069 OA
ENDBRANCH   1   2
BRANCH   1   6
ATOM      6  C   UNL     1      38.176 -24.544 -14.463  0.00  0.00    +0.110 C 
BRANCH   6   8
ATOM      7 CL   UNL     1      37.580 -22.517 -16.106  0.00  0.00    -0.023 Cl
ATOM      8  N   UNL     1      38.634 -23.859 -15.665  0.00  0.00    -0.221 NA
ATOM      9  H   UNL     1      39.574 -23.498 -15.500  0.00  0.00    +0.142 HD
ENDBRANCH   6   8
ENDBRANCH   1   6
TORSDOF 3
ENDMDL
MODEL 2
REMARK VINA RESULT:      -4.8      5.027      5.313
REMARK  Name = 108018
REMARK  3 active torsions:
REMARK  status: ('A' for Active; 'I' for Inactive)
REMARK    1  A    between atoms: C_1  and  S_2
REMARK    2  A    between atoms: C_1  and  C_6
REMARK    3  A    between atoms: C_6  and  N_8
REMARK                            x       y       z     vdW  Elec       q    Type
REMARK                         _______ _______ _______ _____ _____    ______ ____
ROOT
ATOM      1  C   UNL     1      36.886 -23.259 -11.627  0.00  0.00    +0.176 C 
ENDROOT
BRANCH   1   2
ATOM      2  S   UNL     1      35.658 -24.476 -11.267  0.00  0.00    +0.024 S 
ATOM      3  O   UNL     1      36.533 -25.789 -11.680  0.00  0.00    -0.069 OA
ATOM      4  O   UNL     1      34.562 -24.331 -12.206  0.00  0.00    -0.069 OA
ATOM      5  O   UNL     1      35.431 -24.500  -9.833  0.00  0.00    -0.069 OA
ENDBRANCH   1   2
BRANCH   1   6
ATOM      6  C   UNL     1      38.228 -23.903 -11.930  0.00  0.00    +0.110 C 
BRANCH   6   8
ATOM      7 CL   UNL     1      39.501 -25.473 -13.684  0.00  0.00    -0.023 Cl
ATOM      8  N   UNL     1      38.373 -24.159 -13.358  0.00  0.00    -0.221 NA
ATOM      9  H   UNL     1      37.461 -24.406 -13.742  0.00  0.00    +0.142 HD
ENDBRANCH   6   8
ENDBRANCH   1   6
TORSDOF 3
ENDMDL
MODEL 3
REMARK VINA RESULT:      -4.6     10.820     11.133
REMARK  Name = 108018
REMARK  3 active torsions:
REMARK  status: ('A' for Active; 'I' for Inactive)
REMARK    1  A    between atoms: C_1  and  S_2
REMARK    2  A    between atoms: C_1  and  C_6
REMARK    3  A    between atoms: C_6  and  N_8
REMARK                            x       y       z     vdW  Elec       q    Type
REMARK                         _______ _______ _______ _____ _____    ______ ____
ROOT
ATOM      1  C   UNL     1      28.688 -24.406 -16.086  0.00  0.00    +0.176 C 
ENDROOT
BRANCH   1   2
ATOM      2  S   UNL     1      28.237 -22.842 -16.771  0.00  0.00    +0.024 S 
ATOM      3  O   UNL     1      29.739 -22.340 -17.161  0.00  0.00    -0.069 OA
ATOM      4  O   UNL     1      27.723 -21.996 -15.711  0.00  0.00    -0.069 OA
ATOM      5  O   UNL     1      27.489 -23.068 -17.994  0.00  0.00    -0.069 OA
ENDBRANCH   1   2
BRANCH   1   6
ATOM      6  C   UNL     1      30.074 -24.357 -15.465  0.00  0.00    +0.110 C 
BRANCH   6   8
ATOM      7 CL   UNL     1      31.863 -22.762 -14.274  0.00  0.00    -0.023 Cl
ATOM      8  N   UNL     1      30.187 -23.246 -14.529  0.00  0.00    -0.221 NA
ATOM      9  H   UNL     1      29.667 -22.450 -14.897  0.00  0.00    +0.142 HD
ENDBRANCH   6   8
ENDBRANCH   1   6
TORSDOF 3
ENDMDL
MODEL 4
REMARK VINA RESULT:      -4.6      4.237      4.549
REMARK  Name = 108018
REMARK  3 active torsions:
REMARK  status: ('A' for Active; 'I' for Inactive)
REMARK    1  A    between atoms: C_1  and  S_2
REMARK    2  A    between atoms: C_1  and  C_6
REMARK    3  A    between atoms: C_6  and  N_8
REMARK                            x       y       z     vdW  Elec       q    Type
REMARK                         _______ _______ _______ _____ _____    ______ ____
ROOT
ATOM      1  C   UNL     1      36.698 -24.218 -13.461  0.00  0.00    +0.176 C 
ENDROOT
BRANCH   1   2
ATOM      2  S   UNL     1      36.424 -25.054 -11.931  0.00  0.00    +0.024 S 
ATOM      3  O   UNL     1      37.378 -24.114 -11.000  0.00  0.00    -0.069 OA
ATOM      4  O   UNL     1      37.009 -26.380 -12.008  0.00  0.00    -0.069 OA
ATOM      5  O   UNL     1      35.042 -24.856 -11.532  0.00  0.00    -0.069 OA
ENDBRANCH   1   2
BRANCH   1   6
ATOM      6  C   UNL     1      37.865 -24.826 -14.221  0.00  0.00    +0.110 C 
BRANCH   6   8
ATOM      7 CL   UNL     1      40.395 -25.696 -14.154  0.00  0.00    -0.023 Cl
ATOM      8  N   UNL     1      39.094 -24.747 -13.440  0.00  0.00    -0.221 NA
ATOM      9  H   UNL     1      39.388 -23.772 -13.387  0.00  0.00    +0.142 HD
ENDBRANCH   6   8
ENDBRANCH   1   6
TORSDOF 3
ENDMDL
MODEL 5
REMARK VINA RESULT:      -4.6      3.827      4.326
REMARK  Name = 108018
REMARK  3 active torsions:
REMARK  status: ('A' for Active; 'I' for Inactive)
REMARK    1  A    between atoms: C_1  and  S_2
REMARK    2  A    between atoms: C_1  and  C_6
REMARK    3  A    between atoms: C_6  and  N_8
REMARK                            x       y       z     vdW  Elec       q    Type
REMARK                         _______ _______ _______ _____ _____    ______ ____
ROOT
ATOM      1  C   UNL     1      37.719 -25.418 -12.382  0.00  0.00    +0.176 C 
ENDROOT
BRANCH   1   2
ATOM      2  S   UNL     1      37.427 -23.741 -11.916  0.00  0.00    +0.024 S 
ATOM      3  O   UNL     1      36.705 -24.041 -10.484  0.00  0.00    -0.069 OA
ATOM      4  O   UNL     1      36.448 -23.165 -12.819  0.00  0.00    -0.069 OA
ATOM      5  O   UNL     1      38.704 -23.096 -11.668  0.00  0.00    -0.069 OA
ENDBRANCH   1   2
BRANCH   1   6
ATOM      6  C   UNL     1      37.871 -25.553 -13.888  0.00  0.00    +0.110 C 
BRANCH   6   8
ATOM      7 CL   UNL     1      40.381 -25.244 -14.765  0.00  0.00    -0.023 Cl
ATOM      8  N   UNL     1      38.798 -24.556 -14.410  0.00  0.00    -0.221 NA
ATOM      9  H   UNL     1      38.410 -24.164 -15.268  0.00  0.00    +0.142 HD
ENDBRANCH   6   8
ENDBRANCH   1   6
TORSDOF 3
ENDMDL
MODEL 6
REMARK VINA RESULT:      -4.6      2.644      2.988
REMARK  Name = 108018
REMARK  3 active torsions:
REMARK  status: ('A' for Active; 'I' for Inactive)
REMARK    1  A    between atoms: C_1  and  S_2
REMARK    2  A    between atoms: C_1  and  C_6
REMARK    3  A    between atoms: C_6  and  N_8
REMARK                            x       y       z     vdW  Elec       q    Type
REMARK                         _______ _______ _______ _____ _____    ______ ____
ROOT
ATOM      1  C   UNL     1      37.047 -23.691 -13.641  0.00  0.00    +0.176 C 
ENDROOT
BRANCH   1   2
ATOM      2  S   UNL     1      38.113 -24.179 -12.321  0.00  0.00    +0.024 S 
ATOM      3  O   UNL     1      39.360 -24.699 -13.235  0.00  0.00    -0.069 OA
ATOM      4  O   UNL     1      37.526 -25.318 -11.640  0.00  0.00    -0.069 OA
ATOM      5  O   UNL     1      38.530 -22.993 -11.596  0.00  0.00    -0.069 OA
ENDBRANCH   1   2
BRANCH   1   6
ATOM      6  C   UNL     1      37.468 -24.329 -14.954  0.00  0.00    +0.110 C 
BRANCH   6   8
ATOM      7 CL   UNL     1      37.453 -22.044 -16.347  0.00  0.00    -0.023 Cl
ATOM      8  N   UNL     1      38.331 -23.436 -15.716  0.00  0.00    -0.221 NA
ATOM      9  H   UNL     1      39.079 -23.103 -15.108  0.00  0.00    +0.142 HD
ENDBRANCH   6   8
ENDBRANCH   1   6
TORSDOF 3
ENDMDL
MODEL 7
REMARK VINA RESULT:      -4.6     11.098     11.385
REMARK  Name = 108018
REMARK  3 active torsions:
REMARK  status: ('A' for Active; 'I' for Inactive)
REMARK    1  A    between atoms: C_1  and  S_2
REMARK    2  A    between atoms: C_1  and  C_6
REMARK    3  A    between atoms: C_6  and  N_8
REMARK                            x       y       z     vdW  Elec       q    Type
REMARK                         _______ _______ _______ _____ _____    ______ ____
ROOT
ATOM      1  C   UNL     1      28.652 -24.023 -15.269  0.00  0.00    +0.176 C 
ENDROOT
BRANCH   1   2
ATOM      2  S   UNL     1      28.051 -23.024 -16.595  0.00  0.00    +0.024 S 
ATOM      3  O   UNL     1      27.698 -24.234 -17.630  0.00  0.00    -0.069 OA
ATOM      4  O   UNL     1      29.153 -22.251 -17.138  0.00  0.00    -0.069 OA
ATOM      5  O   UNL     1      26.813 -22.391 -16.178  0.00  0.00    -0.069 OA
ENDBRANCH   1   2
BRANCH   1   6
ATOM      6  C   UNL     1      29.793 -24.917 -15.725  0.00  0.00    +0.110 C 
BRANCH   6   8
ATOM      7 CL   UNL     1      31.304 -25.020 -13.519  0.00  0.00    -0.023 Cl
ATOM      8  N   UNL     1      30.214 -25.812 -14.655  0.00  0.00    -0.221 NA
ATOM      9  H   UNL     1      29.388 -26.132 -14.150  0.00  0.00    +0.142 HD
ENDBRANCH   6   8
ENDBRANCH   1   6
TORSDOF 3
ENDMDL
MODEL 8
REMARK VINA RESULT:      -4.4      3.158      3.429
REMARK  Name = 108018
REMARK  3 active torsions:
REMARK  status: ('A' for Active; 'I' for Inactive)
REMARK    1  A    between atoms: C_1  and  S_2
REMARK    2  A    between atoms: C_1  and  C_6
REMARK    3  A    between atoms: C_6  and  N_8
REMARK                            x       y       z     vdW  Elec       q    Type
REMARK                         _______ _______ _______ _____ _____    ______ ____
ROOT
ATOM      1  C   UNL     1      37.066 -23.470 -13.636  0.00  0.00    +0.176 C 
ENDROOT
BRANCH   1   2
ATOM      2  S   UNL     1      38.137 -24.284 -12.492  0.00  0.00    +0.024 S 
ATOM      3  O   UNL     1      39.316 -24.678 -13.548  0.00  0.00    -0.069 OA
ATOM      4  O   UNL     1      37.496 -25.502 -12.033  0.00  0.00    -0.069 OA
ATOM      5  O   UNL     1      38.656 -23.300 -11.559  0.00  0.00    -0.069 OA
ENDBRANCH   1   2
BRANCH   1   6
ATOM      6  C   UNL     1      36.234 -24.471 -14.421  0.00  0.00    +0.110 C 
BRANCH   6   8
ATOM      7 CL   UNL     1      36.826 -26.936 -15.279  0.00  0.00    -0.023 Cl
ATOM      8  N   UNL     1      37.058 -25.192 -15.384  0.00  0.00    -0.221 NA
ATOM      9  H   UNL     1      36.811 -24.884 -16.324  0.00  0.00    +0.142 HD
ENDBRANCH   6   8
ENDBRANCH   1   6
TORSDOF 3
ENDMDL
MODEL 9
REMARK VINA RESULT:      -4.4      3.393      4.091
REMARK  Name = 108018
REMARK  3 active torsions:
REMARK  status: ('A' for Active; 'I' for Inactive)
REMARK    1  A    between atoms: C_1  and  S_2
REMARK    2  A    between atoms: C_1  and  C_6
REMARK    3  A    between atoms: C_6  and  N_8
REMARK                            x       y       z     vdW  Elec       q    Type
REMARK                         _______ _______ _______ _____ _____    ______ ____
ROOT
ATOM      1  C   UNL     1      36.153 -23.553 -13.029  0.00  0.00    +0.176 C 
ENDROOT
BRANCH   1   2
ATOM      2  S   UNL     1      37.572 -23.681 -11.987  0.00  0.00    +0.024 S 
ATOM      3  O   UNL     1      36.788 -24.037 -10.602  0.00  0.00    -0.069 OA
ATOM      4  O   UNL     1      38.179 -22.370 -11.856  0.00  0.00    -0.069 OA
ATOM      5  O   UNL     1      38.347 -24.839 -12.394  0.00  0.00    -0.069 OA
ENDBRANCH   1   2
BRANCH   1   6
ATOM      6  C   UNL     1      36.507 -23.837 -14.479  0.00  0.00    +0.110 C 
BRANCH   6   8
ATOM      7 CL   UNL     1      37.429 -22.020 -16.214  0.00  0.00    -0.023 Cl
ATOM      8  N   UNL     1      37.716 -23.124 -14.871  0.00  0.00    -0.221 NA
ATOM      9  H   UNL     1      38.056 -22.589 -14.072  0.00  0.00    +0.142 HD
ENDBRANCH   6   8
ENDBRANCH   1   6
TORSDOF 3
ENDMDL
