MODEL 1
REMARK VINA RESULT:     -11.1      0.000      0.000
REMARK  Name = 44511587
REMARK  4 active torsions:
REMARK  status: ('A' for Active; 'I' for Inactive)
REMARK    1  A    between atoms: C_3  and  N_11
REMARK    2  A    between atoms: C_4  and  C_22
REMARK    3  A    between atoms: C_12  and  C_16
REMARK    4  A    between atoms: C_22  and  C_24
REMARK                            x       y       z     vdW  Elec       q    Type
REMARK                         _______ _______ _______ _____ _____    ______ ____
ROOT
ATOM      1  N   UNL     1      32.270 -23.890 -13.660  0.00  0.00    +0.390 N 
ATOM      2  C   UNL     1      31.007 -23.766 -15.933  0.00  0.00    +0.012 C 
ATOM      3  C   UNL     1      32.535 -23.823 -16.148  0.00  0.00    +0.053 C 
ATOM      4  C   UNL     1      33.239 -23.684 -14.773  0.00  0.00    -0.035 C 
ATOM      5  C   UNL     1      30.665 -22.561 -15.036  0.00  0.00    -0.021 C 
ATOM      6  C   UNL     1      30.623 -25.035 -15.156  0.00  0.00    -0.021 C 
ATOM      7  C   UNL     1      31.334 -22.739 -13.662  0.00  0.00    -0.077 C 
ATOM      8  C   UNL     1      31.473 -25.120 -13.877  0.00  0.00    -0.077 C 
ATOM      9  H   UNL     1      32.780 -23.972 -12.780  0.00  0.00    -0.080 HD
ENDROOT
BRANCH   3  11
ATOM     10  O   UNL     1      33.693 -24.265 -18.738  0.00  0.00    -0.270 OA
ATOM     11  N   UNL     1      32.984 -22.812 -17.075  0.00  0.00    -0.304 N 
ATOM     12  C   UNL     1      33.533 -23.125 -18.309  0.00  0.00    +0.246 C 
ATOM     13  H   UNL     1      32.897 -21.864 -16.821  0.00  0.00    +0.150 HD
BRANCH  12  16
ATOM     14  F   UNL     1      32.522 -19.185 -20.975  0.00  0.00    -0.204 F 
ATOM     15  F   UNL     1      37.041 -20.468 -20.377  0.00  0.00    -0.204 F 
ATOM     16  C   UNL     1      33.970 -21.970 -19.136  0.00  0.00    +0.058 C 
ATOM     17  C   UNL     1      35.327 -21.756 -19.373  0.00  0.00    +0.034 C 
ATOM     18  C   UNL     1      33.022 -21.102 -19.678  0.00  0.00    +0.034 C 
ATOM     19  C   UNL     1      33.432 -20.018 -20.455  0.00  0.00    +0.143 C 
ATOM     20  C   UNL     1      35.738 -20.674 -20.151  0.00  0.00    +0.143 C 
ATOM     21  C   UNL     1      34.790 -19.805 -20.692  0.00  0.00    +0.059 C 
ENDBRANCH  12  16
ENDBRANCH   3  11
BRANCH   4  22
ATOM     22  C   UNL     1      34.443 -24.623 -14.656  0.00  0.00    +0.009 C 
BRANCH  22  24
ATOM     23  N   UNL     1      37.526 -22.929 -13.265  0.00  0.00    -0.243 NA
ATOM     24  C   UNL     1      35.452 -24.103 -13.672  0.00  0.00    -0.005 C 
ATOM     25  C   UNL     1      35.285 -24.297 -12.305  0.00  0.00    -0.001 C 
ATOM     26  C   UNL     1      36.580 -23.420 -14.097  0.00  0.00    +0.095 C 
ATOM     27  C   UNL     1      36.237 -23.807 -11.418  0.00  0.00    +0.020 C 
ATOM     28  C   UNL     1      37.329 -23.135 -11.944  0.00  0.00    +0.099 C 
ENDBRANCH  22  24
ENDBRANCH   4  22
TORSDOF 4
ENDMDL
MODEL 2
REMARK VINA RESULT:     -11.1      0.024      1.620
REMARK  Name = 44511587
REMARK  4 active torsions:
REMARK  status: ('A' for Active; 'I' for Inactive)
REMARK    1  A    between atoms: C_3  and  N_11
REMARK    2  A    between atoms: C_4  and  C_22
REMARK    3  A    between atoms: C_12  and  C_16
REMARK    4  A    between atoms: C_22  and  C_24
REMARK                            x       y       z     vdW  Elec       q    Type
REMARK                         _______ _______ _______ _____ _____    ______ ____
ROOT
ATOM      1  N   UNL     1      32.250 -23.894 -13.663  0.00  0.00    +0.390 N 
ATOM      2  C   UNL     1      30.984 -23.766 -15.934  0.00  0.00    +0.012 C 
ATOM      3  C   UNL     1      32.512 -23.827 -16.151  0.00  0.00    +0.053 C 
ATOM      4  C   UNL     1      33.218 -23.690 -14.777  0.00  0.00    -0.035 C 
ATOM      5  C   UNL     1      30.646 -22.561 -15.036  0.00  0.00    -0.021 C 
ATOM      6  C   UNL     1      30.598 -25.035 -15.157  0.00  0.00    -0.021 C 
ATOM      7  C   UNL     1      31.317 -22.742 -13.663  0.00  0.00    -0.077 C 
ATOM      8  C   UNL     1      31.450 -25.123 -13.879  0.00  0.00    -0.077 C 
ATOM      9  H   UNL     1      32.761 -23.979 -12.784  0.00  0.00    -0.080 HD
ENDROOT
BRANCH   3  11
ATOM     10  O   UNL     1      33.700 -24.271 -18.727  0.00  0.00    -0.270 OA
ATOM     11  N   UNL     1      32.961 -22.816 -17.078  0.00  0.00    -0.304 N 
ATOM     12  C   UNL     1      33.526 -23.131 -18.305  0.00  0.00    +0.246 C 
ATOM     13  H   UNL     1      32.864 -21.869 -16.830  0.00  0.00    +0.150 HD
BRANCH  12  16
ATOM     14  F   UNL     1      37.032 -20.474 -20.379  0.00  0.00    -0.204 F 
ATOM     15  F   UNL     1      32.513 -19.183 -20.957  0.00  0.00    -0.204 F 
ATOM     16  C   UNL     1      33.962 -21.976 -19.133  0.00  0.00    +0.058 C 
ATOM     17  C   UNL     1      33.015 -21.104 -19.668  0.00  0.00    +0.034 C 
ATOM     18  C   UNL     1      35.319 -21.763 -19.373  0.00  0.00    +0.034 C 
ATOM     19  C   UNL     1      35.729 -20.679 -20.149  0.00  0.00    +0.143 C 
ATOM     20  C   UNL     1      33.423 -20.019 -20.443  0.00  0.00    +0.143 C 
ATOM     21  C   UNL     1      34.781 -19.807 -20.683  0.00  0.00    +0.059 C 
ENDBRANCH  12  16
ENDBRANCH   3  11
BRANCH   4  22
ATOM     22  C   UNL     1      34.420 -24.632 -14.663  0.00  0.00    +0.009 C 
BRANCH  22  24
ATOM     23  N   UNL     1      37.509 -22.965 -13.255  0.00  0.00    -0.243 NA
ATOM     24  C   UNL     1      35.427 -24.121 -13.673  0.00  0.00    -0.005 C 
ATOM     25  C   UNL     1      35.250 -24.310 -12.307  0.00  0.00    -0.001 C 
ATOM     26  C   UNL     1      36.564 -23.449 -14.092  0.00  0.00    +0.095 C 
ATOM     27  C   UNL     1      36.200 -23.828 -11.414  0.00  0.00    +0.020 C 
ATOM     28  C   UNL     1      37.302 -23.168 -11.935  0.00  0.00    +0.099 C 
ENDBRANCH  22  24
ENDBRANCH   4  22
TORSDOF 4
ENDMDL
MODEL 3
REMARK VINA RESULT:     -10.3      2.085      4.889
REMARK  Name = 44511587
REMARK  4 active torsions:
REMARK  status: ('A' for Active; 'I' for Inactive)
REMARK    1  A    between atoms: C_3  and  N_11
REMARK    2  A    between atoms: C_4  and  C_22
REMARK    3  A    between atoms: C_12  and  C_16
REMARK    4  A    between atoms: C_22  and  C_24
REMARK                            x       y       z     vdW  Elec       q    Type
REMARK                         _______ _______ _______ _____ _____    ______ ____
ROOT
ATOM      1  N   UNL     1      36.094 -25.825 -13.424  0.00  0.00    +0.390 N 
ATOM      2  C   UNL     1      37.740 -24.124 -14.507  0.00  0.00    +0.012 C 
ATOM      3  C   UNL     1      36.287 -23.602 -14.557  0.00  0.00    +0.053 C 
ATOM      4  C   UNL     1      35.334 -24.734 -14.094  0.00  0.00    -0.035 C 
ATOM      5  C   UNL     1      37.811 -25.495 -15.205  0.00  0.00    -0.021 C 
ATOM      6  C   UNL     1      38.076 -24.350 -13.024  0.00  0.00    -0.021 C 
ATOM      7  C   UNL     1      36.917 -26.498 -14.457  0.00  0.00    -0.077 C 
ATOM      8  C   UNL     1      37.015 -25.273 -12.402  0.00  0.00    -0.077 C 
ATOM      9  H   UNL     1      35.439 -26.464 -12.973  0.00  0.00    -0.080 HD
ENDROOT
BRANCH   3  11
ATOM     10  O   UNL     1      37.693 -21.621 -16.089  0.00  0.00    -0.270 OA
ATOM     11  N   UNL     1      35.936 -23.120 -15.872  0.00  0.00    -0.304 N 
ATOM     12  C   UNL     1      36.681 -22.156 -16.534  0.00  0.00    +0.246 C 
ATOM     13  H   UNL     1      35.138 -23.490 -16.314  0.00  0.00    +0.150 HD
BRANCH  12  16
ATOM     14  F   UNL     1      37.240 -19.812 -20.758  0.00  0.00    -0.204 F 
ATOM     15  F   UNL     1      33.212 -22.163 -19.941  0.00  0.00    -0.204 F 
ATOM     16  C   UNL     1      36.173 -21.749 -17.870  0.00  0.00    +0.058 C 
ATOM     17  C   UNL     1      34.906 -22.155 -18.288  0.00  0.00    +0.034 C 
ATOM     18  C   UNL     1      36.961 -20.956 -18.704  0.00  0.00    +0.034 C 
ATOM     19  C   UNL     1      36.483 -20.573 -19.957  0.00  0.00    +0.143 C 
ATOM     20  C   UNL     1      34.428 -21.771 -19.540  0.00  0.00    +0.143 C 
ATOM     21  C   UNL     1      35.216 -20.980 -20.374  0.00  0.00    +0.059 C 
ENDBRANCH  12  16
ENDBRANCH   3  11
BRANCH   4  22
ATOM     22  C   UNL     1      34.209 -24.197 -13.204  0.00  0.00    +0.009 C 
BRANCH  22  24
ATOM     23  N   UNL     1      30.734 -25.144 -14.358  0.00  0.00    -0.243 NA
ATOM     24  C   UNL     1      32.899 -24.154 -13.938  0.00  0.00    -0.005 C 
ATOM     25  C   UNL     1      32.621 -23.142 -14.850  0.00  0.00    -0.001 C 
ATOM     26  C   UNL     1      31.931 -25.123 -13.730  0.00  0.00    +0.095 C 
ATOM     27  C   UNL     1      31.401 -23.129 -15.516  0.00  0.00    +0.020 C 
ATOM     28  C   UNL     1      30.499 -24.144 -15.237  0.00  0.00    +0.099 C 
ENDBRANCH  22  24
ENDBRANCH   4  22
TORSDOF 4
ENDMDL
MODEL 4
REMARK VINA RESULT:      -8.3     10.167     13.779
REMARK  Name = 44511587
REMARK  4 active torsions:
REMARK  status: ('A' for Active; 'I' for Inactive)
REMARK    1  A    between atoms: C_3  and  N_11
REMARK    2  A    between atoms: C_4  and  C_22
REMARK    3  A    between atoms: C_12  and  C_16
REMARK    4  A    between atoms: C_22  and  C_24
REMARK                            x       y       z     vdW  Elec       q    Type
REMARK                         _______ _______ _______ _____ _____    ______ ____
ROOT
ATOM      1  N   UNL     1      33.923 -15.475 -22.259  0.00  0.00    +0.390 N 
ATOM      2  C   UNL     1      32.562 -14.131 -20.493  0.00  0.00    +0.012 C 
ATOM      3  C   UNL     1      32.335 -13.572 -21.915  0.00  0.00    +0.053 C 
ATOM      4  C   UNL     1      33.322 -14.266 -22.889  0.00  0.00    -0.035 C 
ATOM      5  C   UNL     1      34.068 -14.110 -20.173  0.00  0.00    -0.021 C 
ATOM      6  C   UNL     1      32.124 -15.604 -20.524  0.00  0.00    -0.021 C 
ATOM      7  C   UNL     1      34.816 -15.015 -21.168  0.00  0.00    -0.077 C 
ATOM      8  C   UNL     1      32.875 -16.330 -21.654  0.00  0.00    -0.077 C 
ATOM      9  H   UNL     1      34.424 -16.011 -22.969  0.00  0.00    -0.080 HD
ENDROOT
BRANCH   3  11
ATOM     10  O   UNL     1      30.371 -11.632 -21.125  0.00  0.00    -0.270 OA
ATOM     11  N   UNL     1      32.478 -12.136 -21.954  0.00  0.00    -0.304 N 
ATOM     12  C   UNL     1      31.468 -11.277 -21.549  0.00  0.00    +0.246 C 
ATOM     13  H   UNL     1      33.325 -11.753 -22.280  0.00  0.00    +0.150 HD
BRANCH  12  16
ATOM     14  F   UNL     1      32.848  -7.036 -19.608  0.00  0.00    -0.204 F 
ATOM     15  F   UNL     1      31.760  -7.219 -24.213  0.00  0.00    -0.204 F 
ATOM     16  C   UNL     1      31.762  -9.825 -21.676  0.00  0.00    +0.058 C 
ATOM     17  C   UNL     1      31.620  -9.190 -22.909  0.00  0.00    +0.034 C 
ATOM     18  C   UNL     1      32.176  -9.097 -20.561  0.00  0.00    +0.034 C 
ATOM     19  C   UNL     1      32.451  -7.735 -20.679  0.00  0.00    +0.143 C 
ATOM     20  C   UNL     1      31.894  -7.828 -23.028  0.00  0.00    +0.143 C 
ATOM     21  C   UNL     1      32.309  -7.101 -21.913  0.00  0.00    +0.059 C 
ENDBRANCH  12  16
ENDBRANCH   3  11
BRANCH   4  22
ATOM     22  C   UNL     1      32.657 -14.597 -24.228  0.00  0.00    +0.009 C 
BRANCH  22  24
ATOM     23  N   UNL     1      33.726 -13.512 -27.690  0.00  0.00    -0.243 NA
ATOM     24  C   UNL     1      33.210 -13.752 -25.340  0.00  0.00    -0.005 C 
ATOM     25  C   UNL     1      33.708 -12.478 -25.093  0.00  0.00    -0.001 C 
ATOM     26  C   UNL     1      33.242 -14.219 -26.644  0.00  0.00    +0.095 C 
ATOM     27  C   UNL     1      34.215 -11.720 -26.142  0.00  0.00    +0.020 C 
ATOM     28  C   UNL     1      34.201 -12.278 -27.411  0.00  0.00    +0.099 C 
ENDBRANCH  22  24
ENDBRANCH   4  22
TORSDOF 4
ENDMDL
MODEL 5
REMARK VINA RESULT:      -8.3     10.167     13.745
REMARK  Name = 44511587
REMARK  4 active torsions:
REMARK  status: ('A' for Active; 'I' for Inactive)
REMARK    1  A    between atoms: C_3  and  N_11
REMARK    2  A    between atoms: C_4  and  C_22
REMARK    3  A    between atoms: C_12  and  C_16
REMARK    4  A    between atoms: C_22  and  C_24
REMARK                            x       y       z     vdW  Elec       q    Type
REMARK                         _______ _______ _______ _____ _____    ______ ____
ROOT
ATOM      1  N   UNL     1      33.912 -15.488 -22.274  0.00  0.00    +0.390 N 
ATOM      2  C   UNL     1      32.583 -14.142 -20.486  0.00  0.00    +0.012 C 
ATOM      3  C   UNL     1      32.347 -13.571 -21.901  0.00  0.00    +0.053 C 
ATOM      4  C   UNL     1      33.317 -14.269 -22.890  0.00  0.00    -0.035 C 
ATOM      5  C   UNL     1      34.092 -14.139 -20.181  0.00  0.00    -0.021 C 
ATOM      6  C   UNL     1      32.129 -15.611 -20.522  0.00  0.00    -0.021 C 
ATOM      7  C   UNL     1      34.821 -15.045 -21.190  0.00  0.00    -0.077 C 
ATOM      8  C   UNL     1      32.861 -16.336 -21.664  0.00  0.00    -0.077 C 
ATOM      9  H   UNL     1      34.399 -16.024 -22.993  0.00  0.00    -0.080 HD
ENDROOT
BRANCH   3  11
ATOM     10  O   UNL     1      30.373 -11.615 -21.181  0.00  0.00    -0.270 OA
ATOM     11  N   UNL     1      32.504 -12.136 -21.932  0.00  0.00    -0.304 N 
ATOM     12  C   UNL     1      31.487 -11.269 -21.564  0.00  0.00    +0.246 C 
ATOM     13  H   UNL     1      33.366 -11.761 -22.226  0.00  0.00    +0.150 HD
BRANCH  12  16
ATOM     14  F   UNL     1      31.936  -7.214 -24.212  0.00  0.00    -0.204 F 
ATOM     15  F   UNL     1      32.828  -7.043 -19.564  0.00  0.00    -0.204 F 
ATOM     16  C   UNL     1      31.799  -9.820 -21.677  0.00  0.00    +0.058 C 
ATOM     17  C   UNL     1      32.174  -9.097 -20.545  0.00  0.00    +0.034 C 
ATOM     18  C   UNL     1      31.719  -9.184 -22.916  0.00  0.00    +0.034 C 
ATOM     19  C   UNL     1      32.012  -7.825 -23.022  0.00  0.00    +0.143 C 
ATOM     20  C   UNL     1      32.469  -7.738 -20.651  0.00  0.00    +0.143 C 
ATOM     21  C   UNL     1      32.388  -7.102 -21.890  0.00  0.00    +0.059 C 
ENDBRANCH  12  16
ENDBRANCH   3  11
BRANCH   4  22
ATOM     22  C   UNL     1      32.634 -14.584 -24.224  0.00  0.00    +0.009 C 
BRANCH  22  24
ATOM     23  N   UNL     1      33.725 -13.526 -27.688  0.00  0.00    -0.243 NA
ATOM     24  C   UNL     1      33.195 -13.748 -25.339  0.00  0.00    -0.005 C 
ATOM     25  C   UNL     1      33.694 -12.473 -25.099  0.00  0.00    -0.001 C 
ATOM     26  C   UNL     1      33.233 -14.225 -26.640  0.00  0.00    +0.095 C 
ATOM     27  C   UNL     1      34.209 -11.724 -26.150  0.00  0.00    +0.020 C 
ATOM     28  C   UNL     1      34.201 -12.291 -27.415  0.00  0.00    +0.099 C 
ENDBRANCH  22  24
ENDBRANCH   4  22
TORSDOF 4
ENDMDL
MODEL 6
REMARK VINA RESULT:      -8.2     13.343     17.624
REMARK  Name = 44511587
REMARK  4 active torsions:
REMARK  status: ('A' for Active; 'I' for Inactive)
REMARK    1  A    between atoms: C_3  and  N_11
REMARK    2  A    between atoms: C_4  and  C_22
REMARK    3  A    between atoms: C_12  and  C_16
REMARK    4  A    between atoms: C_22  and  C_24
REMARK                            x       y       z     vdW  Elec       q    Type
REMARK                         _______ _______ _______ _____ _____    ______ ____
ROOT
ATOM      1  N   UNL     1      32.075  -5.943 -23.918  0.00  0.00    +0.390 N 
ATOM      2  C   UNL     1      31.892  -7.866 -22.173  0.00  0.00    +0.012 C 
ATOM      3  C   UNL     1      33.012  -8.150 -23.198  0.00  0.00    +0.053 C 
ATOM      4  C   UNL     1      32.937  -7.087 -24.326  0.00  0.00    -0.035 C 
ATOM      5  C   UNL     1      30.561  -7.659 -22.918  0.00  0.00    -0.021 C 
ATOM      6  C   UNL     1      32.246  -6.534 -21.492  0.00  0.00    -0.021 C 
ATOM      7  C   UNL     1      30.678  -6.438 -23.847  0.00  0.00    -0.077 C 
ATOM      8  C   UNL     1      32.450  -5.456 -22.570  0.00  0.00    -0.077 C 
ATOM      9  H   UNL     1      32.183  -5.184 -24.590  0.00  0.00    -0.080 HD
ENDROOT
BRANCH   3  11
ATOM     10  O   UNL     1      35.206  -9.831 -23.974  0.00  0.00    -0.270 OA
ATOM     11  N   UNL     1      32.925  -9.490 -23.729  0.00  0.00    -0.304 N 
ATOM     12  C   UNL     1      34.047 -10.226 -24.077  0.00  0.00    +0.246 C 
ATOM     13  H   UNL     1      32.035  -9.895 -23.848  0.00  0.00    +0.150 HD
BRANCH  12  16
ATOM     14  F   UNL     1      33.068 -14.951 -23.474  0.00  0.00    -0.204 F 
ATOM     15  F   UNL     1      33.549 -13.237 -27.862  0.00  0.00    -0.204 F 
ATOM     16  C   UNL     1      33.787 -11.579 -24.634  0.00  0.00    +0.058 C 
ATOM     17  C   UNL     1      33.790 -11.777 -26.014  0.00  0.00    +0.034 C 
ATOM     18  C   UNL     1      33.544 -12.651 -23.776  0.00  0.00    +0.034 C 
ATOM     19  C   UNL     1      33.301 -13.922 -24.298  0.00  0.00    +0.143 C 
ATOM     20  C   UNL     1      33.548 -13.047 -26.537  0.00  0.00    +0.143 C 
ATOM     21  C   UNL     1      33.304 -14.119 -25.679  0.00  0.00    +0.059 C 
ENDBRANCH  12  16
ENDBRANCH   3  11
BRANCH   4  22
ATOM     22  C   UNL     1      34.331  -6.621 -24.757  0.00  0.00    +0.009 C 
BRANCH  22  24
ATOM     23  N   UNL     1      35.414  -4.660 -27.804  0.00  0.00    -0.243 NA
ATOM     24  C   UNL     1      34.265  -5.739 -25.970  0.00  0.00    -0.005 C 
ATOM     25  C   UNL     1      33.060  -5.187 -26.391  0.00  0.00    -0.001 C 
ATOM     26  C   UNL     1      35.404  -5.446 -26.704  0.00  0.00    +0.095 C 
ATOM     27  C   UNL     1      33.031  -4.372 -27.517  0.00  0.00    +0.020 C 
ATOM     28  C   UNL     1      34.224  -4.142 -28.182  0.00  0.00    +0.099 C 
ENDBRANCH  22  24
ENDBRANCH   4  22
TORSDOF 4
ENDMDL
MODEL 7
REMARK VINA RESULT:      -8.2     13.334     17.603
REMARK  Name = 44511587
REMARK  4 active torsions:
REMARK  status: ('A' for Active; 'I' for Inactive)
REMARK    1  A    between atoms: C_3  and  N_11
REMARK    2  A    between atoms: C_4  and  C_22
REMARK    3  A    between atoms: C_12  and  C_16
REMARK    4  A    between atoms: C_22  and  C_24
REMARK                            x       y       z     vdW  Elec       q    Type
REMARK                         _______ _______ _______ _____ _____    ______ ____
ROOT
ATOM      1  N   UNL     1      32.081  -5.959 -23.893  0.00  0.00    +0.390 N 
ATOM      2  C   UNL     1      31.911  -7.884 -22.149  0.00  0.00    +0.012 C 
ATOM      3  C   UNL     1      33.024  -8.166 -23.181  0.00  0.00    +0.053 C 
ATOM      4  C   UNL     1      32.941  -7.102 -24.307  0.00  0.00    -0.035 C 
ATOM      5  C   UNL     1      30.575  -7.676 -22.885  0.00  0.00    -0.021 C 
ATOM      6  C   UNL     1      32.267  -6.552 -21.469  0.00  0.00    -0.021 C 
ATOM      7  C   UNL     1      30.685  -6.455 -23.814  0.00  0.00    -0.077 C 
ATOM      8  C   UNL     1      32.465  -5.473 -22.547  0.00  0.00    -0.077 C 
ATOM      9  H   UNL     1      32.184  -5.199 -24.565  0.00  0.00    -0.080 HD
ENDROOT
BRANCH   3  11
ATOM     10  O   UNL     1      35.213  -9.839 -23.989  0.00  0.00    -0.270 OA
ATOM     11  N   UNL     1      32.935  -9.505 -23.713  0.00  0.00    -0.304 N 
ATOM     12  C   UNL     1      34.055 -10.237 -24.076  0.00  0.00    +0.246 C 
ATOM     13  H   UNL     1      32.045  -9.913 -23.821  0.00  0.00    +0.150 HD
BRANCH  12  16
ATOM     14  F   UNL     1      33.562 -13.254 -27.858  0.00  0.00    -0.204 F 
ATOM     15  F   UNL     1      33.039 -14.954 -23.469  0.00  0.00    -0.204 F 
ATOM     16  C   UNL     1      33.792 -11.590 -24.632  0.00  0.00    +0.058 C 
ATOM     17  C   UNL     1      33.534 -12.658 -23.773  0.00  0.00    +0.034 C 
ATOM     18  C   UNL     1      33.801 -11.792 -26.012  0.00  0.00    +0.034 C 
ATOM     19  C   UNL     1      33.554 -13.061 -26.533  0.00  0.00    +0.143 C 
ATOM     20  C   UNL     1      33.286 -13.928 -24.294  0.00  0.00    +0.143 C 
ATOM     21  C   UNL     1      33.296 -14.129 -25.674  0.00  0.00    +0.059 C 
ENDBRANCH  12  16
ENDBRANCH   3  11
BRANCH   4  22
ATOM     22  C   UNL     1      34.332  -6.635 -24.747  0.00  0.00    +0.009 C 
BRANCH  22  24
ATOM     23  N   UNL     1      35.384  -4.650 -27.790  0.00  0.00    -0.243 NA
ATOM     24  C   UNL     1      34.256  -5.732 -25.945  0.00  0.00    -0.005 C 
ATOM     25  C   UNL     1      33.054  -5.148 -26.328  0.00  0.00    -0.001 C 
ATOM     26  C   UNL     1      35.383  -5.454 -26.702  0.00  0.00    +0.095 C 
ATOM     27  C   UNL     1      33.015  -4.316 -27.440  0.00  0.00    +0.020 C 
ATOM     28  C   UNL     1      34.197  -4.101 -28.131  0.00  0.00    +0.099 C 
ENDBRANCH  22  24
ENDBRANCH   4  22
TORSDOF 4
ENDMDL
