MODEL 1
REMARK VINA RESULT:      -3.4      0.000      0.000
REMARK  Name = 24823
REMARK  0 active torsions:
REMARK  status: ('A' for Active; 'I' for Inactive)
REMARK                            x       y       z     vdW  Elec       q    Type
REMARK                         _______ _______ _______ _____ _____    ______ ____
ROOT
ATOM      1  O   UNL     1      26.645 -21.188 -17.338  0.00  0.00    +0.000 OA
ATOM      2  O   UNL     1      25.653 -21.792 -16.500  0.00  0.00    +0.000 OA
ATOM      3  O   UNL     1      26.169 -20.273 -18.011  0.00  0.00    +0.000 OA
ENDROOT
TORSDOF 0
ENDMDL
MODEL 2
REMARK VINA RESULT:      -3.3     11.933     12.341
REMARK  Name = 24823
REMARK  0 active torsions:
REMARK  status: ('A' for Active; 'I' for Inactive)
REMARK                            x       y       z     vdW  Elec       q    Type
REMARK                         _______ _______ _______ _____ _____    ______ ____
ROOT
ATOM      1  O   UNL     1      35.354 -24.658  -9.808  0.00  0.00    +0.000 OA
ATOM      2  O   UNL     1      35.012 -25.012 -11.153  0.00  0.00    +0.000 OA
ATOM      3  O   UNL     1      36.374 -23.970  -9.769  0.00  0.00    +0.000 OA
ENDROOT
TORSDOF 0
ENDMDL
MODEL 3
REMARK VINA RESULT:      -3.2     15.581     16.048
REMARK  Name = 24823
REMARK  0 active torsions:
REMARK  status: ('A' for Active; 'I' for Inactive)
REMARK                            x       y       z     vdW  Elec       q    Type
REMARK                         _______ _______ _______ _____ _____    ______ ____
ROOT
ATOM      1  O   UNL     1      40.922 -26.205 -15.006  0.00  0.00    +0.000 OA
ATOM      2  O   UNL     1      41.028 -24.812 -14.689  0.00  0.00    +0.000 OA
ATOM      3  O   UNL     1      41.330 -26.909 -14.081  0.00  0.00    +0.000 OA
ENDROOT
TORSDOF 0
ENDMDL
MODEL 4
REMARK VINA RESULT:      -3.2     15.641     15.951
REMARK  Name = 24823
REMARK  0 active torsions:
REMARK  status: ('A' for Active; 'I' for Inactive)
REMARK                            x       y       z     vdW  Elec       q    Type
REMARK                         _______ _______ _______ _____ _____    ______ ____
ROOT
ATOM      1  O   UNL     1      40.940 -25.876 -15.022  0.00  0.00    +0.000 OA
ATOM      2  O   UNL     1      41.325 -26.859 -14.054  0.00  0.00    +0.000 OA
ATOM      3  O   UNL     1      41.094 -24.733 -14.589  0.00  0.00    +0.000 OA
ENDROOT
TORSDOF 0
ENDMDL
MODEL 5
REMARK VINA RESULT:      -3.2      1.168      2.032
REMARK  Name = 24823
REMARK  0 active torsions:
REMARK  status: ('A' for Active; 'I' for Inactive)
REMARK                            x       y       z     vdW  Elec       q    Type
REMARK                         _______ _______ _______ _____ _____    ______ ____
ROOT
ATOM      1  O   UNL     1      25.862 -21.667 -16.947  0.00  0.00    +0.000 OA
ATOM      2  O   UNL     1      27.280 -21.658 -17.146  0.00  0.00    +0.000 OA
ATOM      3  O   UNL     1      25.569 -22.034 -15.808  0.00  0.00    +0.000 OA
ENDROOT
TORSDOF 0
ENDMDL
MODEL 6
REMARK VINA RESULT:      -3.1     12.884     13.027
REMARK  Name = 24823
REMARK  0 active torsions:
REMARK  status: ('A' for Active; 'I' for Inactive)
REMARK                            x       y       z     vdW  Elec       q    Type
REMARK                         _______ _______ _______ _____ _____    ______ ____
ROOT
ATOM      1  O   UNL     1      36.936 -24.119 -10.722  0.00  0.00    +0.000 OA
ATOM      2  O   UNL     1      37.359 -22.776 -10.987  0.00  0.00    +0.000 OA
ATOM      3  O   UNL     1      36.147 -24.165  -9.778  0.00  0.00    +0.000 OA
ENDROOT
TORSDOF 0
ENDMDL
MODEL 7
REMARK VINA RESULT:      -3.0      2.448      3.117
REMARK  Name = 24823
REMARK  0 active torsions:
REMARK  status: ('A' for Active; 'I' for Inactive)
REMARK                            x       y       z     vdW  Elec       q    Type
REMARK                         _______ _______ _______ _____ _____    ______ ____
ROOT
ATOM      1  O   UNL     1      27.520 -23.003 -17.930  0.00  0.00    +0.000 OA
ATOM      2  O   UNL     1      28.210 -21.999 -17.177  0.00  0.00    +0.000 OA
ATOM      3  O   UNL     1      27.762 -24.133 -17.501  0.00  0.00    +0.000 OA
ENDROOT
TORSDOF 0
ENDMDL
MODEL 8
REMARK VINA RESULT:      -3.0     12.074     12.520
REMARK  Name = 24823
REMARK  0 active torsions:
REMARK  status: ('A' for Active; 'I' for Inactive)
REMARK                            x       y       z     vdW  Elec       q    Type
REMARK                         _______ _______ _______ _____ _____    ______ ____
ROOT
ATOM      1  O   UNL     1      35.852 -25.167 -11.438  0.00  0.00    +0.000 OA
ATOM      2  O   UNL     1      36.803 -26.223 -11.613  0.00  0.00    +0.000 OA
ATOM      3  O   UNL     1      35.311 -25.226 -10.333  0.00  0.00    +0.000 OA
ENDROOT
TORSDOF 0
ENDMDL
MODEL 9
REMARK VINA RESULT:      -2.9     12.017     12.523
REMARK  Name = 24823
REMARK  0 active torsions:
REMARK  status: ('A' for Active; 'I' for Inactive)
REMARK                            x       y       z     vdW  Elec       q    Type
REMARK                         _______ _______ _______ _____ _____    ______ ____
ROOT
ATOM      1  O   UNL     1      36.496 -26.963 -15.872  0.00  0.00    +0.000 OA
ATOM      2  O   UNL     1      36.613 -27.823 -17.011  0.00  0.00    +0.000 OA
ATOM      3  O   UNL     1      37.557 -26.894 -15.250  0.00  0.00    +0.000 OA
ENDROOT
TORSDOF 0
ENDMDL
