MODEL 1
REMARK VINA RESULT:      -6.7      0.000      0.000
REMARK  Name = 3712
REMARK  2 active torsions:
REMARK  status: ('A' for Active; 'I' for Inactive)
REMARK    1  A    between atoms: C_3  and  C_11
REMARK    2  A    between atoms: C_11  and  O_12
REMARK                            x       y       z     vdW  Elec       q    Type
REMARK                         _______ _______ _______ _____ _____    ______ ____
ROOT
ATOM      1  N   UNL     1      36.720 -19.771 -20.519  0.00  0.00    -0.312 N 
ATOM      2  C   UNL     1      34.539 -19.521 -20.919  0.00  0.00    +0.013 C 
ATOM      3  C   UNL     1      35.258 -18.502 -21.605  0.00  0.00    +0.023 C 
ATOM      4  C   UNL     1      35.479 -20.304 -20.246  0.00  0.00    +0.048 C 
ATOM      5  C   UNL     1      36.595 -18.682 -21.340  0.00  0.00    +0.060 C 
ATOM      6  C   UNL     1      33.175 -19.855 -20.807  0.00  0.00    +0.001 C 
ATOM      7  C   UNL     1      35.123 -21.407 -19.463  0.00  0.00    +0.015 C 
ATOM      8  C   UNL     1      32.802 -20.956 -20.027  0.00  0.00    +0.000 C 
ATOM      9  C   UNL     1      33.763 -21.718 -19.366  0.00  0.00    +0.001 C 
ATOM     10  H   UNL     1      37.572 -20.123 -20.175  0.00  0.00    +0.152 HD
ENDROOT
BRANCH   3  11
ATOM     11  C   UNL     1      34.681 -17.438 -22.452  0.00  0.00    +0.165 C 
BRANCH  11  12
ATOM     12  O   UNL     1      35.715 -16.793 -23.193  0.00  0.00    -0.377 OA
ATOM     13  H   UNL     1      36.447 -16.566 -22.598  0.00  0.00    +0.211 HD
ENDBRANCH  11  12
ENDBRANCH   3  11
TORSDOF 2
ENDMDL
MODEL 2
REMARK VINA RESULT:      -6.6      2.741      4.102
REMARK  Name = 3712
REMARK  2 active torsions:
REMARK  status: ('A' for Active; 'I' for Inactive)
REMARK    1  A    between atoms: C_3  and  C_11
REMARK    2  A    between atoms: C_11  and  O_12
REMARK                            x       y       z     vdW  Elec       q    Type
REMARK                         _______ _______ _______ _____ _____    ______ ____
ROOT
ATOM      1  N   UNL     1      36.713 -20.671 -19.733  0.00  0.00    -0.312 N 
ATOM      2  C   UNL     1      34.494 -20.888 -19.799  0.00  0.00    +0.013 C 
ATOM      3  C   UNL     1      35.025 -21.823 -18.867  0.00  0.00    +0.023 C 
ATOM      4  C   UNL     1      35.573 -20.177 -20.328  0.00  0.00    +0.048 C 
ATOM      5  C   UNL     1      36.391 -21.665 -18.848  0.00  0.00    +0.060 C 
ATOM      6  C   UNL     1      33.194 -20.575 -20.244  0.00  0.00    +0.001 C 
ATOM      7  C   UNL     1      35.418 -19.168 -21.284  0.00  0.00    +0.015 C 
ATOM      8  C   UNL     1      33.023 -19.568 -21.200  0.00  0.00    +0.000 C 
ATOM      9  C   UNL     1      34.119 -18.876 -21.710  0.00  0.00    +0.001 C 
ATOM     10  H   UNL     1      37.627 -20.354 -19.916  0.00  0.00    +0.152 HD
ENDROOT
BRANCH   3  11
ATOM     11  C   UNL     1      34.257 -22.792 -18.059  0.00  0.00    +0.165 C 
BRANCH  11  12
ATOM     12  O   UNL     1      33.819 -23.872 -18.882  0.00  0.00    -0.377 OA
ATOM     13  H   UNL     1      34.059 -24.714 -18.465  0.00  0.00    +0.211 HD
ENDBRANCH  11  12
ENDBRANCH   3  11
TORSDOF 2
ENDMDL
MODEL 3
REMARK VINA RESULT:      -6.5      1.496      2.323
REMARK  Name = 3712
REMARK  2 active torsions:
REMARK  status: ('A' for Active; 'I' for Inactive)
REMARK    1  A    between atoms: C_3  and  C_11
REMARK    2  A    between atoms: C_11  and  O_12
REMARK                            x       y       z     vdW  Elec       q    Type
REMARK                         _______ _______ _______ _____ _____    ______ ____
ROOT
ATOM      1  N   UNL     1      33.056 -19.785 -20.988  0.00  0.00    -0.312 N 
ATOM      2  C   UNL     1      35.144 -20.266 -20.364  0.00  0.00    +0.013 C 
ATOM      3  C   UNL     1      35.174 -19.199 -21.304  0.00  0.00    +0.023 C 
ATOM      4  C   UNL     1      33.804 -20.615 -20.182  0.00  0.00    +0.048 C 
ATOM      5  C   UNL     1      33.876 -18.925 -21.669  0.00  0.00    +0.060 C 
ATOM      6  C   UNL     1      36.130 -20.971 -19.645  0.00  0.00    +0.001 C 
ATOM      7  C   UNL     1      33.399 -21.637 -19.317  0.00  0.00    +0.015 C 
ATOM      8  C   UNL     1      35.741 -21.996 -18.776  0.00  0.00    +0.000 C 
ATOM      9  C   UNL     1      34.395 -22.322 -18.616  0.00  0.00    +0.001 C 
ATOM     10  H   UNL     1      32.075 -19.805 -21.063  0.00  0.00    +0.152 HD
ENDROOT
BRANCH   3  11
ATOM     11  C   UNL     1      36.377 -18.503 -21.806  0.00  0.00    +0.165 C 
BRANCH  11  12
ATOM     12  O   UNL     1      36.189 -18.129 -23.169  0.00  0.00    -0.377 OA
ATOM     13  H   UNL     1      36.506 -17.222 -23.302  0.00  0.00    +0.211 HD
ENDBRANCH  11  12
ENDBRANCH   3  11
TORSDOF 2
ENDMDL
MODEL 4
REMARK VINA RESULT:      -6.5      4.155      5.165
REMARK  Name = 3712
REMARK  2 active torsions:
REMARK  status: ('A' for Active; 'I' for Inactive)
REMARK    1  A    between atoms: C_3  and  C_11
REMARK    2  A    between atoms: C_11  and  O_12
REMARK                            x       y       z     vdW  Elec       q    Type
REMARK                         _______ _______ _______ _____ _____    ______ ____
ROOT
ATOM      1  N   UNL     1      35.211 -16.993 -23.700  0.00  0.00    -0.312 N 
ATOM      2  C   UNL     1      33.811 -15.321 -23.226  0.00  0.00    +0.013 C 
ATOM      3  C   UNL     1      33.831 -15.527 -24.634  0.00  0.00    +0.023 C 
ATOM      4  C   UNL     1      34.684 -16.254 -22.663  0.00  0.00    +0.048 C 
ATOM      5  C   UNL     1      34.700 -16.561 -24.894  0.00  0.00    +0.060 C 
ATOM      6  C   UNL     1      33.131 -14.430 -22.373  0.00  0.00    +0.001 C 
ATOM      7  C   UNL     1      34.914 -16.340 -21.286  0.00  0.00    +0.015 C 
ATOM      8  C   UNL     1      33.350 -14.503 -20.993  0.00  0.00    +0.000 C 
ATOM      9  C   UNL     1      34.229 -15.445 -20.460  0.00  0.00    +0.001 C 
ATOM     10  H   UNL     1      35.859 -17.727 -23.597  0.00  0.00    +0.152 HD
ENDROOT
BRANCH   3  11
ATOM     11  C   UNL     1      33.061 -14.772 -25.644  0.00  0.00    +0.165 C 
BRANCH  11  12
ATOM     12  O   UNL     1      33.614 -14.990 -26.940  0.00  0.00    -0.377 OA
ATOM     13  H   UNL     1      33.320 -15.851 -27.277  0.00  0.00    +0.211 HD
ENDBRANCH  11  12
ENDBRANCH   3  11
TORSDOF 2
ENDMDL
MODEL 5
REMARK VINA RESULT:      -6.5      2.806      4.551
REMARK  Name = 3712
REMARK  2 active torsions:
REMARK  status: ('A' for Active; 'I' for Inactive)
REMARK    1  A    between atoms: C_3  and  C_11
REMARK    2  A    between atoms: C_11  and  O_12
REMARK                            x       y       z     vdW  Elec       q    Type
REMARK                         _______ _______ _______ _____ _____    ______ ____
ROOT
ATOM      1  N   UNL     1      32.895 -19.874 -20.759  0.00  0.00    -0.312 N 
ATOM      2  C   UNL     1      34.947 -20.523 -20.169  0.00  0.00    +0.013 C 
ATOM      3  C   UNL     1      33.994 -21.408 -19.591  0.00  0.00    +0.023 C 
ATOM      4  C   UNL     1      34.232 -19.570 -20.897  0.00  0.00    +0.048 C 
ATOM      5  C   UNL     1      32.743 -20.983 -19.972  0.00  0.00    +0.060 C 
ATOM      6  C   UNL     1      36.353 -20.440 -20.144  0.00  0.00    +0.001 C 
ATOM      7  C   UNL     1      34.854 -18.534 -21.603  0.00  0.00    +0.015 C 
ATOM      8  C   UNL     1      36.990 -19.411 -20.845  0.00  0.00    +0.000 C 
ATOM      9  C   UNL     1      36.250 -18.473 -21.563  0.00  0.00    +0.001 C 
ATOM     10  H   UNL     1      32.157 -19.367 -21.168  0.00  0.00    +0.152 HD
ENDROOT
BRANCH   3  11
ATOM     11  C   UNL     1      34.286 -22.576 -18.735  0.00  0.00    +0.165 C 
BRANCH  11  12
ATOM     12  O   UNL     1      33.897 -23.776 -19.400  0.00  0.00    -0.377 OA
ATOM     13  H   UNL     1      33.769 -23.595 -20.345  0.00  0.00    +0.211 HD
ENDBRANCH  11  12
ENDBRANCH   3  11
TORSDOF 2
ENDMDL
MODEL 6
REMARK VINA RESULT:      -6.4      2.580      4.758
REMARK  Name = 3712
REMARK  2 active torsions:
REMARK  status: ('A' for Active; 'I' for Inactive)
REMARK    1  A    between atoms: C_3  and  C_11
REMARK    2  A    between atoms: C_11  and  O_12
REMARK                            x       y       z     vdW  Elec       q    Type
REMARK                         _______ _______ _______ _____ _____    ______ ____
ROOT
ATOM      1  N   UNL     1      35.227 -17.506 -24.115  0.00  0.00    -0.312 N 
ATOM      2  C   UNL     1      34.968 -17.122 -21.932  0.00  0.00    +0.013 C 
ATOM      3  C   UNL     1      35.310 -18.490 -22.127  0.00  0.00    +0.023 C 
ATOM      4  C   UNL     1      34.923 -16.526 -23.194  0.00  0.00    +0.048 C 
ATOM      5  C   UNL     1      35.463 -18.694 -23.478  0.00  0.00    +0.060 C 
ATOM      6  C   UNL     1      34.692 -16.330 -20.800  0.00  0.00    +0.001 C 
ATOM      7  C   UNL     1      34.614 -15.175 -23.382  0.00  0.00    +0.015 C 
ATOM      8  C   UNL     1      34.382 -14.977 -20.971  0.00  0.00    +0.000 C 
ATOM      9  C   UNL     1      34.344 -14.410 -22.244  0.00  0.00    +0.001 C 
ATOM     10  H   UNL     1      35.270 -17.369 -25.089  0.00  0.00    +0.152 HD
ENDROOT
BRANCH   3  11
ATOM     11  C   UNL     1      35.474 -19.514 -21.075  0.00  0.00    +0.165 C 
BRANCH  11  12
ATOM     12  O   UNL     1      36.683 -19.282 -20.355  0.00  0.00    -0.377 OA
ATOM     13  H   UNL     1      36.755 -18.338 -20.138  0.00  0.00    +0.211 HD
ENDBRANCH  11  12
ENDBRANCH   3  11
TORSDOF 2
ENDMDL
MODEL 7
REMARK VINA RESULT:      -6.3      4.142      5.494
REMARK  Name = 3712
REMARK  2 active torsions:
REMARK  status: ('A' for Active; 'I' for Inactive)
REMARK    1  A    between atoms: C_3  and  C_11
REMARK    2  A    between atoms: C_11  and  O_12
REMARK                            x       y       z     vdW  Elec       q    Type
REMARK                         _______ _______ _______ _____ _____    ______ ____
ROOT
ATOM      1  N   UNL     1      34.329 -14.480 -22.962  0.00  0.00    -0.312 N 
ATOM      2  C   UNL     1      34.075 -16.035 -24.542  0.00  0.00    +0.013 C 
ATOM      3  C   UNL     1      33.469 -14.824 -24.979  0.00  0.00    +0.023 C 
ATOM      4  C   UNL     1      34.608 -15.793 -23.274  0.00  0.00    +0.048 C 
ATOM      5  C   UNL     1      33.642 -13.887 -23.987  0.00  0.00    +0.060 C 
ATOM      6  C   UNL     1      34.224 -17.318 -25.105  0.00  0.00    +0.001 C 
ATOM      7  C   UNL     1      35.282 -16.772 -22.538  0.00  0.00    +0.015 C 
ATOM      8  C   UNL     1      34.896 -18.309 -24.381  0.00  0.00    +0.000 C 
ATOM      9  C   UNL     1      35.417 -18.038 -23.117  0.00  0.00    +0.001 C 
ATOM     10  H   UNL     1      34.588 -14.034 -22.124  0.00  0.00    +0.152 HD
ENDROOT
BRANCH   3  11
ATOM     11  C   UNL     1      32.777 -14.602 -26.265  0.00  0.00    +0.165 C 
BRANCH  11  12
ATOM     12  O   UNL     1      33.721 -14.615 -27.334  0.00  0.00    -0.377 OA
ATOM     13  H   UNL     1      34.494 -15.143 -27.077  0.00  0.00    +0.211 HD
ENDBRANCH  11  12
ENDBRANCH   3  11
TORSDOF 2
ENDMDL
MODEL 8
REMARK VINA RESULT:      -6.3      3.505      4.735
REMARK  Name = 3712
REMARK  2 active torsions:
REMARK  status: ('A' for Active; 'I' for Inactive)
REMARK    1  A    between atoms: C_3  and  C_11
REMARK    2  A    between atoms: C_11  and  O_12
REMARK                            x       y       z     vdW  Elec       q    Type
REMARK                         _______ _______ _______ _____ _____    ______ ____
ROOT
ATOM      1  N   UNL     1      34.785 -15.986 -21.535  0.00  0.00    -0.312 N 
ATOM      2  C   UNL     1      34.360 -16.162 -23.718  0.00  0.00    +0.013 C 
ATOM      3  C   UNL     1      34.111 -14.824 -23.301  0.00  0.00    +0.023 C 
ATOM      4  C   UNL     1      34.783 -16.871 -22.592  0.00  0.00    +0.048 C 
ATOM      5  C   UNL     1      34.382 -14.748 -21.955  0.00  0.00    +0.060 C 
ATOM      6  C   UNL     1      34.268 -16.841 -24.949  0.00  0.00    +0.001 C 
ATOM      7  C   UNL     1      35.117 -18.228 -22.633  0.00  0.00    +0.015 C 
ATOM      8  C   UNL     1      34.600 -18.199 -25.008  0.00  0.00    +0.000 C 
ATOM      9  C   UNL     1      35.018 -18.880 -23.866  0.00  0.00    +0.001 C 
ATOM     10  H   UNL     1      35.042 -16.213 -20.612  0.00  0.00    +0.152 HD
ENDROOT
BRANCH   3  11
ATOM     11  C   UNL     1      33.646 -13.710 -24.153  0.00  0.00    +0.165 C 
BRANCH  11  12
ATOM     12  O   UNL     1      34.193 -12.479 -23.685  0.00  0.00    -0.377 OA
ATOM     13  H   UNL     1      34.067 -11.792 -24.358  0.00  0.00    +0.211 HD
ENDBRANCH  11  12
ENDBRANCH   3  11
TORSDOF 2
ENDMDL
MODEL 9
REMARK VINA RESULT:      -6.3      3.363      4.546
REMARK  Name = 3712
REMARK  2 active torsions:
REMARK  status: ('A' for Active; 'I' for Inactive)
REMARK    1  A    between atoms: C_3  and  C_11
REMARK    2  A    between atoms: C_11  and  O_12
REMARK                            x       y       z     vdW  Elec       q    Type
REMARK                         _______ _______ _______ _____ _____    ______ ____
ROOT
ATOM      1  N   UNL     1      34.577 -17.167 -25.243  0.00  0.00    -0.312 N 
ATOM      2  C   UNL     1      34.430 -16.363 -23.166  0.00  0.00    +0.013 C 
ATOM      3  C   UNL     1      33.844 -15.431 -24.069  0.00  0.00    +0.023 C 
ATOM      4  C   UNL     1      34.881 -17.443 -23.928  0.00  0.00    +0.048 C 
ATOM      5  C   UNL     1      33.949 -15.954 -25.337  0.00  0.00    +0.060 C 
ATOM      6  C   UNL     1      34.619 -16.393 -21.771  0.00  0.00    +0.001 C 
ATOM      7  C   UNL     1      35.516 -18.554 -23.362  0.00  0.00    +0.015 C 
ATOM      8  C   UNL     1      35.252 -17.497 -21.190  0.00  0.00    +0.000 C 
ATOM      9  C   UNL     1      35.693 -18.560 -21.976  0.00  0.00    +0.001 C 
ATOM     10  H   UNL     1      34.780 -17.757 -26.004  0.00  0.00    +0.152 HD
ENDROOT
BRANCH   3  11
ATOM     11  C   UNL     1      33.230 -14.135 -23.717  0.00  0.00    +0.165 C 
BRANCH  11  12
ATOM     12  O   UNL     1      34.243 -13.143 -23.564  0.00  0.00    -0.377 OA
ATOM     13  H   UNL     1      35.061 -13.448 -23.987  0.00  0.00    +0.211 HD
ENDBRANCH  11  12
ENDBRANCH   3  11
TORSDOF 2
ENDMDL
