MODEL 1
REMARK VINA RESULT:     -12.6      0.000      0.000
REMARK  Name = 24743471
REMARK  3 active torsions:
REMARK  status: ('A' for Active; 'I' for Inactive)
REMARK    1  A    between atoms: C_1  and  N_7
REMARK    2  A    between atoms: C_6  and  C_17
REMARK    3  A    between atoms: C_22  and  N_24
REMARK                            x       y       z     vdW  Elec       q    Type
REMARK                         _______ _______ _______ _____ _____    ______ ____
ROOT
ATOM      1  C   UNL     1      36.114 -23.288 -15.804  0.00  0.00    +0.048 C 
ATOM      2  C   UNL     1      34.897 -23.354 -16.481  0.00  0.00    +0.015 C 
ATOM      3  C   UNL     1      37.132 -22.459 -16.278  0.00  0.00    +0.015 C 
ATOM      4  C   UNL     1      34.696 -22.591 -17.632  0.00  0.00    +0.001 C 
ATOM      5  C   UNL     1      36.930 -21.695 -17.428  0.00  0.00    +0.001 C 
ATOM      6  C   UNL     1      35.712 -21.762 -18.104  0.00  0.00    +0.000 C 
ENDROOT
BRANCH   1   7
ATOM      7  N   UNL     1      36.314 -24.042 -14.665  0.00  0.00    -0.311 N 
ATOM      8  N   UNL     1      38.961 -26.226 -14.018  0.00  0.00    +0.387 N 
ATOM      9  C   UNL     1      36.861 -25.808 -13.168  0.00  0.00    -0.003 C 
ATOM     10  C   UNL     1      36.826 -25.416 -14.655  0.00  0.00    +0.050 C 
ATOM     11  C   UNL     1      35.968 -24.801 -12.465  0.00  0.00    +0.021 C 
ATOM     12  C   UNL     1      38.335 -25.741 -12.790  0.00  0.00    -0.076 C 
ATOM     13  C   UNL     1      38.290 -25.504 -15.103  0.00  0.00    -0.057 C 
ATOM     14  C   UNL     1      36.081 -23.538 -13.313  0.00  0.00    +0.091 C 
ATOM     15  C   UNL     1      40.402 -26.026 -14.025  0.00  0.00    -0.101 C 
ATOM     16  H   UNL     1      38.852 -27.236 -14.119  0.00  0.00    -0.080 HD
ENDBRANCH   1   7
BRANCH   6  17
ATOM     17  C   UNL     1      35.504 -20.970 -19.298  0.00  0.00    +0.000 C 
ATOM     18  C   UNL     1      36.585 -20.333 -19.908  0.00  0.00    +0.001 C 
ATOM     19  C   UNL     1      34.224 -20.843 -19.836  0.00  0.00    +0.001 C 
ATOM     20  C   UNL     1      36.385 -19.570 -21.059  0.00  0.00    +0.017 C 
ATOM     21  C   UNL     1      34.024 -20.079 -20.987  0.00  0.00    +0.017 C 
ATOM     22  C   UNL     1      35.105 -19.443 -21.597  0.00  0.00    +0.077 C 
BRANCH  22  24
ATOM     23  O   UNL     1      35.144 -16.483 -21.902  0.00  0.00    -0.268 OA
ATOM     24  N   UNL     1      34.899 -18.652 -22.788  0.00  0.00    -0.155 N 
ATOM     25  N   UNL     1      34.696 -19.412 -23.917  0.00  0.00    -0.170 NA
ATOM     26  C   UNL     1      34.909 -17.253 -22.832  0.00  0.00    +0.272 C 
ATOM     27  C   UNL     1      34.624 -16.626 -24.147  0.00  0.00    +0.062 C 
ATOM     28  C   UNL     1      34.475 -18.805 -25.032  0.00  0.00    +0.118 C 
ATOM     29  C   UNL     1      34.411 -17.363 -25.232  0.00  0.00    +0.027 C 
ENDBRANCH  22  24
ENDBRANCH   6  17
TORSDOF 3
ENDMDL
MODEL 2
REMARK VINA RESULT:     -10.9      2.564     10.389
REMARK  Name = 24743471
REMARK  3 active torsions:
REMARK  status: ('A' for Active; 'I' for Inactive)
REMARK    1  A    between atoms: C_1  and  N_7
REMARK    2  A    between atoms: C_6  and  C_17
REMARK    3  A    between atoms: C_22  and  N_24
REMARK                            x       y       z     vdW  Elec       q    Type
REMARK                         _______ _______ _______ _____ _____    ______ ____
ROOT
ATOM      1  C   UNL     1      35.242 -19.519 -21.273  0.00  0.00    +0.048 C 
ATOM      2  C   UNL     1      34.210 -20.266 -20.706  0.00  0.00    +0.015 C 
ATOM      3  C   UNL     1      36.523 -19.566 -20.721  0.00  0.00    +0.015 C 
ATOM      4  C   UNL     1      34.458 -21.061 -19.586  0.00  0.00    +0.001 C 
ATOM      5  C   UNL     1      36.770 -20.362 -19.602  0.00  0.00    +0.001 C 
ATOM      6  C   UNL     1      35.737 -21.109 -19.035  0.00  0.00    +0.000 C 
ENDROOT
BRANCH   1   7
ATOM      7  N   UNL     1      34.999 -18.732 -22.382  0.00  0.00    -0.311 N 
ATOM      8  N   UNL     1      33.958 -15.399 -22.417  0.00  0.00    +0.387 N 
ATOM      9  C   UNL     1      34.056 -17.161 -23.898  0.00  0.00    -0.003 C 
ATOM     10  C   UNL     1      33.900 -17.768 -22.493  0.00  0.00    +0.050 C 
ATOM     11  C   UNL     1      34.961 -18.119 -24.653  0.00  0.00    +0.021 C 
ATOM     12  C   UNL     1      34.640 -15.776 -23.653  0.00  0.00    -0.076 C 
ATOM     13  C   UNL     1      34.063 -16.574 -21.545  0.00  0.00    -0.057 C 
ATOM     14  C   UNL     1      35.846 -18.733 -23.573  0.00  0.00    +0.091 C 
ATOM     15  C   UNL     1      34.524 -14.204 -21.810  0.00  0.00    -0.101 C 
ATOM     16  H   UNL     1      32.983 -15.150 -22.589  0.00  0.00    -0.080 HD
ENDBRANCH   1   7
BRANCH   6  17
ATOM     17  C   UNL     1      35.995 -21.933 -17.874  0.00  0.00    +0.000 C 
ATOM     18  C   UNL     1      37.259 -21.929 -17.284  0.00  0.00    +0.001 C 
ATOM     19  C   UNL     1      34.981 -22.731 -17.346  0.00  0.00    +0.001 C 
ATOM     20  C   UNL     1      37.508 -22.723 -16.164  0.00  0.00    +0.017 C 
ATOM     21  C   UNL     1      35.230 -23.526 -16.227  0.00  0.00    +0.017 C 
ATOM     22  C   UNL     1      36.494 -23.522 -15.636  0.00  0.00    +0.077 C 
BRANCH  22  24
ATOM     23  O   UNL     1      37.046 -26.443 -15.508  0.00  0.00    -0.268 OA
ATOM     24  N   UNL     1      36.752 -24.344 -14.478  0.00  0.00    -0.155 N 
ATOM     25  N   UNL     1      36.771 -23.634 -13.300  0.00  0.00    -0.170 NA
ATOM     26  C   UNL     1      36.977 -25.725 -14.510  0.00  0.00    +0.272 C 
ATOM     27  C   UNL     1      37.172 -26.400 -13.202  0.00  0.00    +0.062 C 
ATOM     28  C   UNL     1      36.968 -24.276 -12.200  0.00  0.00    +0.118 C 
ATOM     29  C   UNL     1      37.173 -25.713 -12.065  0.00  0.00    +0.027 C 
ENDBRANCH  22  24
ENDBRANCH   6  17
TORSDOF 3
ENDMDL
MODEL 3
REMARK VINA RESULT:     -10.8      1.098      2.254
REMARK  Name = 24743471
REMARK  3 active torsions:
REMARK  status: ('A' for Active; 'I' for Inactive)
REMARK    1  A    between atoms: C_1  and  N_7
REMARK    2  A    between atoms: C_6  and  C_17
REMARK    3  A    between atoms: C_22  and  N_24
REMARK                            x       y       z     vdW  Elec       q    Type
REMARK                         _______ _______ _______ _____ _____    ______ ____
ROOT
ATOM      1  C   UNL     1      36.568 -23.674 -15.789  0.00  0.00    +0.048 C 
ATOM      2  C   UNL     1      37.572 -22.842 -16.282  0.00  0.00    +0.015 C 
ATOM      3  C   UNL     1      35.300 -23.659 -16.371  0.00  0.00    +0.015 C 
ATOM      4  C   UNL     1      37.309 -21.993 -17.357  0.00  0.00    +0.001 C 
ATOM      5  C   UNL     1      35.038 -22.810 -17.447  0.00  0.00    +0.001 C 
ATOM      6  C   UNL     1      36.043 -21.977 -17.939  0.00  0.00    +0.000 C 
ENDROOT
BRANCH   1   7
ATOM      7  N   UNL     1      36.827 -24.516 -14.725  0.00  0.00    -0.311 N 
ATOM      8  N   UNL     1      37.202 -23.623 -11.370  0.00  0.00    +0.387 N 
ATOM      9  C   UNL     1      37.677 -25.440 -12.705  0.00  0.00    -0.003 C 
ATOM     10  C   UNL     1      37.725 -24.197 -13.611  0.00  0.00    +0.050 C 
ATOM     11  C   UNL     1      37.102 -26.547 -13.571  0.00  0.00    +0.021 C 
ATOM     12  C   UNL     1      36.807 -25.021 -11.527  0.00  0.00    -0.076 C 
ATOM     13  C   UNL     1      37.188 -23.065 -12.726  0.00  0.00    -0.057 C 
ATOM     14  C   UNL     1      36.194 -25.822 -14.558  0.00  0.00    +0.091 C 
ATOM     15  C   UNL     1      36.329 -22.896 -10.461  0.00  0.00    -0.101 C 
ATOM     16  H   UNL     1      38.126 -23.541 -10.943  0.00  0.00    -0.080 HD
ENDBRANCH   1   7
BRANCH   6  17
ATOM     17  C   UNL     1      35.769 -21.097 -19.055  0.00  0.00    +0.000 C 
ATOM     18  C   UNL     1      34.472 -20.990 -19.556  0.00  0.00    +0.001 C 
ATOM     19  C   UNL     1      36.802 -20.356 -19.628  0.00  0.00    +0.001 C 
ATOM     20  C   UNL     1      34.208 -20.142 -20.632  0.00  0.00    +0.017 C 
ATOM     21  C   UNL     1      36.538 -19.507 -20.704  0.00  0.00    +0.017 C 
ATOM     22  C   UNL     1      35.240 -19.401 -21.205  0.00  0.00    +0.077 C 
BRANCH  22  24
ATOM     23  O   UNL     1      34.980 -16.437 -21.222  0.00  0.00    -0.268 OA
ATOM     24  N   UNL     1      34.967 -18.522 -22.318  0.00  0.00    -0.155 N 
ATOM     25  N   UNL     1      34.855 -19.184 -23.519  0.00  0.00    -0.170 NA
ATOM     26  C   UNL     1      34.835 -17.132 -22.227  0.00  0.00    +0.272 C 
ATOM     27  C   UNL     1      34.501 -16.411 -23.481  0.00  0.00    +0.062 C 
ATOM     28  C   UNL     1      34.585 -18.497 -24.575  0.00  0.00    +0.118 C 
ATOM     29  C   UNL     1      34.376 -17.055 -24.636  0.00  0.00    +0.027 C 
ENDBRANCH  22  24
ENDBRANCH   6  17
TORSDOF 3
ENDMDL
MODEL 4
REMARK VINA RESULT:     -10.4      6.821     11.534
REMARK  Name = 24743471
REMARK  3 active torsions:
REMARK  status: ('A' for Active; 'I' for Inactive)
REMARK    1  A    between atoms: C_1  and  N_7
REMARK    2  A    between atoms: C_6  and  C_17
REMARK    3  A    between atoms: C_22  and  N_24
REMARK                            x       y       z     vdW  Elec       q    Type
REMARK                         _______ _______ _______ _____ _____    ______ ____
ROOT
ATOM      1  C   UNL     1      34.152 -15.538 -23.485  0.00  0.00    +0.048 C 
ATOM      2  C   UNL     1      34.448 -14.780 -22.352  0.00  0.00    +0.015 C 
ATOM      3  C   UNL     1      33.481 -14.953 -24.559  0.00  0.00    +0.015 C 
ATOM      4  C   UNL     1      34.073 -13.438 -22.293  0.00  0.00    +0.001 C 
ATOM      5  C   UNL     1      33.106 -13.611 -24.499  0.00  0.00    +0.001 C 
ATOM      6  C   UNL     1      33.402 -12.854 -23.366  0.00  0.00    +0.000 C 
ENDROOT
BRANCH   1   7
ATOM      7  N   UNL     1      34.524 -16.867 -23.545  0.00  0.00    -0.311 N 
ATOM      8  N   UNL     1      34.072 -19.299 -21.081  0.00  0.00    +0.387 N 
ATOM      9  C   UNL     1      35.331 -19.035 -22.992  0.00  0.00    -0.003 C 
ATOM     10  C   UNL     1      35.084 -17.627 -22.424  0.00  0.00    +0.050 C 
ATOM     11  C   UNL     1      35.304 -18.869 -24.502  0.00  0.00    +0.021 C 
ATOM     12  C   UNL     1      34.207 -19.884 -22.414  0.00  0.00    -0.076 C 
ATOM     13  C   UNL     1      34.068 -17.848 -21.296  0.00  0.00    -0.057 C 
ATOM     14  C   UNL     1      34.358 -17.697 -24.737  0.00  0.00    +0.091 C 
ATOM     15  C   UNL     1      32.880 -19.762 -20.388  0.00  0.00    -0.101 C 
ATOM     16  H   UNL     1      34.839 -19.583 -20.469  0.00  0.00    -0.080 HD
ENDBRANCH   1   7
BRANCH   6  17
ATOM     17  C   UNL     1      33.012 -11.462 -23.305  0.00  0.00    +0.000 C 
ATOM     18  C   UNL     1      33.798 -10.491 -23.926  0.00  0.00    +0.001 C 
ATOM     19  C   UNL     1      31.853 -11.091 -22.625  0.00  0.00    +0.001 C 
ATOM     20  C   UNL     1      33.423  -9.148 -23.868  0.00  0.00    +0.017 C 
ATOM     21  C   UNL     1      31.478  -9.748 -22.567  0.00  0.00    +0.017 C 
ATOM     22  C   UNL     1      32.264  -8.777 -23.188  0.00  0.00    +0.077 C 
BRANCH  22  24
ATOM     23  O   UNL     1      32.132  -6.979 -20.821  0.00  0.00    -0.268 OA
ATOM     24  N   UNL     1      31.875  -7.387 -23.127  0.00  0.00    -0.155 N 
ATOM     25  N   UNL     1      31.568  -6.855 -24.358  0.00  0.00    -0.170 NA
ATOM     26  C   UNL     1      31.818  -6.623 -21.957  0.00  0.00    +0.272 C 
ATOM     27  C   UNL     1      31.344  -5.223 -22.098  0.00  0.00    +0.062 C 
ATOM     28  C   UNL     1      31.184  -5.626 -24.414  0.00  0.00    +0.118 C 
ATOM     29  C   UNL     1      31.030  -4.717 -23.285  0.00  0.00    +0.027 C 
ENDBRANCH  22  24
ENDBRANCH   6  17
TORSDOF 3
ENDMDL
MODEL 5
REMARK VINA RESULT:     -10.2      1.601      2.302
REMARK  Name = 24743471
REMARK  3 active torsions:
REMARK  status: ('A' for Active; 'I' for Inactive)
REMARK    1  A    between atoms: C_1  and  N_7
REMARK    2  A    between atoms: C_6  and  C_17
REMARK    3  A    between atoms: C_22  and  N_24
REMARK                            x       y       z     vdW  Elec       q    Type
REMARK                         _______ _______ _______ _____ _____    ______ ____
ROOT
ATOM      1  C   UNL     1      35.600 -23.226 -16.759  0.00  0.00    +0.048 C 
ATOM      2  C   UNL     1      34.381 -23.168 -17.433  0.00  0.00    +0.015 C 
ATOM      3  C   UNL     1      36.647 -22.385 -17.138  0.00  0.00    +0.015 C 
ATOM      4  C   UNL     1      34.208 -22.270 -18.486  0.00  0.00    +0.001 C 
ATOM      5  C   UNL     1      36.473 -21.486 -18.190  0.00  0.00    +0.001 C 
ATOM      6  C   UNL     1      35.253 -21.430 -18.864  0.00  0.00    +0.000 C 
ENDROOT
BRANCH   1   7
ATOM      7  N   UNL     1      35.773 -24.114 -15.716  0.00  0.00    -0.311 N 
ATOM      8  N   UNL     1      37.596 -23.595 -12.783  0.00  0.00    +0.387 N 
ATOM      9  C   UNL     1      36.709 -25.383 -13.934  0.00  0.00    -0.003 C 
ATOM     10  C   UNL     1      37.026 -24.295 -14.975  0.00  0.00    +0.050 C 
ATOM     11  C   UNL     1      35.439 -26.054 -14.427  0.00  0.00    +0.021 C 
ATOM     12  C   UNL     1      36.572 -24.626 -12.620  0.00  0.00    -0.076 C 
ATOM     13  C   UNL     1      37.398 -23.067 -14.136  0.00  0.00    -0.057 C 
ATOM     14  C   UNL     1      34.702 -24.957 -15.188  0.00  0.00    +0.091 C 
ATOM     15  C   UNL     1      37.512 -22.560 -11.764  0.00  0.00    -0.101 C 
ATOM     16  H   UNL     1      38.535 -23.980 -12.667  0.00  0.00    -0.080 HD
ENDBRANCH   1   7
BRANCH   6  17
ATOM     17  C   UNL     1      35.074 -20.497 -19.957  0.00  0.00    +0.000 C 
ATOM     18  C   UNL     1      33.793 -20.226 -20.437  0.00  0.00    +0.001 C 
ATOM     19  C   UNL     1      36.181 -19.872 -20.529  0.00  0.00    +0.001 C 
ATOM     20  C   UNL     1      33.619 -19.327 -21.490  0.00  0.00    +0.017 C 
ATOM     21  C   UNL     1      36.008 -18.973 -21.582  0.00  0.00    +0.017 C 
ATOM     22  C   UNL     1      34.727 -18.701 -22.062  0.00  0.00    +0.077 C 
BRANCH  22  24
ATOM     23  O   UNL     1      34.759 -19.230 -24.990  0.00  0.00    -0.268 OA
ATOM     24  N   UNL     1      34.547 -17.771 -23.153  0.00  0.00    -0.155 N 
ATOM     25  N   UNL     1      34.294 -16.486 -22.734  0.00  0.00    -0.170 NA
ATOM     26  C   UNL     1      34.605 -18.108 -24.510  0.00  0.00    +0.272 C 
ATOM     27  C   UNL     1      34.445 -16.995 -25.480  0.00  0.00    +0.062 C 
ATOM     28  C   UNL     1      34.143 -15.569 -23.627  0.00  0.00    +0.118 C 
ATOM     29  C   UNL     1      34.218 -15.751 -25.072  0.00  0.00    +0.027 C 
ENDBRANCH  22  24
ENDBRANCH   6  17
TORSDOF 3
ENDMDL
MODEL 6
REMARK VINA RESULT:      -9.9      6.742     14.063
REMARK  Name = 24743471
REMARK  3 active torsions:
REMARK  status: ('A' for Active; 'I' for Inactive)
REMARK    1  A    between atoms: C_1  and  N_7
REMARK    2  A    between atoms: C_6  and  C_17
REMARK    3  A    between atoms: C_22  and  N_24
REMARK                            x       y       z     vdW  Elec       q    Type
REMARK                         _______ _______ _______ _____ _____    ______ ____
ROOT
ATOM      1  C   UNL     1      32.263  -9.957 -22.879  0.00  0.00    +0.048 C 
ATOM      2  C   UNL     1      33.166 -10.671 -23.668  0.00  0.00    +0.015 C 
ATOM      3  C   UNL     1      31.634 -10.581 -21.802  0.00  0.00    +0.015 C 
ATOM      4  C   UNL     1      33.438 -12.009 -23.380  0.00  0.00    +0.001 C 
ATOM      5  C   UNL     1      31.907 -11.919 -21.514  0.00  0.00    +0.001 C 
ATOM      6  C   UNL     1      32.809 -12.632 -22.303  0.00  0.00    +0.000 C 
ENDROOT
BRANCH   1   7
ATOM      7  N   UNL     1      31.993  -8.633 -23.162  0.00  0.00    -0.311 N 
ATOM      8  N   UNL     1      34.160  -6.296 -24.588  0.00  0.00    +0.387 N 
ATOM      9  C   UNL     1      32.174  -6.276 -23.422  0.00  0.00    -0.003 C 
ATOM     10  C   UNL     1      32.941  -7.531 -22.973  0.00  0.00    +0.050 C 
ATOM     11  C   UNL     1      30.710  -6.679 -23.427  0.00  0.00    +0.021 C 
ATOM     12  C   UNL     1      32.757  -5.939 -24.788  0.00  0.00    -0.076 C 
ATOM     13  C   UNL     1      34.135  -7.608 -23.933  0.00  0.00    -0.057 C 
ATOM     14  C   UNL     1      30.730  -8.173 -23.736  0.00  0.00    +0.091 C 
ATOM     15  C   UNL     1      34.913  -6.311 -25.833  0.00  0.00    -0.101 C 
ATOM     16  H   UNL     1      34.644  -5.603 -24.016  0.00  0.00    -0.080 HD
ENDBRANCH   1   7
BRANCH   6  17
ATOM     17  C   UNL     1      33.091 -14.019 -22.004  0.00  0.00    +0.000 C 
ATOM     18  C   UNL     1      32.522 -14.619 -20.880  0.00  0.00    +0.001 C 
ATOM     19  C   UNL     1      33.932 -14.756 -22.838  0.00  0.00    +0.001 C 
ATOM     20  C   UNL     1      32.794 -15.957 -20.591  0.00  0.00    +0.017 C 
ATOM     21  C   UNL     1      34.204 -16.093 -22.549  0.00  0.00    +0.017 C 
ATOM     22  C   UNL     1      33.635 -16.693 -21.425  0.00  0.00    +0.077 C 
BRANCH  22  24
ATOM     23  O   UNL     1      36.249 -18.114 -21.454  0.00  0.00    -0.268 OA
ATOM     24  N   UNL     1      33.916 -18.078 -21.126  0.00  0.00    -0.155 N 
ATOM     25  N   UNL     1      32.802 -18.789 -20.746  0.00  0.00    -0.170 NA
ATOM     26  C   UNL     1      35.182 -18.670 -21.191  0.00  0.00    +0.272 C 
ATOM     27  C   UNL     1      35.255 -20.123 -20.895  0.00  0.00    +0.062 C 
ATOM     28  C   UNL     1      32.937 -20.043 -20.481  0.00  0.00    +0.118 C 
ATOM     29  C   UNL     1      34.174 -20.811 -20.546  0.00  0.00    +0.027 C 
ENDBRANCH  22  24
ENDBRANCH   6  17
TORSDOF 3
ENDMDL
MODEL 7
REMARK VINA RESULT:      -9.8      7.921     15.214
REMARK  Name = 24743471
REMARK  3 active torsions:
REMARK  status: ('A' for Active; 'I' for Inactive)
REMARK    1  A    between atoms: C_1  and  N_7
REMARK    2  A    between atoms: C_6  and  C_17
REMARK    3  A    between atoms: C_22  and  N_24
REMARK                            x       y       z     vdW  Elec       q    Type
REMARK                         _______ _______ _______ _____ _____    ______ ____
ROOT
ATOM      1  C   UNL     1      32.063  -8.439 -23.030  0.00  0.00    +0.048 C 
ATOM      2  C   UNL     1      31.235  -9.397 -22.446  0.00  0.00    +0.015 C 
ATOM      3  C   UNL     1      33.239  -8.831 -23.671  0.00  0.00    +0.015 C 
ATOM      4  C   UNL     1      31.583 -10.747 -22.501  0.00  0.00    +0.001 C 
ATOM      5  C   UNL     1      33.586 -10.181 -23.727  0.00  0.00    +0.001 C 
ATOM      6  C   UNL     1      32.757 -11.138 -23.141  0.00  0.00    +0.000 C 
ENDROOT
BRANCH   1   7
ATOM      7  N   UNL     1      31.720  -7.102 -22.977  0.00  0.00    -0.311 N 
ATOM      8  N   UNL     1      32.601  -4.606 -25.254  0.00  0.00    +0.387 N 
ATOM      9  C   UNL     1      31.779  -4.728 -23.105  0.00  0.00    -0.003 C 
ATOM     10  C   UNL     1      32.616  -5.998 -23.335  0.00  0.00    +0.050 C 
ATOM     11  C   UNL     1      30.620  -5.163 -22.226  0.00  0.00    +0.021 C 
ATOM     12  C   UNL     1      31.393  -4.266 -24.503  0.00  0.00    -0.076 C 
ATOM     13  C   UNL     1      32.945  -5.967 -24.832  0.00  0.00    -0.057 C 
ATOM     14  C   UNL     1      30.392  -6.625 -22.596  0.00  0.00    +0.091 C 
ATOM     15  C   UNL     1      32.411  -4.500 -26.692  0.00  0.00    -0.101 C 
ATOM     16  H   UNL     1      33.359  -3.951 -25.056  0.00  0.00    -0.080 HD
ENDBRANCH   1   7
BRANCH   6  17
ATOM     17  C   UNL     1      33.118 -12.539 -23.199  0.00  0.00    +0.000 C 
ATOM     18  C   UNL     1      33.902 -13.013 -24.252  0.00  0.00    +0.001 C 
ATOM     19  C   UNL     1      32.681 -13.413 -22.205  0.00  0.00    +0.001 C 
ATOM     20  C   UNL     1      34.250 -14.363 -24.308  0.00  0.00    +0.017 C 
ATOM     21  C   UNL     1      33.029 -14.763 -22.261  0.00  0.00    +0.017 C 
ATOM     22  C   UNL     1      33.813 -15.237 -23.314  0.00  0.00    +0.077 C 
BRANCH  22  24
ATOM     23  O   UNL     1      34.161 -16.976 -25.703  0.00  0.00    -0.268 OA
ATOM     24  N   UNL     1      34.174 -16.635 -23.372  0.00  0.00    -0.155 N 
ATOM     25  N   UNL     1      34.415 -17.186 -22.135  0.00  0.00    -0.170 NA
ATOM     26  C   UNL     1      34.289 -17.383 -24.549  0.00  0.00    +0.272 C 
ATOM     27  C   UNL     1      34.620 -18.822 -24.394  0.00  0.00    +0.062 C 
ATOM     28  C   UNL     1      34.719 -18.437 -22.071  0.00  0.00    +0.118 C 
ATOM     29  C   UNL     1      34.835 -19.356 -23.197  0.00  0.00    +0.027 C 
ENDBRANCH  22  24
ENDBRANCH   6  17
TORSDOF 3
ENDMDL
MODEL 8
REMARK VINA RESULT:      -9.7      6.361     13.394
REMARK  Name = 24743471
REMARK  3 active torsions:
REMARK  status: ('A' for Active; 'I' for Inactive)
REMARK    1  A    between atoms: C_1  and  N_7
REMARK    2  A    between atoms: C_6  and  C_17
REMARK    3  A    between atoms: C_22  and  N_24
REMARK                            x       y       z     vdW  Elec       q    Type
REMARK                         _______ _______ _______ _____ _____    ______ ____
ROOT
ATOM      1  C   UNL     1      32.411 -10.847 -22.893  0.00  0.00    +0.048 C 
ATOM      2  C   UNL     1      33.394 -11.490 -23.646  0.00  0.00    +0.015 C 
ATOM      3  C   UNL     1      31.815 -11.506 -21.817  0.00  0.00    +0.015 C 
ATOM      4  C   UNL     1      33.781 -12.791 -23.323  0.00  0.00    +0.001 C 
ATOM      5  C   UNL     1      32.203 -12.807 -21.495  0.00  0.00    +0.001 C 
ATOM      6  C   UNL     1      33.185 -13.449 -22.248  0.00  0.00    +0.000 C 
ENDROOT
BRANCH   1   7
ATOM      7  N   UNL     1      32.028  -9.559 -23.210  0.00  0.00    -0.311 N 
ATOM      8  N   UNL     1      31.793  -6.833 -21.041  0.00  0.00    +0.387 N 
ATOM      9  C   UNL     1      31.049  -7.393 -23.148  0.00  0.00    -0.003 C 
ATOM     10  C   UNL     1      31.189  -8.707 -22.362  0.00  0.00    +0.050 C 
ATOM     11  C   UNL     1      31.449  -7.732 -24.573  0.00  0.00    +0.021 C 
ATOM     12  C   UNL     1      31.972  -6.417 -22.431  0.00  0.00    -0.076 C 
ATOM     13  C   UNL     1      31.891  -8.296 -21.061  0.00  0.00    -0.057 C 
ATOM     14  C   UNL     1      32.457  -8.866 -24.423  0.00  0.00    +0.091 C 
ATOM     15  C   UNL     1      32.766  -6.223 -20.147  0.00  0.00    -0.101 C 
ATOM     16  H   UNL     1      30.893  -6.525 -20.672  0.00  0.00    -0.080 HD
ENDBRANCH   1   7
BRANCH   6  17
ATOM     17  C   UNL     1      33.586 -14.799 -21.914  0.00  0.00    +0.000 C 
ATOM     18  C   UNL     1      34.595 -15.427 -22.644  0.00  0.00    +0.001 C 
ATOM     19  C   UNL     1      32.964 -15.470 -20.862  0.00  0.00    +0.001 C 
ATOM     20  C   UNL     1      34.982 -16.728 -22.322  0.00  0.00    +0.017 C 
ATOM     21  C   UNL     1      33.351 -16.771 -20.539  0.00  0.00    +0.017 C 
ATOM     22  C   UNL     1      34.359 -17.400 -21.270  0.00  0.00    +0.077 C 
BRANCH  22  24
ATOM     23  O   UNL     1      32.683 -19.851 -21.078  0.00  0.00    -0.268 OA
ATOM     24  N   UNL     1      34.760 -18.747 -20.937  0.00  0.00    -0.155 N 
ATOM     25  N   UNL     1      36.112 -18.875 -20.722  0.00  0.00    -0.170 NA
ATOM     26  C   UNL     1      33.892 -19.841 -20.844  0.00  0.00    +0.272 C 
ATOM     27  C   UNL     1      34.492 -21.136 -20.437  0.00  0.00    +0.062 C 
ATOM     28  C   UNL     1      36.574 -20.032 -20.392  0.00  0.00    +0.118 C 
ATOM     29  C   UNL     1      35.796 -21.252 -20.212  0.00  0.00    +0.027 C 
ENDBRANCH  22  24
ENDBRANCH   6  17
TORSDOF 3
ENDMDL
MODEL 9
REMARK VINA RESULT:      -9.6      6.972     14.373
REMARK  Name = 24743471
REMARK  3 active torsions:
REMARK  status: ('A' for Active; 'I' for Inactive)
REMARK    1  A    between atoms: C_1  and  N_7
REMARK    2  A    between atoms: C_6  and  C_17
REMARK    3  A    between atoms: C_22  and  N_24
REMARK                            x       y       z     vdW  Elec       q    Type
REMARK                         _______ _______ _______ _____ _____    ______ ____
ROOT
ATOM      1  C   UNL     1      33.125  -9.642 -23.628  0.00  0.00    +0.048 C 
ATOM      2  C   UNL     1      32.302 -10.159 -22.627  0.00  0.00    +0.015 C 
ATOM      3  C   UNL     1      34.067 -10.462 -24.249  0.00  0.00    +0.015 C 
ATOM      4  C   UNL     1      32.422 -11.496 -22.247  0.00  0.00    +0.001 C 
ATOM      5  C   UNL     1      34.186 -11.799 -23.869  0.00  0.00    +0.001 C 
ATOM      6  C   UNL     1      33.364 -12.315 -22.868  0.00  0.00    +0.000 C 
ENDROOT
BRANCH   1   7
ATOM      7  N   UNL     1      33.007  -8.319 -24.005  0.00  0.00    -0.311 N 
ATOM      8  N   UNL     1      30.723  -5.973 -22.791  0.00  0.00    +0.387 N 
ATOM      9  C   UNL     1      32.133  -6.188 -24.600  0.00  0.00    -0.003 C 
ATOM     10  C   UNL     1      31.734  -7.612 -24.175  0.00  0.00    +0.050 C 
ATOM     11  C   UNL     1      33.575  -6.296 -25.063  0.00  0.00    +0.021 C 
ATOM     12  C   UNL     1      31.915  -5.341 -23.354  0.00  0.00    -0.076 C 
ATOM     13  C   UNL     1      30.987  -7.414 -22.849  0.00  0.00    -0.057 C 
ATOM     14  C   UNL     1      34.152  -7.442 -24.239  0.00  0.00    +0.091 C 
ATOM     15  C   UNL     1      30.435  -5.515 -21.440  0.00  0.00    -0.101 C 
ATOM     16  H   UNL     1      29.884  -5.726 -23.319  0.00  0.00    -0.080 HD
ENDBRANCH   1   7
BRANCH   6  17
ATOM     17  C   UNL     1      33.488 -13.702 -22.474  0.00  0.00    +0.000 C 
ATOM     18  C   UNL     1      33.055 -14.109 -21.212  0.00  0.00    +0.001 C 
ATOM     19  C   UNL     1      34.042 -14.630 -23.355  0.00  0.00    +0.001 C 
ATOM     20  C   UNL     1      33.175 -15.446 -20.832  0.00  0.00    +0.017 C 
ATOM     21  C   UNL     1      34.162 -15.967 -22.975  0.00  0.00    +0.017 C 
ATOM     22  C   UNL     1      33.729 -16.375 -21.713  0.00  0.00    +0.077 C 
BRANCH  22  24
ATOM     23  O   UNL     1      36.172 -18.068 -21.594  0.00  0.00    -0.268 OA
ATOM     24  N   UNL     1      33.853 -17.759 -21.320  0.00  0.00    -0.155 N 
ATOM     25  N   UNL     1      32.662 -18.319 -20.920  0.00  0.00    -0.170 NA
ATOM     26  C   UNL     1      35.048 -18.487 -21.319  0.00  0.00    +0.272 C 
ATOM     27  C   UNL     1      34.957 -19.916 -20.929  0.00  0.00    +0.062 C 
ATOM     28  C   UNL     1      32.655 -19.560 -20.572  0.00  0.00    +0.118 C 
ATOM     29  C   UNL     1      33.803 -20.459 -20.560  0.00  0.00    +0.027 C 
ENDBRANCH  22  24
ENDBRANCH   6  17
TORSDOF 3
ENDMDL
