MODEL 1
REMARK VINA RESULT:     -10.0      0.000      0.000
REMARK  Name = 72402
REMARK  3 active torsions:
REMARK  status: ('A' for Active; 'I' for Inactive)
REMARK    1  A    between atoms: C_6  and  O_27
REMARK    2  A    between atoms: C_6  and  C_29
REMARK    3  A    between atoms: C_20  and  N_24
REMARK                            x       y       z     vdW  Elec       q    Type
REMARK                         _______ _______ _______ _____ _____    ______ ____
ROOT
ATOM      1  O   UNL     1      35.525 -19.745 -23.437  0.00  0.00    -0.442 OA
ATOM      2  O   UNL     1      34.419 -16.422 -25.812  0.00  0.00    -0.270 OA
ATOM      3  O   UNL     1      36.068 -20.392 -21.356  0.00  0.00    -0.247 OA
ATOM      4  N   UNL     1      33.722 -15.250 -23.945  0.00  0.00    -0.249 N 
ATOM      5  N   UNL     1      32.595 -13.455 -21.037  0.00  0.00    -0.405 NA
ATOM      6  C   UNL     1      34.325 -18.731 -21.546  0.00  0.00    +0.196 C 
ATOM      7  C   UNL     1      34.143 -17.511 -22.406  0.00  0.00    +0.017 C 
ATOM      8  C   UNL     1      33.451 -15.215 -22.586  0.00  0.00    +0.084 C 
ATOM      9  C   UNL     1      34.401 -17.575 -23.725  0.00  0.00    +0.074 C 
ATOM     10  C   UNL     1      33.432 -13.946 -24.576  0.00  0.00    +0.128 C 
ATOM     11  C   UNL     1      33.636 -16.285 -21.808  0.00  0.00    +0.016 C 
ATOM     12  C   UNL     1      32.953 -13.134 -23.418  0.00  0.00    +0.029 C 
ATOM     13  C   UNL     1      32.965 -13.885 -22.251  0.00  0.00    +0.142 C 
ATOM     14  C   UNL     1      34.189 -16.371 -24.606  0.00  0.00    +0.252 C 
ATOM     15  C   UNL     1      34.885 -18.835 -24.357  0.00  0.00    +0.239 C 
ATOM     16  C   UNL     1      35.388 -19.678 -22.092  0.00  0.00    +0.346 C 
ATOM     17  C   UNL     1      32.528 -11.828 -23.353  0.00  0.00    +0.003 C 
ATOM     18  C   UNL     1      32.129 -11.322 -22.104  0.00  0.00    +0.038 C 
ATOM     19  C   UNL     1      32.179 -12.175 -20.965  0.00  0.00    +0.114 C 
ATOM     20  C   UNL     1      31.687  -9.996 -21.973  0.00  0.00    +0.043 C 
ATOM     21  C   UNL     1      31.780 -11.651 -19.741  0.00  0.00    +0.085 C 
ATOM     22  C   UNL     1      31.294  -9.503 -20.731  0.00  0.00    +0.010 C 
ATOM     23  C   UNL     1      31.341 -10.330 -19.616  0.00  0.00    -0.017 C 
ENDROOT
BRANCH  20  24
ATOM     24  N   UNL     1      31.623  -9.119 -23.083  0.00  0.00    -0.357 N 
ATOM     25  H   UNL     1      30.800  -8.608 -23.260  0.00  0.00    +0.142 HD
ATOM     26  H   UNL     1      32.402  -9.019 -23.676  0.00  0.00    +0.142 HD
ENDBRANCH  20  24
BRANCH   6  27
ATOM     27  O   UNL     1      34.815 -18.347 -20.259  0.00  0.00    -0.373 OA
ATOM     28  H   UNL     1      35.705 -17.973 -20.351  0.00  0.00    +0.211 HD
ENDBRANCH   6  27
BRANCH   6  29
ATOM     29  C   UNL     1      33.011 -19.497 -21.369  0.00  0.00    +0.042 C 
ATOM     30  C   UNL     1      33.054 -20.349 -20.127  0.00  0.00    +0.003 C 
ENDBRANCH   6  29
TORSDOF 3
ENDMDL
MODEL 2
REMARK VINA RESULT:      -9.4      7.287     10.838
REMARK  Name = 72402
REMARK  3 active torsions:
REMARK  status: ('A' for Active; 'I' for Inactive)
REMARK    1  A    between atoms: C_6  and  O_27
REMARK    2  A    between atoms: C_6  and  C_29
REMARK    3  A    between atoms: C_20  and  N_24
REMARK                            x       y       z     vdW  Elec       q    Type
REMARK                         _______ _______ _______ _____ _____    ______ ____
ROOT
ATOM      1  O   UNL     1      36.757 -25.884 -12.602  0.00  0.00    -0.442 OA
ATOM      2  O   UNL     1      33.138 -24.791 -14.504  0.00  0.00    -0.270 OA
ATOM      3  O   UNL     1      38.979 -26.052 -12.882  0.00  0.00    -0.247 OA
ATOM      4  N   UNL     1      34.277 -23.510 -16.056  0.00  0.00    -0.249 N 
ATOM      5  N   UNL     1      36.057 -21.482 -18.436  0.00  0.00    -0.405 NA
ATOM      6  C   UNL     1      37.908 -24.142 -13.899  0.00  0.00    +0.196 C 
ATOM      7  C   UNL     1      36.622 -23.953 -14.656  0.00  0.00    +0.017 C 
ATOM      8  C   UNL     1      35.460 -22.943 -16.502  0.00  0.00    +0.084 C 
ATOM      9  C   UNL     1      35.485 -24.504 -14.194  0.00  0.00    +0.074 C 
ATOM     10  C   UNL     1      33.150 -23.153 -16.943  0.00  0.00    +0.128 C 
ATOM     11  C   UNL     1      36.613 -23.127 -15.854  0.00  0.00    +0.016 C 
ATOM     12  C   UNL     1      33.817 -22.299 -17.971  0.00  0.00    +0.029 C 
ATOM     13  C   UNL     1      35.174 -22.178 -17.707  0.00  0.00    +0.142 C 
ATOM     14  C   UNL     1      34.182 -24.294 -14.921  0.00  0.00    +0.252 C 
ATOM     15  C   UNL     1      35.473 -25.320 -12.947  0.00  0.00    +0.239 C 
ATOM     16  C   UNL     1      37.934 -25.442 -13.104  0.00  0.00    +0.346 C 
ATOM     17  C   UNL     1      33.303 -21.657 -19.073  0.00  0.00    +0.003 C 
ATOM     18  C   UNL     1      34.183 -20.913 -19.876  0.00  0.00    +0.038 C 
ATOM     19  C   UNL     1      35.560 -20.851 -19.519  0.00  0.00    +0.114 C 
ATOM     20  C   UNL     1      33.720 -20.236 -21.016  0.00  0.00    +0.043 C 
ATOM     21  C   UNL     1      36.411 -20.108 -20.330  0.00  0.00    +0.085 C 
ATOM     22  C   UNL     1      34.600 -19.501 -21.806  0.00  0.00    +0.010 C 
ATOM     23  C   UNL     1      35.944 -19.437 -21.463  0.00  0.00    -0.017 C 
ENDROOT
BRANCH  20  24
ATOM     24  N   UNL     1      32.358 -20.274 -21.402  0.00  0.00    -0.357 N 
ATOM     25  H   UNL     1      31.651 -20.200 -20.721  0.00  0.00    +0.142 HD
ATOM     26  H   UNL     1      32.118 -20.374 -22.351  0.00  0.00    +0.142 HD
ENDBRANCH  20  24
BRANCH   6  27
ATOM     27  O   UNL     1      38.997 -24.262 -14.818  0.00  0.00    -0.373 OA
ATOM     28  H   UNL     1      39.812 -23.949 -14.396  0.00  0.00    +0.211 HD
ENDBRANCH   6  27
BRANCH   6  29
ATOM     29  C   UNL     1      38.184 -22.969 -12.954  0.00  0.00    +0.042 C 
ATOM     30  C   UNL     1      37.471 -23.164 -11.641  0.00  0.00    +0.003 C 
ENDBRANCH   6  29
TORSDOF 3
ENDMDL
MODEL 3
REMARK VINA RESULT:      -9.1      5.517     10.044
REMARK  Name = 72402
REMARK  3 active torsions:
REMARK  status: ('A' for Active; 'I' for Inactive)
REMARK    1  A    between atoms: C_6  and  O_27
REMARK    2  A    between atoms: C_6  and  C_29
REMARK    3  A    between atoms: C_20  and  N_24
REMARK                            x       y       z     vdW  Elec       q    Type
REMARK                         _______ _______ _______ _____ _____    ______ ____
ROOT
ATOM      1  O   UNL     1      36.113 -19.532 -22.181  0.00  0.00    -0.442 OA
ATOM      2  O   UNL     1      37.103 -21.685 -18.674  0.00  0.00    -0.270 OA
ATOM      3  O   UNL     1      34.497 -19.173 -23.697  0.00  0.00    -0.247 OA
ATOM      4  N   UNL     1      34.868 -22.025 -18.187  0.00  0.00    -0.249 N 
ATOM      5  N   UNL     1      31.388 -22.507 -17.413  0.00  0.00    -0.405 NA
ATOM      6  C   UNL     1      33.781 -19.440 -21.407  0.00  0.00    +0.196 C 
ATOM      7  C   UNL     1      34.187 -20.366 -20.293  0.00  0.00    +0.017 C 
ATOM      8  C   UNL     1      33.533 -21.772 -18.456  0.00  0.00    +0.084 C 
ATOM      9  C   UNL     1      35.491 -20.585 -20.044  0.00  0.00    +0.074 C 
ATOM     10  C   UNL     1      35.013 -22.933 -17.029  0.00  0.00    +0.128 C 
ATOM     11  C   UNL     1      33.161 -20.973 -19.460  0.00  0.00    +0.016 C 
ATOM     12  C   UNL     1      33.591 -23.182 -16.645  0.00  0.00    +0.029 C 
ATOM     13  C   UNL     1      32.725 -22.497 -17.486  0.00  0.00    +0.142 C 
ATOM     14  C   UNL     1      35.914 -21.482 -18.910  0.00  0.00    +0.252 C 
ATOM     15  C   UNL     1      36.553 -19.939 -20.867  0.00  0.00    +0.239 C 
ATOM     16  C   UNL     1      34.813 -19.385 -22.528  0.00  0.00    +0.346 C 
ATOM     17  C   UNL     1      33.056 -23.948 -15.637  0.00  0.00    +0.003 C 
ATOM     18  C   UNL     1      31.658 -23.998 -15.513  0.00  0.00    +0.038 C 
ATOM     19  C   UNL     1      30.856 -23.258 -16.427  0.00  0.00    +0.114 C 
ATOM     20  C   UNL     1      31.051 -24.765 -14.505  0.00  0.00    +0.043 C 
ATOM     21  C   UNL     1      29.475 -23.324 -16.285  0.00  0.00    +0.085 C 
ATOM     22  C   UNL     1      29.664 -24.808 -14.390  0.00  0.00    +0.010 C 
ATOM     23  C   UNL     1      28.876 -24.088 -15.280  0.00  0.00    -0.017 C 
ENDROOT
BRANCH  20  24
ATOM     24  N   UNL     1      31.815 -25.513 -13.577  0.00  0.00    -0.357 N 
ATOM     25  H   UNL     1      32.778 -25.653 -13.732  0.00  0.00    +0.142 HD
ATOM     26  H   UNL     1      31.385 -25.893 -12.778  0.00  0.00    +0.142 HD
ENDBRANCH  20  24
BRANCH   6  27
ATOM     27  O   UNL     1      32.595 -19.931 -22.035  0.00  0.00    -0.373 OA
ATOM     28  H   UNL     1      31.824 -19.460 -21.681  0.00  0.00    +0.211 HD
ENDBRANCH   6  27
BRANCH   6  29
ATOM     29  C   UNL     1      33.521 -18.021 -20.893  0.00  0.00    +0.042 C 
ATOM     30  C   UNL     1      34.665 -17.107 -21.248  0.00  0.00    +0.003 C 
ENDBRANCH   6  29
TORSDOF 3
ENDMDL
MODEL 4
REMARK VINA RESULT:      -8.4      3.881      8.634
REMARK  Name = 72402
REMARK  3 active torsions:
REMARK  status: ('A' for Active; 'I' for Inactive)
REMARK    1  A    between atoms: C_6  and  O_27
REMARK    2  A    between atoms: C_6  and  C_29
REMARK    3  A    between atoms: C_20  and  N_24
REMARK                            x       y       z     vdW  Elec       q    Type
REMARK                         _______ _______ _______ _____ _____    ______ ____
ROOT
ATOM      1  O   UNL     1      31.811  -7.708 -20.637  0.00  0.00    -0.442 OA
ATOM      2  O   UNL     1      31.558 -11.522 -18.821  0.00  0.00    -0.270 OA
ATOM      3  O   UNL     1      32.805  -6.538 -22.276  0.00  0.00    -0.247 OA
ATOM      4  N   UNL     1      32.395 -12.542 -20.719  0.00  0.00    -0.249 N 
ATOM      5  N   UNL     1      33.654 -14.123 -23.697  0.00  0.00    -0.405 NA
ATOM      6  C   UNL     1      32.199  -8.817 -22.797  0.00  0.00    +0.196 C 
ATOM      7  C   UNL     1      32.282 -10.113 -22.038  0.00  0.00    +0.017 C 
ATOM      8  C   UNL     1      32.788 -12.463 -22.045  0.00  0.00    +0.084 C 
ATOM      9  C   UNL     1      31.881 -10.166 -20.755  0.00  0.00    +0.074 C 
ATOM     10  C   UNL     1      32.535 -13.921 -20.207  0.00  0.00    +0.128 C 
ATOM     11  C   UNL     1      32.745 -11.311 -22.721  0.00  0.00    +0.016 C 
ATOM     12  C   UNL     1      33.059 -14.650 -21.400  0.00  0.00    +0.029 C 
ATOM     13  C   UNL     1      33.206 -13.788 -22.479  0.00  0.00    +0.142 C 
ATOM     14  C   UNL     1      31.924 -11.465 -19.992  0.00  0.00    +0.252 C 
ATOM     15  C   UNL     1      31.369  -8.954 -20.055  0.00  0.00    +0.239 C 
ATOM     16  C   UNL     1      32.316  -7.598 -21.888  0.00  0.00    +0.346 C 
ATOM     17  C   UNL     1      33.395 -15.972 -21.568  0.00  0.00    +0.003 C 
ATOM     18  C   UNL     1      33.873 -16.381 -22.824  0.00  0.00    +0.038 C 
ATOM     19  C   UNL     1      33.987 -15.419 -23.867  0.00  0.00    +0.114 C 
ATOM     20  C   UNL     1      34.234 -17.718 -23.057  0.00  0.00    +0.043 C 
ATOM     21  C   UNL     1      34.462 -15.848 -25.101  0.00  0.00    +0.085 C 
ATOM     22  C   UNL     1      34.707 -18.114 -24.305  0.00  0.00    +0.010 C 
ATOM     23  C   UNL     1      34.820 -17.179 -25.327  0.00  0.00    -0.017 C 
ENDROOT
BRANCH  20  24
ATOM     24  N   UNL     1      34.134 -18.703 -22.044  0.00  0.00    -0.357 N 
ATOM     25  H   UNL     1      34.438 -19.623 -22.222  0.00  0.00    +0.142 HD
ATOM     26  H   UNL     1      33.763 -18.468 -21.164  0.00  0.00    +0.142 HD
ENDBRANCH  20  24
BRANCH   6  27
ATOM     27  O   UNL     1      33.311  -8.706 -23.689  0.00  0.00    -0.373 OA
ATOM     28  H   UNL     1      33.910  -9.457 -23.551  0.00  0.00    +0.211 HD
ENDBRANCH   6  27
BRANCH   6  29
ATOM     29  C   UNL     1      30.902  -8.719 -23.605  0.00  0.00    +0.042 C 
ATOM     30  C   UNL     1      30.855  -7.429 -24.383  0.00  0.00    +0.003 C 
ENDBRANCH   6  29
TORSDOF 3
ENDMDL
MODEL 5
REMARK VINA RESULT:      -8.4      7.039     11.675
REMARK  Name = 72402
REMARK  3 active torsions:
REMARK  status: ('A' for Active; 'I' for Inactive)
REMARK    1  A    between atoms: C_6  and  O_27
REMARK    2  A    between atoms: C_6  and  C_29
REMARK    3  A    between atoms: C_20  and  N_24
REMARK                            x       y       z     vdW  Elec       q    Type
REMARK                         _______ _______ _______ _____ _____    ______ ____
ROOT
ATOM      1  O   UNL     1      32.590  -1.786 -25.784  0.00  0.00    -0.442 OA
ATOM      2  O   UNL     1      30.535  -3.858 -22.720  0.00  0.00    -0.270 OA
ATOM      3  O   UNL     1      34.366  -1.864 -27.156  0.00  0.00    -0.247 OA
ATOM      4  N   UNL     1      31.516  -5.858 -23.339  0.00  0.00    -0.249 N 
ATOM      5  N   UNL     1      33.013  -8.972 -24.342  0.00  0.00    -0.405 NA
ATOM      6  C   UNL     1      33.220  -3.952 -26.760  0.00  0.00    +0.196 C 
ATOM      7  C   UNL     1      32.630  -4.596 -25.535  0.00  0.00    +0.017 C 
ATOM      8  C   UNL     1      32.296  -6.584 -24.224  0.00  0.00    +0.084 C 
ATOM      9  C   UNL     1      31.865  -3.872 -24.699  0.00  0.00    +0.074 C 
ATOM     10  C   UNL     1      31.023  -6.715 -22.241  0.00  0.00    +0.128 C 
ATOM     11  C   UNL     1      32.849  -6.015 -25.299  0.00  0.00    +0.016 C 
ATOM     12  C   UNL     1      31.609  -8.044 -22.590  0.00  0.00    +0.029 C 
ATOM     13  C   UNL     1      32.356  -7.961 -23.758  0.00  0.00    +0.142 C 
ATOM     14  C   UNL     1      31.237  -4.512 -23.487  0.00  0.00    +0.252 C 
ATOM     15  C   UNL     1      31.602  -2.427 -24.949  0.00  0.00    +0.239 C 
ATOM     16  C   UNL     1      33.457  -2.457 -26.577  0.00  0.00    +0.346 C 
ATOM     17  C   UNL     1      31.517  -9.260 -21.956  0.00  0.00    +0.003 C 
ATOM     18  C   UNL     1      32.187 -10.356 -22.523  0.00  0.00    +0.038 C 
ATOM     19  C   UNL     1      32.928 -10.168 -23.724  0.00  0.00    +0.114 C 
ATOM     20  C   UNL     1      32.133 -11.624 -21.921  0.00  0.00    +0.043 C 
ATOM     21  C   UNL     1      33.583 -11.268 -24.266  0.00  0.00    +0.085 C 
ATOM     22  C   UNL     1      32.800 -12.705 -22.490  0.00  0.00    +0.010 C 
ATOM     23  C   UNL     1      33.525 -12.527 -23.663  0.00  0.00    -0.017 C 
ENDROOT
BRANCH  20  24
ATOM     24  N   UNL     1      31.406 -11.850 -20.727  0.00  0.00    -0.357 N 
ATOM     25  H   UNL     1      30.541 -11.401 -20.585  0.00  0.00    +0.142 HD
ATOM     26  H   UNL     1      31.765 -12.456 -20.040  0.00  0.00    +0.142 HD
ENDBRANCH  20  24
BRANCH   6  27
ATOM     27  O   UNL     1      34.520  -4.492 -27.011  0.00  0.00    -0.373 OA
ATOM     28  H   UNL     1      34.533  -4.904 -27.890  0.00  0.00    +0.211 HD
ENDBRANCH   6  27
BRANCH   6  29
ATOM     29  C   UNL     1      32.342  -4.176 -27.993  0.00  0.00    +0.042 C 
ATOM     30  C   UNL     1      33.190  -4.401 -29.218  0.00  0.00    +0.003 C 
ENDBRANCH   6  29
TORSDOF 3
ENDMDL
MODEL 6
REMARK VINA RESULT:      -8.3      2.273      3.239
REMARK  Name = 72402
REMARK  3 active torsions:
REMARK  status: ('A' for Active; 'I' for Inactive)
REMARK    1  A    between atoms: C_6  and  O_27
REMARK    2  A    between atoms: C_6  and  C_29
REMARK    3  A    between atoms: C_20  and  N_24
REMARK                            x       y       z     vdW  Elec       q    Type
REMARK                         _______ _______ _______ _____ _____    ______ ____
ROOT
ATOM      1  O   UNL     1      34.858 -16.984 -23.687  0.00  0.00    -0.442 OA
ATOM      2  O   UNL     1      33.578 -13.914 -26.304  0.00  0.00    -0.270 OA
ATOM      3  O   UNL     1      35.716 -17.398 -21.654  0.00  0.00    -0.247 OA
ATOM      4  N   UNL     1      33.304 -12.448 -24.538  0.00  0.00    -0.249 N 
ATOM      5  N   UNL     1      32.837 -10.189 -21.776  0.00  0.00    -0.405 NA
ATOM      6  C   UNL     1      34.085 -15.623 -21.791  0.00  0.00    +0.196 C 
ATOM      7  C   UNL     1      33.837 -14.515 -22.778  0.00  0.00    +0.017 C 
ATOM      8  C   UNL     1      33.282 -12.209 -23.173  0.00  0.00    +0.084 C 
ATOM      9  C   UNL     1      33.851 -14.776 -24.098  0.00  0.00    +0.074 C 
ATOM     10  C   UNL     1      32.997 -11.217 -25.296  0.00  0.00    +0.128 C 
ATOM     11  C   UNL     1      33.529 -13.180 -22.289  0.00  0.00    +0.016 C 
ATOM     12  C   UNL     1      32.787 -10.219 -24.205  0.00  0.00    +0.029 C 
ATOM     13  C   UNL     1      32.955 -10.807 -22.959  0.00  0.00    +0.142 C 
ATOM     14  C   UNL     1      33.569 -13.684 -25.097  0.00  0.00    +0.252 C 
ATOM     15  C   UNL     1      34.129 -16.147 -24.610  0.00  0.00    +0.239 C 
ATOM     16  C   UNL     1      34.967 -16.728 -22.362  0.00  0.00    +0.346 C 
ATOM     17  C   UNL     1      32.471  -8.882 -24.261  0.00  0.00    +0.003 C 
ATOM     18  C   UNL     1      32.336  -8.181 -23.051  0.00  0.00    +0.038 C 
ATOM     19  C   UNL     1      32.528  -8.877 -21.824  0.00  0.00    +0.114 C 
ATOM     20  C   UNL     1      32.015  -6.814 -23.043  0.00  0.00    +0.043 C 
ATOM     21  C   UNL     1      32.390  -8.162 -20.640  0.00  0.00    +0.085 C 
ATOM     22  C   UNL     1      31.884  -6.128 -21.838  0.00  0.00    +0.010 C 
ATOM     23  C   UNL     1      32.071  -6.801 -20.638  0.00  0.00    -0.017 C 
ENDROOT
BRANCH  20  24
ATOM     24  N   UNL     1      31.816  -6.089 -24.243  0.00  0.00    -0.357 N 
ATOM     25  H   UNL     1      30.990  -6.217 -24.764  0.00  0.00    +0.142 HD
ATOM     26  H   UNL     1      32.502  -5.456 -24.555  0.00  0.00    +0.142 HD
ENDBRANCH  20  24
BRANCH   6  27
ATOM     27  O   UNL     1      34.821 -15.120 -20.674  0.00  0.00    -0.373 OA
ATOM     28  H   UNL     1      34.224 -14.624 -20.091  0.00  0.00    +0.211 HD
ENDBRANCH   6  27
BRANCH   6  29
ATOM     29  C   UNL     1      32.774 -16.234 -21.289  0.00  0.00    +0.042 C 
ATOM     30  C   UNL     1      32.210 -15.424 -20.150  0.00  0.00    +0.003 C 
ENDBRANCH   6  29
TORSDOF 3
ENDMDL
MODEL 7
REMARK VINA RESULT:      -8.1      3.554      8.021
REMARK  Name = 72402
REMARK  3 active torsions:
REMARK  status: ('A' for Active; 'I' for Inactive)
REMARK    1  A    between atoms: C_6  and  O_27
REMARK    2  A    between atoms: C_6  and  C_29
REMARK    3  A    between atoms: C_20  and  N_24
REMARK                            x       y       z     vdW  Elec       q    Type
REMARK                         _______ _______ _______ _____ _____    ______ ____
ROOT
ATOM      1  O   UNL     1      32.699  -8.769 -22.867  0.00  0.00    -0.442 OA
ATOM      2  O   UNL     1      30.813 -11.892 -20.722  0.00  0.00    -0.270 OA
ATOM      3  O   UNL     1      34.612  -8.146 -23.864  0.00  0.00    -0.247 OA
ATOM      4  N   UNL     1      32.333 -13.436 -21.527  0.00  0.00    -0.249 N 
ATOM      5  N   UNL     1      34.676 -15.840 -22.825  0.00  0.00    -0.405 NA
ATOM      6  C   UNL     1      33.973 -10.461 -24.115  0.00  0.00    +0.196 C 
ATOM      7  C   UNL     1      33.395 -11.486 -23.177  0.00  0.00    +0.017 C 
ATOM      8  C   UNL     1      33.383 -13.752 -22.374  0.00  0.00    +0.084 C 
ATOM      9  C   UNL     1      32.367 -11.158 -22.375  0.00  0.00    +0.074 C 
ATOM     10  C   UNL     1      31.919 -14.613 -20.735  0.00  0.00    +0.128 C 
ATOM     11  C   UNL     1      33.922 -12.842 -23.190  0.00  0.00    +0.016 C 
ATOM     12  C   UNL     1      32.857 -15.668 -21.223  0.00  0.00    +0.029 C 
ATOM     13  C   UNL     1      33.715 -15.157 -22.187  0.00  0.00    +0.142 C 
ATOM     14  C   UNL     1      31.754 -12.183 -21.456  0.00  0.00    +0.252 C 
ATOM     15  C   UNL     1      31.794  -9.782 -22.379  0.00  0.00    +0.239 C 
ATOM     16  C   UNL     1      33.806  -9.037 -23.598  0.00  0.00    +0.346 C 
ATOM     17  C   UNL     1      32.980 -16.991 -20.872  0.00  0.00    +0.003 C 
ATOM     18  C   UNL     1      33.972 -17.757 -21.507  0.00  0.00    +0.038 C 
ATOM     19  C   UNL     1      34.803 -17.138 -22.484  0.00  0.00    +0.114 C 
ATOM     20  C   UNL     1      34.148 -19.114 -21.190  0.00  0.00    +0.043 C 
ATOM     21  C   UNL     1      35.777 -17.917 -23.099  0.00  0.00    +0.085 C 
ATOM     22  C   UNL     1      35.134 -19.864 -21.825  0.00  0.00    +0.010 C 
ATOM     23  C   UNL     1      35.948 -19.266 -22.779  0.00  0.00    -0.017 C 
ENDROOT
BRANCH  20  24
ATOM     24  N   UNL     1      33.341 -19.763 -20.225  0.00  0.00    -0.357 N 
ATOM     25  H   UNL     1      33.685 -20.552 -19.746  0.00  0.00    +0.142 HD
ATOM     26  H   UNL     1      32.437 -19.426 -20.031  0.00  0.00    +0.142 HD
ENDBRANCH  20  24
BRANCH   6  27
ATOM     27  O   UNL     1      35.388 -10.642 -24.217  0.00  0.00    -0.373 OA
ATOM     28  H   UNL     1      35.577 -11.361 -24.840  0.00  0.00    +0.211 HD
ENDBRANCH   6  27
BRANCH   6  29
ATOM     29  C   UNL     1      33.357 -10.565 -25.512  0.00  0.00    +0.042 C 
ATOM     30  C   UNL     1      33.960 -11.714 -26.277  0.00  0.00    +0.003 C 
ENDBRANCH   6  29
TORSDOF 3
ENDMDL
MODEL 8
REMARK VINA RESULT:      -7.5      1.990      3.375
REMARK  Name = 72402
REMARK  3 active torsions:
REMARK  status: ('A' for Active; 'I' for Inactive)
REMARK    1  A    between atoms: C_6  and  O_27
REMARK    2  A    between atoms: C_6  and  C_29
REMARK    3  A    between atoms: C_20  and  N_24
REMARK                            x       y       z     vdW  Elec       q    Type
REMARK                         _______ _______ _______ _____ _____    ______ ____
ROOT
ATOM      1  O   UNL     1      33.765 -19.288 -22.115  0.00  0.00    -0.442 OA
ATOM      2  O   UNL     1      31.600 -16.138 -20.298  0.00  0.00    -0.270 OA
ATOM      3  O   UNL     1      34.913 -19.882 -23.951  0.00  0.00    -0.247 OA
ATOM      4  N   UNL     1      32.623 -14.576 -21.661  0.00  0.00    -0.249 N 
ATOM      5  N   UNL     1      34.257 -12.148 -23.754  0.00  0.00    -0.405 NA
ATOM      6  C   UNL     1      35.211 -17.612 -23.183  0.00  0.00    +0.196 C 
ATOM      7  C   UNL     1      34.273 -16.564 -22.651  0.00  0.00    +0.017 C 
ATOM      8  C   UNL     1      33.582 -14.262 -22.609  0.00  0.00    +0.084 C 
ATOM      9  C   UNL     1      33.359 -16.893 -21.720  0.00  0.00    +0.074 C 
ATOM     10  C   UNL     1      31.852 -13.377 -21.270  0.00  0.00    +0.128 C 
ATOM     11  C   UNL     1      34.402 -15.190 -23.110  0.00  0.00    +0.016 C 
ATOM     12  C   UNL     1      32.479 -12.312 -22.107  0.00  0.00    +0.029 C 
ATOM     13  C   UNL     1      33.497 -12.837 -22.892  0.00  0.00    +0.142 C 
ATOM     14  C   UNL     1      32.435 -15.847 -21.150  0.00  0.00    +0.252 C 
ATOM     15  C   UNL     1      33.241 -18.289 -21.213  0.00  0.00    +0.239 C 
ATOM     16  C   UNL     1      34.613 -19.013 -23.133  0.00  0.00    +0.346 C 
ATOM     17  C   UNL     1      32.205 -10.968 -22.201  0.00  0.00    +0.003 C 
ATOM     18  C   UNL     1      32.971 -10.196 -23.091  0.00  0.00    +0.038 C 
ATOM     19  C   UNL     1      33.993 -10.830 -23.853  0.00  0.00    +0.114 C 
ATOM     20  C   UNL     1      32.738  -8.818 -23.233  0.00  0.00    +0.043 C 
ATOM     21  C   UNL     1      34.736 -10.045 -24.726  0.00  0.00    +0.085 C 
ATOM     22  C   UNL     1      33.502  -8.061 -24.118  0.00  0.00    +0.010 C 
ATOM     23  C   UNL     1      34.500  -8.675 -24.864  0.00  0.00    -0.017 C 
ENDROOT
BRANCH  20  24
ATOM     24  N   UNL     1      31.731  -8.153 -22.492  0.00  0.00    -0.357 N 
ATOM     25  H   UNL     1      30.957  -7.760 -22.957  0.00  0.00    +0.142 HD
ATOM     26  H   UNL     1      31.804  -8.085 -21.513  0.00  0.00    +0.142 HD
ENDBRANCH  20  24
BRANCH   6  27
ATOM     27  O   UNL     1      35.459 -17.378 -24.572  0.00  0.00    -0.373 OA
ATOM     28  H   UNL     1      34.945 -16.610 -24.866  0.00  0.00    +0.211 HD
ENDBRANCH   6  27
BRANCH   6  29
ATOM     29  C   UNL     1      36.545 -17.608 -22.433  0.00  0.00    +0.042 C 
ATOM     30  C   UNL     1      36.611 -18.753 -21.456  0.00  0.00    +0.003 C 
ENDBRANCH   6  29
TORSDOF 3
ENDMDL
MODEL 9
REMARK VINA RESULT:      -7.2      4.952      8.318
REMARK  Name = 72402
REMARK  3 active torsions:
REMARK  status: ('A' for Active; 'I' for Inactive)
REMARK    1  A    between atoms: C_6  and  O_27
REMARK    2  A    between atoms: C_6  and  C_29
REMARK    3  A    between atoms: C_20  and  N_24
REMARK                            x       y       z     vdW  Elec       q    Type
REMARK                         _______ _______ _______ _____ _____    ______ ____
ROOT
ATOM      1  O   UNL     1      32.736 -12.901 -22.686  0.00  0.00    -0.442 OA
ATOM      2  O   UNL     1      31.566  -9.697 -20.182  0.00  0.00    -0.270 OA
ATOM      3  O   UNL     1      32.896 -13.574 -24.822  0.00  0.00    -0.247 OA
ATOM      4  N   UNL     1      31.750  -8.193 -21.928  0.00  0.00    -0.249 N 
ATOM      5  N   UNL     1      32.087  -5.854 -24.642  0.00  0.00    -0.405 NA
ATOM      6  C   UNL     1      33.427 -11.260 -24.381  0.00  0.00    +0.196 C 
ATOM      7  C   UNL     1      32.812 -10.202 -23.506  0.00  0.00    +0.017 C 
ATOM      8  C   UNL     1      32.128  -7.914 -23.231  0.00  0.00    +0.084 C 
ATOM      9  C   UNL     1      32.466 -10.496 -22.240  0.00  0.00    +0.074 C 
ATOM     10  C   UNL     1      31.208  -6.989 -21.264  0.00  0.00    +0.128 C 
ATOM     11  C   UNL     1      32.650  -8.853 -24.026  0.00  0.00    +0.016 C 
ATOM     12  C   UNL     1      31.316  -5.960 -22.340  0.00  0.00    +0.029 C 
ATOM     13  C   UNL     1      31.859  -6.508 -23.495  0.00  0.00    +0.142 C 
ATOM     14  C   UNL     1      31.882  -9.437 -21.340  0.00  0.00    +0.252 C 
ATOM     15  C   UNL     1      32.663 -11.864 -21.684  0.00  0.00    +0.239 C 
ATOM     16  C   UNL     1      32.984 -12.667 -23.996  0.00  0.00    +0.346 C 
ATOM     17  C   UNL     1      30.974  -4.628 -22.345  0.00  0.00    +0.003 C 
ATOM     18  C   UNL     1      31.191  -3.892 -23.522  0.00  0.00    +0.038 C 
ATOM     19  C   UNL     1      31.753  -4.548 -24.654  0.00  0.00    +0.114 C 
ATOM     20  C   UNL     1      30.861  -2.529 -23.590  0.00  0.00    +0.043 C 
ATOM     21  C   UNL     1      31.957  -3.799 -25.807  0.00  0.00    +0.085 C 
ATOM     22  C   UNL     1      31.078  -1.808 -24.761  0.00  0.00    +0.010 C 
ATOM     23  C   UNL     1      31.626  -2.443 -25.869  0.00  0.00    -0.017 C 
ENDROOT
BRANCH  20  24
ATOM     24  N   UNL     1      30.300  -1.843 -22.485  0.00  0.00    -0.357 N 
ATOM     25  H   UNL     1      30.862  -1.241 -21.944  0.00  0.00    +0.142 HD
ATOM     26  H   UNL     1      29.350  -1.966 -22.260  0.00  0.00    +0.142 HD
ENDBRANCH  20  24
BRANCH   6  27
ATOM     27  O   UNL     1      32.975 -11.098 -25.727  0.00  0.00    -0.373 OA
ATOM     28  H   UNL     1      32.009 -11.006 -25.734  0.00  0.00    +0.211 HD
ENDBRANCH   6  27
BRANCH   6  29
ATOM     29  C   UNL     1      34.957 -11.190 -24.359  0.00  0.00    +0.042 C 
ATOM     30  C   UNL     1      35.470 -10.384 -25.523  0.00  0.00    +0.003 C 
ENDBRANCH   6  29
TORSDOF 3
ENDMDL
