MODEL 1
REMARK VINA RESULT:      -7.7      0.000      0.000
REMARK  Name = 176265
REMARK  2 active torsions:
REMARK  status: ('A' for Active; 'I' for Inactive)
REMARK    1  A    between atoms: C_1  and  N_8
REMARK    2  A    between atoms: C_1  and  C_16
REMARK                            x       y       z     vdW  Elec       q    Type
REMARK                         _______ _______ _______ _____ _____    ______ ____
ROOT
ATOM      1  C   UNL     1      32.606  -9.150 -22.707  0.00  0.00    -0.017 C 
ATOM      2  C   UNL     1      33.518  -7.956 -22.228  0.00  0.00    -0.013 C 
ATOM      3  C   UNL     1      31.669  -8.633 -23.838  0.00  0.00    -0.014 C 
ATOM      4  C   UNL     1      32.660  -6.746 -21.808  0.00  0.00    -0.002 C 
ATOM      5  C   UNL     1      30.861  -7.386 -23.458  0.00  0.00    -0.002 C 
ATOM      6  C   UNL     1      31.737  -6.262 -22.921  0.00  0.00    -0.000 C 
ATOM      7  C   UNL     1      34.573  -7.517 -23.264  0.00  0.00    -0.002 C 
ENDROOT
BRANCH   1   8
ATOM      8  N   UNL     1      33.433 -10.193 -23.314  0.00  0.00    +0.392 N 
ATOM      9  C   UNL     1      32.823 -11.515 -23.115  0.00  0.00    -0.077 C 
ATOM     10  C   UNL     1      33.645  -9.915 -24.742  0.00  0.00    -0.077 C 
ATOM     11  C   UNL     1      33.700 -12.622 -23.701  0.00  0.00    -0.023 C 
ATOM     12  C   UNL     1      34.550 -10.970 -25.381  0.00  0.00    -0.023 C 
ATOM     13  C   UNL     1      33.993 -12.375 -25.176  0.00  0.00    -0.004 C 
ATOM     14  H   UNL     1      34.346 -10.196 -22.856  0.00  0.00    -0.079 HD
ENDBRANCH   1   8
BRANCH   1  16
ATOM     15  S   UNL     1      32.251  -9.337 -19.916  0.00  0.00    -0.093 S 
ATOM     16  C   UNL     1      31.852  -9.808 -21.506  0.00  0.00    -0.011 C 
ATOM     17  C   UNL     1      30.866 -10.759 -21.547  0.00  0.00    +0.001 C 
ATOM     18  C   UNL     1      30.423 -11.113 -20.239  0.00  0.00    +0.007 C 
ATOM     19  C   UNL     1      31.093 -10.413 -19.260  0.00  0.00    +0.035 C 
ENDBRANCH   1  16
TORSDOF 2
ENDMDL
MODEL 2
REMARK VINA RESULT:      -7.1     15.763     18.041
REMARK  Name = 176265
REMARK  2 active torsions:
REMARK  status: ('A' for Active; 'I' for Inactive)
REMARK    1  A    between atoms: C_1  and  N_8
REMARK    2  A    between atoms: C_1  and  C_16
REMARK                            x       y       z     vdW  Elec       q    Type
REMARK                         _______ _______ _______ _____ _____    ______ ____
ROOT
ATOM      1  C   UNL     1      36.402 -24.825 -14.280  0.00  0.00    -0.017 C 
ATOM      2  C   UNL     1      36.818 -26.342 -14.385  0.00  0.00    -0.013 C 
ATOM      3  C   UNL     1      37.359 -23.987 -15.179  0.00  0.00    -0.014 C 
ATOM      4  C   UNL     1      38.307 -26.527 -14.034  0.00  0.00    -0.002 C 
ATOM      5  C   UNL     1      38.847 -24.214 -14.887  0.00  0.00    -0.002 C 
ATOM      6  C   UNL     1      39.230 -25.688 -14.912  0.00  0.00    -0.000 C 
ATOM      7  C   UNL     1      36.519 -26.982 -15.756  0.00  0.00    -0.002 C 
ENDROOT
BRANCH   1   8
ATOM      8  N   UNL     1      35.061 -24.639 -14.835  0.00  0.00    +0.392 N 
ATOM      9  C   UNL     1      34.087 -24.403 -13.760  0.00  0.00    -0.077 C 
ATOM     10  C   UNL     1      35.056 -23.536 -15.808  0.00  0.00    -0.077 C 
ATOM     11  C   UNL     1      32.672 -24.256 -14.321  0.00  0.00    -0.023 C 
ATOM     12  C   UNL     1      33.672 -23.361 -16.436  0.00  0.00    -0.023 C 
ATOM     13  C   UNL     1      32.603 -23.151 -15.369  0.00  0.00    -0.004 C 
ATOM     14  H   UNL     1      34.788 -25.491 -15.325  0.00  0.00    -0.079 HD
ENDBRANCH   1   8
BRANCH   1  16
ATOM     15  S   UNL     1      37.127 -22.897 -12.354  0.00  0.00    -0.093 S 
ATOM     16  C   UNL     1      36.348 -24.350 -12.791  0.00  0.00    -0.011 C 
ATOM     17  C   UNL     1      35.733 -24.964 -11.731  0.00  0.00    +0.001 C 
ATOM     18  C   UNL     1      35.905 -24.224 -10.525  0.00  0.00    +0.007 C 
ATOM     19  C   UNL     1      36.642 -23.078 -10.722  0.00  0.00    +0.035 C 
ENDBRANCH   1  16
TORSDOF 2
ENDMDL
MODEL 3
REMARK VINA RESULT:      -6.9     14.330     16.870
REMARK  Name = 176265
REMARK  2 active torsions:
REMARK  status: ('A' for Active; 'I' for Inactive)
REMARK    1  A    between atoms: C_1  and  N_8
REMARK    2  A    between atoms: C_1  and  C_16
REMARK                            x       y       z     vdW  Elec       q    Type
REMARK                         _______ _______ _______ _____ _____    ______ ____
ROOT
ATOM      1  C   UNL     1      34.963 -23.951 -15.045  0.00  0.00    -0.017 C 
ATOM      2  C   UNL     1      35.577 -23.285 -13.755  0.00  0.00    -0.013 C 
ATOM      3  C   UNL     1      35.436 -25.433 -15.108  0.00  0.00    -0.014 C 
ATOM      4  C   UNL     1      37.111 -23.440 -13.735  0.00  0.00    -0.002 C 
ATOM      5  C   UNL     1      36.957 -25.608 -15.018  0.00  0.00    -0.002 C 
ATOM      6  C   UNL     1      37.557 -24.896 -13.813  0.00  0.00    -0.000 C 
ATOM      7  C   UNL     1      34.980 -23.808 -12.433  0.00  0.00    -0.002 C 
ENDROOT
BRANCH   1   8
ATOM      8  N   UNL     1      33.505 -23.997 -14.933  0.00  0.00    +0.392 N 
ATOM      9  C   UNL     1      33.096 -25.032 -13.973  0.00  0.00    -0.077 C 
ATOM     10  C   UNL     1      32.976 -22.680 -14.551  0.00  0.00    -0.077 C 
ATOM     11  C   UNL     1      31.572 -25.128 -13.881  0.00  0.00    -0.023 C 
ATOM     12  C   UNL     1      31.449 -22.698 -14.477  0.00  0.00    -0.023 C 
ATOM     13  C   UNL     1      30.953 -23.781 -13.525  0.00  0.00    -0.004 C 
ATOM     14  H   UNL     1      33.114 -24.241 -15.844  0.00  0.00    -0.079 HD
ENDBRANCH   1   8
BRANCH   1  16
ATOM     15  S   UNL     1      34.164 -23.077 -17.604  0.00  0.00    -0.093 S 
ATOM     16  C   UNL     1      35.295 -23.121 -16.328  0.00  0.00    -0.011 C 
ATOM     17  C   UNL     1      36.422 -22.386 -16.590  0.00  0.00    +0.001 C 
ATOM     18  C   UNL     1      36.359 -21.769 -17.873  0.00  0.00    +0.007 C 
ATOM     19  C   UNL     1      35.184 -22.061 -18.530  0.00  0.00    +0.035 C 
ENDBRANCH   1  16
TORSDOF 2
ENDMDL
MODEL 4
REMARK VINA RESULT:      -6.8     14.313     16.863
REMARK  Name = 176265
REMARK  2 active torsions:
REMARK  status: ('A' for Active; 'I' for Inactive)
REMARK    1  A    between atoms: C_1  and  N_8
REMARK    2  A    between atoms: C_1  and  C_16
REMARK                            x       y       z     vdW  Elec       q    Type
REMARK                         _______ _______ _______ _____ _____    ______ ____
ROOT
ATOM      1  C   UNL     1      34.765 -23.953 -14.827  0.00  0.00    -0.017 C 
ATOM      2  C   UNL     1      35.850 -23.258 -13.918  0.00  0.00    -0.013 C 
ATOM      3  C   UNL     1      35.019 -25.489 -14.810  0.00  0.00    -0.014 C 
ATOM      4  C   UNL     1      37.272 -23.650 -14.365  0.00  0.00    -0.002 C 
ATOM      5  C   UNL     1      36.450 -25.890 -15.186  0.00  0.00    -0.002 C 
ATOM      6  C   UNL     1      37.499 -25.158 -14.359  0.00  0.00    -0.000 C 
ATOM      7  C   UNL     1      35.679 -23.537 -12.411  0.00  0.00    -0.002 C 
ENDROOT
BRANCH   1   8
ATOM      8  N   UNL     1      33.436 -23.757 -14.249  0.00  0.00    +0.392 N 
ATOM      9  C   UNL     1      32.669 -22.784 -15.041  0.00  0.00    -0.077 C 
ATOM     10  C   UNL     1      32.724 -25.039 -14.150  0.00  0.00    -0.077 C 
ATOM     11  C   UNL     1      31.294 -22.531 -14.422  0.00  0.00    -0.023 C 
ATOM     12  C   UNL     1      31.350 -24.859 -13.502  0.00  0.00    -0.023 C 
ATOM     13  C   UNL     1      30.514 -23.830 -14.254  0.00  0.00    -0.004 C 
ATOM     14  H   UNL     1      33.540 -23.381 -13.306  0.00  0.00    -0.079 HD
ENDBRANCH   1   8
BRANCH   1  16
ATOM     15  S   UNL     1      35.967 -22.237 -16.714  0.00  0.00    -0.093 S 
ATOM     16  C   UNL     1      34.736 -23.327 -16.259  0.00  0.00    -0.011 C 
ATOM     17  C   UNL     1      33.819 -23.538 -17.255  0.00  0.00    +0.001 C 
ATOM     18  C   UNL     1      34.130 -22.786 -18.424  0.00  0.00    +0.007 C 
ATOM     19  C   UNL     1      35.274 -22.035 -18.266  0.00  0.00    +0.035 C 
ENDBRANCH   1  16
TORSDOF 2
ENDMDL
MODEL 5
REMARK VINA RESULT:      -6.6      1.583      4.406
REMARK  Name = 176265
REMARK  2 active torsions:
REMARK  status: ('A' for Active; 'I' for Inactive)
REMARK    1  A    between atoms: C_1  and  N_8
REMARK    2  A    between atoms: C_1  and  C_16
REMARK                            x       y       z     vdW  Elec       q    Type
REMARK                         _______ _______ _______ _____ _____    ______ ____
ROOT
ATOM      1  C   UNL     1      32.909  -8.934 -23.021  0.00  0.00    -0.017 C 
ATOM      2  C   UNL     1      31.613  -8.326 -23.682  0.00  0.00    -0.013 C 
ATOM      3  C   UNL     1      33.800  -7.762 -22.514  0.00  0.00    -0.014 C 
ATOM      4  C   UNL     1      31.982  -7.315 -24.785  0.00  0.00    -0.002 C 
ATOM      5  C   UNL     1      34.119  -6.711 -23.585  0.00  0.00    -0.002 C 
ATOM      6  C   UNL     1      32.868  -6.183 -24.276  0.00  0.00    -0.000 C 
ATOM      7  C   UNL     1      30.643  -7.673 -22.676  0.00  0.00    -0.002 C 
ENDROOT
BRANCH   1   8
ATOM      8  N   UNL     1      32.544  -9.706 -21.834  0.00  0.00    +0.392 N 
ATOM      9  C   UNL     1      32.476  -8.833 -20.653  0.00  0.00    -0.077 C 
ATOM     10  C   UNL     1      31.271 -10.410 -22.048  0.00  0.00    -0.077 C 
ATOM     11  C   UNL     1      32.144  -9.634 -19.393  0.00  0.00    -0.023 C 
ATOM     12  C   UNL     1      30.900 -11.262 -20.833  0.00  0.00    -0.023 C 
ATOM     13  C   UNL     1      30.850 -10.422 -19.562  0.00  0.00    -0.004 C 
ATOM     14  H   UNL     1      33.266 -10.408 -21.664  0.00  0.00    -0.079 HD
ENDBRANCH   1   8
BRANCH   1  16
ATOM     15  S   UNL     1      33.140 -11.544 -24.062  0.00  0.00    -0.093 S 
ATOM     16  C   UNL     1      33.638  -9.914 -23.996  0.00  0.00    -0.011 C 
ATOM     17  C   UNL     1      34.675  -9.640 -24.850  0.00  0.00    +0.001 C 
ATOM     18  C   UNL     1      35.073 -10.797 -25.580  0.00  0.00    +0.007 C 
ATOM     19  C   UNL     1      34.320 -11.902 -25.249  0.00  0.00    +0.035 C 
ENDBRANCH   1  16
TORSDOF 2
ENDMDL
MODEL 6
REMARK VINA RESULT:      -6.6      1.762      4.872
REMARK  Name = 176265
REMARK  2 active torsions:
REMARK  status: ('A' for Active; 'I' for Inactive)
REMARK    1  A    between atoms: C_1  and  N_8
REMARK    2  A    between atoms: C_1  and  C_16
REMARK                            x       y       z     vdW  Elec       q    Type
REMARK                         _______ _______ _______ _____ _____    ______ ____
ROOT
ATOM      1  C   UNL     1      31.904  -8.996 -22.084  0.00  0.00    -0.017 C 
ATOM      2  C   UNL     1      32.370  -8.934 -20.579  0.00  0.00    -0.013 C 
ATOM      3  C   UNL     1      30.664  -9.933 -22.178  0.00  0.00    -0.014 C 
ATOM      4  C   UNL     1      32.627 -10.350 -20.026  0.00  0.00    -0.002 C 
ATOM      5  C   UNL     1      30.883 -11.323 -21.569  0.00  0.00    -0.002 C 
ATOM      6  C   UNL     1      31.408 -11.259 -20.141  0.00  0.00    -0.000 C 
ATOM      7  C   UNL     1      31.397  -8.178 -19.651  0.00  0.00    -0.002 C 
ENDROOT
BRANCH   1   8
ATOM      8  N   UNL     1      31.446  -7.676 -22.516  0.00  0.00    +0.392 N 
ATOM      9  C   UNL     1      32.390  -6.636 -22.081  0.00  0.00    -0.077 C 
ATOM     10  C   UNL     1      31.260  -7.647 -23.974  0.00  0.00    -0.077 C 
ATOM     11  C   UNL     1      31.900  -5.244 -22.481  0.00  0.00    -0.023 C 
ATOM     12  C   UNL     1      30.733  -6.287 -24.436  0.00  0.00    -0.023 C 
ATOM     13  C   UNL     1      31.648  -5.155 -23.982  0.00  0.00    -0.004 C 
ATOM     14  H   UNL     1      30.543  -7.483 -22.080  0.00  0.00    -0.079 HD
ENDBRANCH   1   8
BRANCH   1  16
ATOM     15  S   UNL     1      33.072 -10.946 -23.752  0.00  0.00    -0.093 S 
ATOM     16  C   UNL     1      33.082  -9.401 -23.029  0.00  0.00    -0.011 C 
ATOM     17  C   UNL     1      34.178  -8.657 -23.379  0.00  0.00    +0.001 C 
ATOM     18  C   UNL     1      35.036  -9.371 -24.265  0.00  0.00    +0.007 C 
ATOM     19  C   UNL     1      34.553 -10.629 -24.550  0.00  0.00    +0.035 C 
ENDBRANCH   1  16
TORSDOF 2
ENDMDL
MODEL 7
REMARK VINA RESULT:      -6.4      1.916      4.940
REMARK  Name = 176265
REMARK  2 active torsions:
REMARK  status: ('A' for Active; 'I' for Inactive)
REMARK    1  A    between atoms: C_1  and  N_8
REMARK    2  A    between atoms: C_1  and  C_16
REMARK                            x       y       z     vdW  Elec       q    Type
REMARK                         _______ _______ _______ _____ _____    ______ ____
ROOT
ATOM      1  C   UNL     1      32.347  -8.389 -22.530  0.00  0.00    -0.017 C 
ATOM      2  C   UNL     1      32.753  -8.413 -21.007  0.00  0.00    -0.013 C 
ATOM      3  C   UNL     1      30.912  -8.979 -22.668  0.00  0.00    -0.014 C 
ATOM      4  C   UNL     1      32.616  -9.834 -20.426  0.00  0.00    -0.002 C 
ATOM      5  C   UNL     1      30.743 -10.364 -22.032  0.00  0.00    -0.002 C 
ATOM      6  C   UNL     1      31.211 -10.404 -20.583  0.00  0.00    -0.000 C 
ATOM      7  C   UNL     1      31.971  -7.412 -20.133  0.00  0.00    -0.002 C 
ENDROOT
BRANCH   1   8
ATOM      8  N   UNL     1      32.260  -7.006 -22.998  0.00  0.00    +0.392 N 
ATOM      9  C   UNL     1      32.455  -6.942 -24.454  0.00  0.00    -0.077 C 
ATOM     10  C   UNL     1      30.973  -6.410 -22.609  0.00  0.00    -0.077 C 
ATOM     11  C   UNL     1      32.416  -5.496 -24.953  0.00  0.00    -0.023 C 
ATOM     12  C   UNL     1      30.887  -4.947 -23.047  0.00  0.00    -0.023 C 
ATOM     13  C   UNL     1      31.120  -4.804 -24.547  0.00  0.00    -0.004 C 
ATOM     14  H   UNL     1      33.004  -6.463 -22.558  0.00  0.00    -0.079 HD
ENDBRANCH   1   8
BRANCH   1  16
ATOM     15  S   UNL     1      33.080 -10.656 -24.037  0.00  0.00    -0.093 S 
ATOM     16  C   UNL     1      33.417  -9.103 -23.417  0.00  0.00    -0.011 C 
ATOM     17  C   UNL     1      34.652  -8.640 -23.788  0.00  0.00    +0.001 C 
ATOM     18  C   UNL     1      35.343  -9.582 -24.604  0.00  0.00    +0.007 C 
ATOM     19  C   UNL     1      34.601 -10.722 -24.818  0.00  0.00    +0.035 C 
ENDBRANCH   1  16
TORSDOF 2
ENDMDL
MODEL 8
REMARK VINA RESULT:      -6.3     15.269     17.573
REMARK  Name = 176265
REMARK  2 active torsions:
REMARK  status: ('A' for Active; 'I' for Inactive)
REMARK    1  A    between atoms: C_1  and  N_8
REMARK    2  A    between atoms: C_1  and  C_16
REMARK                            x       y       z     vdW  Elec       q    Type
REMARK                         _______ _______ _______ _____ _____    ______ ____
ROOT
ATOM      1  C   UNL     1      35.678 -23.665 -14.682  0.00  0.00    -0.017 C 
ATOM      2  C   UNL     1      34.206 -23.853 -15.215  0.00  0.00    -0.013 C 
ATOM      3  C   UNL     1      36.274 -22.378 -15.324  0.00  0.00    -0.014 C 
ATOM      4  C   UNL     1      34.178 -23.867 -16.756  0.00  0.00    -0.002 C 
ATOM      5  C   UNL     1      36.191 -22.348 -16.855  0.00  0.00    -0.002 C 
ATOM      6  C   UNL     1      34.781 -22.608 -17.369  0.00  0.00    -0.000 C 
ATOM      7  C   UNL     1      33.207 -22.805 -14.683  0.00  0.00    -0.002 C 
ENDROOT
BRANCH   1   8
ATOM      8  N   UNL     1      35.656 -23.422 -13.240  0.00  0.00    +0.392 N 
ATOM      9  C   UNL     1      35.166 -24.610 -12.526  0.00  0.00    -0.077 C 
ATOM     10  C   UNL     1      36.990 -23.030 -12.763  0.00  0.00    -0.077 C 
ATOM     11  C   UNL     1      35.089 -24.356 -11.019  0.00  0.00    -0.023 C 
ATOM     12  C   UNL     1      36.973 -22.724 -11.264  0.00  0.00    -0.023 C 
ATOM     13  C   UNL     1      36.436 -23.906 -10.464  0.00  0.00    -0.004 C 
ATOM     14  H   UNL     1      35.014 -22.653 -13.046  0.00  0.00    -0.079 HD
ENDBRANCH   1   8
BRANCH   1  16
ATOM     15  S   UNL     1      38.232 -24.857 -14.753  0.00  0.00    -0.093 S 
ATOM     16  C   UNL     1      36.536 -24.950 -14.915  0.00  0.00    -0.011 C 
ATOM     17  C   UNL     1      36.103 -26.207 -15.247  0.00  0.00    +0.001 C 
ATOM     18  C   UNL     1      37.189 -27.121 -15.374  0.00  0.00    +0.007 C 
ATOM     19  C   UNL     1      38.403 -26.518 -15.130  0.00  0.00    +0.035 C 
ENDBRANCH   1  16
TORSDOF 2
ENDMDL
MODEL 9
REMARK VINA RESULT:      -6.2      1.712      4.248
REMARK  Name = 176265
REMARK  2 active torsions:
REMARK  status: ('A' for Active; 'I' for Inactive)
REMARK    1  A    between atoms: C_1  and  N_8
REMARK    2  A    between atoms: C_1  and  C_16
REMARK                            x       y       z     vdW  Elec       q    Type
REMARK                         _______ _______ _______ _____ _____    ______ ____
ROOT
ATOM      1  C   UNL     1      32.055 -10.000 -22.365  0.00  0.00    -0.017 C 
ATOM      2  C   UNL     1      32.731  -9.615 -20.994  0.00  0.00    -0.013 C 
ATOM      3  C   UNL     1      30.522 -10.152 -22.133  0.00  0.00    -0.014 C 
ATOM      4  C   UNL     1      32.375 -10.641 -19.900  0.00  0.00    -0.002 C 
ATOM      5  C   UNL     1      30.154 -11.118 -21.000  0.00  0.00    -0.002 C 
ATOM      6  C   UNL     1      30.871 -10.790 -19.697  0.00  0.00    -0.000 C 
ATOM      7  C   UNL     1      32.395  -8.191 -20.506  0.00  0.00    -0.002 C 
ENDROOT
BRANCH   1   8
ATOM      8  N   UNL     1      32.211  -8.904 -23.320  0.00  0.00    +0.392 N 
ATOM      9  C   UNL     1      31.005  -8.063 -23.341  0.00  0.00    -0.077 C 
ATOM     10  C   UNL     1      33.406  -8.109 -23.001  0.00  0.00    -0.077 C 
ATOM     11  C   UNL     1      31.132  -6.940 -24.371  0.00  0.00    -0.023 C 
ATOM     12  C   UNL     1      33.612  -6.987 -24.020  0.00  0.00    -0.023 C 
ATOM     13  C   UNL     1      32.378  -6.097 -24.121  0.00  0.00    -0.004 C 
ATOM     14  H   UNL     1      32.336  -9.297 -24.254  0.00  0.00    -0.079 HD
ENDBRANCH   1   8
BRANCH   1  16
ATOM     15  S   UNL     1      33.782 -11.054 -24.329  0.00  0.00    -0.093 S 
ATOM     16  C   UNL     1      32.731 -11.258 -23.000  0.00  0.00    -0.011 C 
ATOM     17  C   UNL     1      32.596 -12.569 -22.626  0.00  0.00    +0.001 C 
ATOM     18  C   UNL     1      33.374 -13.433 -23.450  0.00  0.00    +0.007 C 
ATOM     19  C   UNL     1      34.069 -12.739 -24.416  0.00  0.00    +0.035 C 
ENDBRANCH   1  16
TORSDOF 2
ENDMDL
