MODEL 1
REMARK VINA RESULT:      -7.9      0.000      0.000
REMARK  Name = 18283
REMARK  3 active torsions:
REMARK  status: ('A' for Active; 'I' for Inactive)
REMARK    1  A    between atoms: N_3  and  C_12
REMARK    2  A    between atoms: C_13  and  C_16
REMARK    3  A    between atoms: C_16  and  O_17
REMARK                            x       y       z     vdW  Elec       q    Type
REMARK                         _______ _______ _______ _____ _____    ______ ____
ROOT
ATOM      1  O   UNL     1      34.694 -17.122 -25.636  0.00  0.00    -0.252 OA
ATOM      2  O   UNL     1      32.721 -13.450 -23.695  0.00  0.00    -0.270 OA
ATOM      3  N   UNL     1      34.616 -17.002 -23.308  0.00  0.00    -0.215 N 
ATOM      4  N   UNL     1      33.714 -15.296 -24.655  0.00  0.00    -0.236 N 
ATOM      5  C   UNL     1      34.228 -16.289 -22.190  0.00  0.00    +0.072 C 
ATOM      6  C   UNL     1      34.372 -16.529 -24.604  0.00  0.00    +0.316 C 
ATOM      7  C   UNL     1      33.600 -15.109 -22.243  0.00  0.00    +0.047 C 
ATOM      8  C   UNL     1      33.297 -14.528 -23.578  0.00  0.00    +0.250 C 
ATOM      9  C   UNL     1      33.181 -14.340 -21.031  0.00  0.00    +0.037 C 
ATOM     10  H   UNL     1      33.526 -14.933 -25.551  0.00  0.00    +0.159 HD
ENDROOT
BRANCH   3  12
ATOM     11  O   UNL     1      34.314 -19.308 -22.897  0.00  0.00    -0.329 OA
ATOM     12  C   UNL     1      35.294 -18.276 -23.099  0.00  0.00    +0.223 C 
ATOM     13  C   UNL     1      34.519 -19.881 -21.587  0.00  0.00    +0.168 C 
ATOM     14  C   UNL     1      36.109 -18.230 -21.863  0.00  0.00    +0.022 C 
ATOM     15  C   UNL     1      35.670 -19.144 -21.001  0.00  0.00    +0.005 C 
BRANCH  13  16
ATOM     16  C   UNL     1      33.242 -19.726 -20.778  0.00  0.00    +0.171 C 
BRANCH  16  17
ATOM     17  O   UNL     1      32.775 -21.013 -20.410  0.00  0.00    -0.379 OA
ATOM     18  H   UNL     1      32.773 -21.591 -21.190  0.00  0.00    +0.211 HD
ENDBRANCH  16  17
ENDBRANCH  13  16
ENDBRANCH   3  12
TORSDOF 3
ENDMDL
MODEL 2
REMARK VINA RESULT:      -7.4      1.827      4.476
REMARK  Name = 18283
REMARK  3 active torsions:
REMARK  status: ('A' for Active; 'I' for Inactive)
REMARK    1  A    between atoms: N_3  and  C_12
REMARK    2  A    between atoms: C_13  and  C_16
REMARK    3  A    between atoms: C_16  and  O_17
REMARK                            x       y       z     vdW  Elec       q    Type
REMARK                         _______ _______ _______ _____ _____    ______ ____
ROOT
ATOM      1  O   UNL     1      33.974 -15.722 -26.087  0.00  0.00    -0.252 OA
ATOM      2  O   UNL     1      34.844 -20.001 -24.644  0.00  0.00    -0.270 OA
ATOM      3  N   UNL     1      34.430 -16.062 -23.825  0.00  0.00    -0.215 N 
ATOM      4  N   UNL     1      34.409 -17.851 -25.354  0.00  0.00    -0.236 N 
ATOM      5  C   UNL     1      34.738 -16.957 -22.820  0.00  0.00    +0.072 C 
ATOM      6  C   UNL     1      34.249 -16.476 -25.151  0.00  0.00    +0.316 C 
ATOM      7  C   UNL     1      34.889 -18.272 -23.017  0.00  0.00    +0.047 C 
ATOM      8  C   UNL     1      34.718 -18.804 -24.395  0.00  0.00    +0.250 C 
ATOM      9  C   UNL     1      35.223 -19.239 -21.927  0.00  0.00    +0.037 C 
ATOM     10  H   UNL     1      34.289 -18.177 -26.275  0.00  0.00    +0.159 HD
ENDROOT
BRANCH   3  12
ATOM     11  O   UNL     1      34.541 -14.502 -22.055  0.00  0.00    -0.329 OA
ATOM     12  C   UNL     1      34.295 -14.655 -23.463  0.00  0.00    +0.223 C 
ATOM     13  C   UNL     1      33.350 -13.962 -21.441  0.00  0.00    +0.168 C 
ATOM     14  C   UNL     1      32.906 -14.194 -23.695  0.00  0.00    +0.022 C 
ATOM     15  C   UNL     1      32.367 -13.797 -22.544  0.00  0.00    +0.005 C 
BRANCH  13  16
ATOM     16  C   UNL     1      32.876 -14.921 -20.362  0.00  0.00    +0.171 C 
BRANCH  16  17
ATOM     17  O   UNL     1      31.986 -15.859 -20.943  0.00  0.00    -0.379 OA
ATOM     18  H   UNL     1      31.080 -15.665 -20.658  0.00  0.00    +0.211 HD
ENDBRANCH  16  17
ENDBRANCH  13  16
ENDBRANCH   3  12
TORSDOF 3
ENDMDL
MODEL 3
REMARK VINA RESULT:      -7.4      8.231      9.896
REMARK  Name = 18283
REMARK  3 active torsions:
REMARK  status: ('A' for Active; 'I' for Inactive)
REMARK    1  A    between atoms: N_3  and  C_12
REMARK    2  A    between atoms: C_13  and  C_16
REMARK    3  A    between atoms: C_16  and  O_17
REMARK                            x       y       z     vdW  Elec       q    Type
REMARK                         _______ _______ _______ _____ _____    ______ ____
ROOT
ATOM      1  O   UNL     1      34.236 -23.144 -18.441  0.00  0.00    -0.252 OA
ATOM      2  O   UNL     1      29.953 -22.371 -16.953  0.00  0.00    -0.270 OA
ATOM      3  N   UNL     1      33.734 -23.598 -16.208  0.00  0.00    -0.215 N 
ATOM      4  N   UNL     1      32.104 -22.762 -17.685  0.00  0.00    -0.236 N 
ATOM      5  C   UNL     1      32.786 -23.605 -15.206  0.00  0.00    +0.072 C 
ATOM      6  C   UNL     1      33.431 -23.170 -17.508  0.00  0.00    +0.316 C 
ATOM      7  C   UNL     1      31.518 -23.212 -15.379  0.00  0.00    +0.047 C 
ATOM      8  C   UNL     1      31.102 -22.743 -16.727  0.00  0.00    +0.250 C 
ATOM      9  C   UNL     1      30.493 -23.221 -14.291  0.00  0.00    +0.037 C 
ATOM     10  H   UNL     1      31.856 -22.455 -18.588  0.00  0.00    +0.159 HD
ENDROOT
BRANCH   3  12
ATOM     11  O   UNL     1      35.026 -24.852 -14.679  0.00  0.00    -0.329 OA
ATOM     12  C   UNL     1      35.079 -24.053 -15.874  0.00  0.00    +0.223 C 
ATOM     13  C   UNL     1      35.840 -24.216 -13.670  0.00  0.00    +0.168 C 
ATOM     14  C   UNL     1      35.952 -22.898 -15.562  0.00  0.00    +0.022 C 
ATOM     15  C   UNL     1      36.388 -22.990 -14.308  0.00  0.00    +0.005 C 
BRANCH  13  16
ATOM     16  C   UNL     1      34.974 -23.918 -12.457  0.00  0.00    +0.171 C 
BRANCH  16  17
ATOM     17  O   UNL     1      34.895 -25.084 -11.655  0.00  0.00    -0.379 OA
ATOM     18  H   UNL     1      35.474 -24.986 -10.883  0.00  0.00    +0.211 HD
ENDBRANCH  16  17
ENDBRANCH  13  16
ENDBRANCH   3  12
TORSDOF 3
ENDMDL
MODEL 4
REMARK VINA RESULT:      -7.4      2.017      3.260
REMARK  Name = 18283
REMARK  3 active torsions:
REMARK  status: ('A' for Active; 'I' for Inactive)
REMARK    1  A    between atoms: N_3  and  C_12
REMARK    2  A    between atoms: C_13  and  C_16
REMARK    3  A    between atoms: C_16  and  O_17
REMARK                            x       y       z     vdW  Elec       q    Type
REMARK                         _______ _______ _______ _____ _____    ______ ____
ROOT
ATOM      1  O   UNL     1      34.839 -15.697 -19.805  0.00  0.00    -0.252 OA
ATOM      2  O   UNL     1      32.444 -12.677 -22.314  0.00  0.00    -0.270 OA
ATOM      3  N   UNL     1      34.648 -16.062 -22.101  0.00  0.00    -0.215 N 
ATOM      4  N   UNL     1      33.647 -14.200 -21.068  0.00  0.00    -0.236 N 
ATOM      5  C   UNL     1      34.147 -15.628 -23.312  0.00  0.00    +0.072 C 
ATOM      6  C   UNL     1      34.416 -15.358 -20.912  0.00  0.00    +0.316 C 
ATOM      7  C   UNL     1      33.410 -14.520 -23.457  0.00  0.00    +0.047 C 
ATOM      8  C   UNL     1      33.113 -13.706 -22.249  0.00  0.00    +0.250 C 
ATOM      9  C   UNL     1      32.868 -14.053 -24.770  0.00  0.00    +0.037 C 
ATOM     10  H   UNL     1      33.464 -13.679 -20.252  0.00  0.00    +0.159 HD
ENDROOT
BRANCH   3  12
ATOM     11  O   UNL     1      35.759 -17.656 -23.446  0.00  0.00    -0.329 OA
ATOM     12  C   UNL     1      35.435 -17.290 -22.093  0.00  0.00    +0.223 C 
ATOM     13  C   UNL     1      35.187 -18.954 -23.716  0.00  0.00    +0.168 C 
ATOM     14  C   UNL     1      34.638 -18.410 -21.540  0.00  0.00    +0.022 C 
ATOM     15  C   UNL     1      34.497 -19.359 -22.463  0.00  0.00    +0.005 C 
BRANCH  13  16
ATOM     16  C   UNL     1      34.243 -18.838 -24.902  0.00  0.00    +0.171 C 
BRANCH  16  17
ATOM     17  O   UNL     1      34.643 -17.735 -25.698  0.00  0.00    -0.379 OA
ATOM     18  H   UNL     1      35.287 -17.200 -25.208  0.00  0.00    +0.211 HD
ENDBRANCH  16  17
ENDBRANCH  13  16
ENDBRANCH   3  12
TORSDOF 3
ENDMDL
MODEL 5
REMARK VINA RESULT:      -7.4      8.655     10.443
REMARK  Name = 18283
REMARK  3 active torsions:
REMARK  status: ('A' for Active; 'I' for Inactive)
REMARK    1  A    between atoms: N_3  and  C_12
REMARK    2  A    between atoms: C_13  and  C_16
REMARK    3  A    between atoms: C_16  and  O_17
REMARK                            x       y       z     vdW  Elec       q    Type
REMARK                         _______ _______ _______ _____ _____    ______ ____
ROOT
ATOM      1  O   UNL     1      34.679 -22.823 -17.666  0.00  0.00    -0.252 OA
ATOM      2  O   UNL     1      30.369 -23.607 -16.267  0.00  0.00    -0.270 OA
ATOM      3  N   UNL     1      34.321 -23.399 -15.434  0.00  0.00    -0.215 N 
ATOM      4  N   UNL     1      32.534 -23.216 -16.955  0.00  0.00    -0.236 N 
ATOM      5  C   UNL     1      33.414 -23.731 -14.448  0.00  0.00    +0.072 C 
ATOM      6  C   UNL     1      33.915 -23.123 -16.747  0.00  0.00    +0.316 C 
ATOM      7  C   UNL     1      32.094 -23.817 -14.650  0.00  0.00    +0.047 C 
ATOM      8  C   UNL     1      31.569 -23.543 -16.014  0.00  0.00    +0.250 C 
ATOM      9  C   UNL     1      31.114 -24.177 -13.580  0.00  0.00    +0.037 C 
ATOM     10  H   UNL     1      32.213 -23.029 -17.867  0.00  0.00    +0.159 HD
ENDROOT
BRANCH   3  12
ATOM     11  O   UNL     1      36.439 -24.399 -15.740  0.00  0.00    -0.329 OA
ATOM     12  C   UNL     1      35.732 -23.342 -15.068  0.00  0.00    +0.223 C 
ATOM     13  C   UNL     1      37.024 -25.261 -14.740  0.00  0.00    +0.168 C 
ATOM     14  C   UNL     1      35.898 -23.587 -13.617  0.00  0.00    +0.022 C 
ATOM     15  C   UNL     1      36.636 -24.680 -13.428  0.00  0.00    +0.005 C 
BRANCH  13  16
ATOM     16  C   UNL     1      36.500 -26.673 -14.942  0.00  0.00    +0.171 C 
BRANCH  16  17
ATOM     17  O   UNL     1      36.816 -27.094 -16.258  0.00  0.00    -0.379 OA
ATOM     18  H   UNL     1      36.675 -28.051 -16.334  0.00  0.00    +0.211 HD
ENDBRANCH  16  17
ENDBRANCH  13  16
ENDBRANCH   3  12
TORSDOF 3
ENDMDL
MODEL 6
REMARK VINA RESULT:      -7.2      5.426      7.247
REMARK  Name = 18283
REMARK  3 active torsions:
REMARK  status: ('A' for Active; 'I' for Inactive)
REMARK    1  A    between atoms: N_3  and  C_12
REMARK    2  A    between atoms: C_13  and  C_16
REMARK    3  A    between atoms: C_16  and  O_17
REMARK                            x       y       z     vdW  Elec       q    Type
REMARK                         _______ _______ _______ _____ _____    ______ ____
ROOT
ATOM      1  O   UNL     1      33.013 -13.599 -24.080  0.00  0.00    -0.252 OA
ATOM      2  O   UNL     1      35.699 -10.171 -25.556  0.00  0.00    -0.270 OA
ATOM      3  N   UNL     1      32.712 -11.475 -23.163  0.00  0.00    -0.215 N 
ATOM      4  N   UNL     1      34.347 -11.881 -24.806  0.00  0.00    -0.236 N 
ATOM      5  C   UNL     1      33.105 -10.153 -23.134  0.00  0.00    +0.072 C 
ATOM      6  C   UNL     1      33.324 -12.408 -24.011  0.00  0.00    +0.316 C 
ATOM      7  C   UNL     1      34.085  -9.652 -23.895  0.00  0.00    +0.047 C 
ATOM      8  C   UNL     1      34.792 -10.568 -24.829  0.00  0.00    +0.250 C 
ATOM      9  C   UNL     1      34.509  -8.218 -23.861  0.00  0.00    +0.037 C 
ATOM     10  H   UNL     1      34.799 -12.509 -25.415  0.00  0.00    +0.159 HD
ENDROOT
BRANCH   3  12
ATOM     11  O   UNL     1      30.954 -10.710 -21.782  0.00  0.00    -0.329 OA
ATOM     12  C   UNL     1      31.628 -11.881 -22.275  0.00  0.00    +0.223 C 
ATOM     13  C   UNL     1      31.071 -10.689 -20.343  0.00  0.00    +0.168 C 
ATOM     14  C   UNL     1      32.169 -12.580 -21.087  0.00  0.00    +0.022 C 
ATOM     15  C   UNL     1      31.852 -11.903 -19.985  0.00  0.00    +0.005 C 
BRANCH  13  16
ATOM     16  C   UNL     1      31.756  -9.399 -19.925  0.00  0.00    +0.171 C 
BRANCH  16  17
ATOM     17  O   UNL     1      32.692  -9.689 -18.900  0.00  0.00    -0.379 OA
ATOM     18  H   UNL     1      32.341  -9.387 -18.048  0.00  0.00    +0.211 HD
ENDBRANCH  16  17
ENDBRANCH  13  16
ENDBRANCH   3  12
TORSDOF 3
ENDMDL
MODEL 7
REMARK VINA RESULT:      -7.1      8.379     10.496
REMARK  Name = 18283
REMARK  3 active torsions:
REMARK  status: ('A' for Active; 'I' for Inactive)
REMARK    1  A    between atoms: N_3  and  C_12
REMARK    2  A    between atoms: C_13  and  C_16
REMARK    3  A    between atoms: C_16  and  O_17
REMARK                            x       y       z     vdW  Elec       q    Type
REMARK                         _______ _______ _______ _____ _____    ______ ____
ROOT
ATOM      1  O   UNL     1      32.215 -24.344 -13.132  0.00  0.00    -0.252 OA
ATOM      2  O   UNL     1      30.757 -22.612 -17.135  0.00  0.00    -0.270 OA
ATOM      3  N   UNL     1      33.776 -24.006 -14.833  0.00  0.00    -0.215 N 
ATOM      4  N   UNL     1      31.502 -23.481 -15.134  0.00  0.00    -0.236 N 
ATOM      5  C   UNL     1      34.019 -23.578 -16.123  0.00  0.00    +0.072 C 
ATOM      6  C   UNL     1      32.490 -23.976 -14.276  0.00  0.00    +0.316 C 
ATOM      7  C   UNL     1      33.071 -23.107 -16.941  0.00  0.00    +0.047 C 
ATOM      8  C   UNL     1      31.674 -23.036 -16.436  0.00  0.00    +0.250 C 
ATOM      9  C   UNL     1      33.338 -22.644 -18.337  0.00  0.00    +0.037 C 
ATOM     10  H   UNL     1      30.585 -23.446 -14.775  0.00  0.00    +0.159 HD
ENDROOT
BRANCH   3  12
ATOM     11  O   UNL     1      35.835 -23.419 -13.834  0.00  0.00    -0.329 OA
ATOM     12  C   UNL     1      34.908 -24.497 -14.055  0.00  0.00    +0.223 C 
ATOM     13  C   UNL     1      37.100 -23.776 -14.433  0.00  0.00    +0.168 C 
ATOM     14  C   UNL     1      35.647 -25.530 -14.817  0.00  0.00    +0.022 C 
ATOM     15  C   UNL     1      36.897 -25.122 -15.032  0.00  0.00    +0.005 C 
BRANCH  13  16
ATOM     16  C   UNL     1      37.473 -22.720 -15.460  0.00  0.00    +0.171 C 
BRANCH  16  17
ATOM     17  O   UNL     1      38.615 -23.161 -16.174  0.00  0.00    -0.379 OA
ATOM     18  H   UNL     1      38.337 -23.578 -17.004  0.00  0.00    +0.211 HD
ENDBRANCH  16  17
ENDBRANCH  13  16
ENDBRANCH   3  12
TORSDOF 3
ENDMDL
MODEL 8
REMARK VINA RESULT:      -7.1      2.832      4.589
REMARK  Name = 18283
REMARK  3 active torsions:
REMARK  status: ('A' for Active; 'I' for Inactive)
REMARK    1  A    between atoms: N_3  and  C_12
REMARK    2  A    between atoms: C_13  and  C_16
REMARK    3  A    between atoms: C_16  and  O_17
REMARK                            x       y       z     vdW  Elec       q    Type
REMARK                         _______ _______ _______ _____ _____    ______ ____
ROOT
ATOM      1  O   UNL     1      34.086 -11.159 -23.787  0.00  0.00    -0.252 OA
ATOM      2  O   UNL     1      33.147 -13.190 -27.804  0.00  0.00    -0.270 OA
ATOM      3  N   UNL     1      33.572 -13.434 -23.790  0.00  0.00    -0.215 N 
ATOM      4  N   UNL     1      33.615 -12.184 -25.783  0.00  0.00    -0.236 N 
ATOM      5  C   UNL     1      33.232 -14.551 -24.527  0.00  0.00    +0.072 C 
ATOM      6  C   UNL     1      33.780 -12.187 -24.394  0.00  0.00    +0.316 C 
ATOM      7  C   UNL     1      33.074 -14.544 -25.856  0.00  0.00    +0.047 C 
ATOM      8  C   UNL     1      33.276 -13.264 -26.585  0.00  0.00    +0.250 C 
ATOM      9  C   UNL     1      32.705 -15.755 -26.651  0.00  0.00    +0.037 C 
ATOM     10  H   UNL     1      33.754 -11.324 -26.241  0.00  0.00    +0.159 HD
ENDROOT
BRANCH   3  12
ATOM     11  O   UNL     1      34.870 -14.392 -22.064  0.00  0.00    -0.329 OA
ATOM     12  C   UNL     1      33.711 -13.589 -22.346  0.00  0.00    +0.223 C 
ATOM     13  C   UNL     1      34.442 -15.579 -21.360  0.00  0.00    +0.168 C 
ATOM     14  C   UNL     1      32.551 -14.327 -21.794  0.00  0.00    +0.022 C 
ATOM     15  C   UNL     1      32.966 -15.460 -21.230  0.00  0.00    +0.005 C 
BRANCH  13  16
ATOM     16  C   UNL     1      34.872 -16.802 -22.152  0.00  0.00    +0.171 C 
BRANCH  16  17
ATOM     17  O   UNL     1      35.742 -16.390 -23.193  0.00  0.00    -0.379 OA
ATOM     18  H   UNL     1      35.469 -15.517 -23.516  0.00  0.00    +0.211 HD
ENDBRANCH  16  17
ENDBRANCH  13  16
ENDBRANCH   3  12
TORSDOF 3
ENDMDL
MODEL 9
REMARK VINA RESULT:      -7.0      7.537      9.695
REMARK  Name = 18283
REMARK  3 active torsions:
REMARK  status: ('A' for Active; 'I' for Inactive)
REMARK    1  A    between atoms: N_3  and  C_12
REMARK    2  A    between atoms: C_13  and  C_16
REMARK    3  A    between atoms: C_16  and  O_17
REMARK                            x       y       z     vdW  Elec       q    Type
REMARK                         _______ _______ _______ _____ _____    ______ ____
ROOT
ATOM      1  O   UNL     1      37.164 -22.110 -17.325  0.00  0.00    -0.252 OA
ATOM      2  O   UNL     1      32.846 -22.489 -18.861  0.00  0.00    -0.270 OA
ATOM      3  N   UNL     1      35.537 -22.946 -15.877  0.00  0.00    -0.215 N 
ATOM      4  N   UNL     1      35.006 -22.303 -18.078  0.00  0.00    -0.236 N 
ATOM      5  C   UNL     1      34.214 -23.289 -15.685  0.00  0.00    +0.072 C 
ATOM      6  C   UNL     1      35.996 -22.431 -17.097  0.00  0.00    +0.316 C 
ATOM      7  C   UNL     1      33.270 -23.164 -16.625  0.00  0.00    +0.047 C 
ATOM      8  C   UNL     1      33.663 -22.627 -17.955  0.00  0.00    +0.250 C 
ATOM      9  C   UNL     1      31.837 -23.536 -16.414  0.00  0.00    +0.037 C 
ATOM     10  H   UNL     1      35.293 -21.944 -18.949  0.00  0.00    +0.159 HD
ENDROOT
BRANCH   3  12
ATOM     11  O   UNL     1      37.457 -24.101 -15.130  0.00  0.00    -0.329 OA
ATOM     12  C   UNL     1      36.457 -23.136 -14.761  0.00  0.00    +0.223 C 
ATOM     13  C   UNL     1      37.366 -25.220 -14.221  0.00  0.00    +0.168 C 
ATOM     14  C   UNL     1      35.742 -23.703 -13.595  0.00  0.00    +0.022 C 
ATOM     15  C   UNL     1      36.259 -24.890 -13.285  0.00  0.00    +0.005 C 
BRANCH  13  16
ATOM     16  C   UNL     1      37.107 -26.484 -15.024  0.00  0.00    +0.171 C 
BRANCH  16  17
ATOM     17  O   UNL     1      35.764 -26.469 -15.479  0.00  0.00    -0.379 OA
ATOM     18  H   UNL     1      35.692 -26.995 -16.291  0.00  0.00    +0.211 HD
ENDBRANCH  16  17
ENDBRANCH  13  16
ENDBRANCH   3  12
TORSDOF 3
ENDMDL
