MODEL 1
REMARK VINA RESULT:     -10.2      0.000      0.000
REMARK  Name = 54676537
REMARK  6 active torsions:
REMARK  status: ('A' for Active; 'I' for Inactive)
REMARK    1  A    between atoms: C_1  and  C_4
REMARK    2  A    between atoms: C_1  and  C_15
REMARK    3  A    between atoms: C_1  and  C_24
REMARK    4  A    between atoms: C_5  and  O_13
REMARK    5  A    between atoms: C_20  and  N_23
REMARK    6  A    between atoms: C_24  and  C_26
REMARK                            x       y       z     vdW  Elec       q    Type
REMARK                         _______ _______ _______ _____ _____    ______ ____
ROOT
ATOM      1  C   UNL     1      33.331 -23.884 -15.457  0.00  0.00    +0.061 C 
ENDROOT
BRANCH   1   4
ATOM      2  O   UNL     1      32.698 -22.036 -18.699  0.00  0.00    -0.421 OA
ATOM      3  O   UNL     1      31.334 -23.077 -17.206  0.00  0.00    -0.245 OA
ATOM      4  C   UNL     1      33.660 -23.100 -16.699  0.00  0.00    +0.092 A 
ATOM      5  C   UNL     1      34.894 -22.721 -17.082  0.00  0.00    +0.139 A 
ATOM      6  C   UNL     1      35.097 -21.966 -18.321  0.00  0.00    +0.068 A 
ATOM      7  C   UNL     1      32.472 -22.751 -17.531  0.00  0.00    +0.345 A 
ATOM      8  C   UNL     1      33.989 -21.646 -19.097  0.00  0.00    +0.152 A 
ATOM      9  C   UNL     1      36.356 -21.546 -18.774  0.00  0.00    +0.006 C 
ATOM     10  C   UNL     1      34.095 -20.931 -20.291  0.00  0.00    +0.038 C 
ATOM     11  C   UNL     1      36.481 -20.829 -19.969  0.00  0.00    +0.000 C 
ATOM     12  C   UNL     1      35.351 -20.522 -20.727  0.00  0.00    +0.003 C 
BRANCH   5  13
ATOM     13  O   UNL     1      36.049 -22.988 -16.380  0.00  0.00    -0.506 OA
ATOM     14  H   UNL     1      36.471 -22.305 -15.896  0.00  0.00    +0.292 HD
ENDBRANCH   5  13
ENDBRANCH   1   4
BRANCH   1  15
ATOM     15  C   UNL     1      34.595 -24.399 -14.784  0.00  0.00    -0.018 C 
ATOM     16  C   UNL     1      35.077 -23.772 -13.635  0.00  0.00    -0.002 C 
ATOM     17  C   UNL     1      35.271 -25.496 -15.316  0.00  0.00    -0.002 C 
ATOM     18  C   UNL     1      36.234 -24.244 -13.017  0.00  0.00    +0.024 C 
ATOM     19  C   UNL     1      36.430 -25.968 -14.699  0.00  0.00    +0.024 C 
ATOM     20  C   UNL     1      36.912 -25.341 -13.548  0.00  0.00    +0.143 C 
BRANCH  20  23
ATOM     21  O   UNL     1      39.042 -26.220 -13.634  0.00  0.00    -0.126 OA
ATOM     22  O   UNL     1      38.149 -25.833 -11.667  0.00  0.00    -0.126 OA
ATOM     23  N   UNL     1      38.091 -25.822 -12.919  0.00  0.00    +0.058 N 
ENDBRANCH  20  23
ENDBRANCH   1  15
BRANCH   1  24
ATOM     24  C   UNL     1      32.447 -23.052 -14.507  0.00  0.00    +0.074 C 
BRANCH  24  26
ATOM     25  O   UNL     1      31.062 -23.594 -12.595  0.00  0.00    -0.296 OA
ATOM     26  C   UNL     1      31.431 -23.881 -13.733  0.00  0.00    +0.152 C 
ATOM     27  C   UNL     1      30.923 -25.122 -14.421  0.00  0.00    +0.072 C 
ENDBRANCH  24  26
ENDBRANCH   1  24
TORSDOF 6
ENDMDL
MODEL 2
REMARK VINA RESULT:      -9.9      9.122     13.102
REMARK  Name = 54676537
REMARK  6 active torsions:
REMARK  status: ('A' for Active; 'I' for Inactive)
REMARK    1  A    between atoms: C_1  and  C_4
REMARK    2  A    between atoms: C_1  and  C_15
REMARK    3  A    between atoms: C_1  and  C_24
REMARK    4  A    between atoms: C_5  and  O_13
REMARK    5  A    between atoms: C_20  and  N_23
REMARK    6  A    between atoms: C_24  and  C_26
REMARK                            x       y       z     vdW  Elec       q    Type
REMARK                         _______ _______ _______ _____ _____    ______ ____
ROOT
ATOM      1  C   UNL     1      33.827 -13.988 -24.740  0.00  0.00    +0.061 C 
ENDROOT
BRANCH   1   4
ATOM      2  O   UNL     1      33.471 -10.445 -23.455  0.00  0.00    -0.421 OA
ATOM      3  O   UNL     1      34.634 -11.370 -25.178  0.00  0.00    -0.245 OA
ATOM      4  C   UNL     1      33.337 -12.869 -23.860  0.00  0.00    +0.092 A 
ATOM      5  C   UNL     1      32.497 -13.004 -22.817  0.00  0.00    +0.139 A 
ATOM      6  C   UNL     1      32.094 -11.841 -22.021  0.00  0.00    +0.068 A 
ATOM      7  C   UNL     1      33.871 -11.527 -24.229  0.00  0.00    +0.345 A 
ATOM      8  C   UNL     1      32.597 -10.592 -22.365  0.00  0.00    +0.152 A 
ATOM      9  C   UNL     1      31.225 -11.918 -20.923  0.00  0.00    +0.006 C 
ATOM     10  C   UNL     1      32.265  -9.435 -21.659  0.00  0.00    +0.038 C 
ATOM     11  C   UNL     1      30.882 -10.769 -20.204  0.00  0.00    +0.000 C 
ATOM     12  C   UNL     1      31.402  -9.528 -20.571  0.00  0.00    +0.003 C 
BRANCH   5  13
ATOM     13  O   UNL     1      31.946 -14.198 -22.404  0.00  0.00    -0.506 OA
ATOM     14  H   UNL     1      31.063 -14.223 -22.090  0.00  0.00    +0.292 HD
ENDBRANCH   5  13
ENDBRANCH   1   4
BRANCH   1  15
ATOM     15  C   UNL     1      34.229 -15.200 -23.912  0.00  0.00    -0.018 C 
ATOM     16  C   UNL     1      34.247 -16.467 -24.494  0.00  0.00    -0.002 C 
ATOM     17  C   UNL     1      34.579 -15.044 -22.571  0.00  0.00    -0.002 C 
ATOM     18  C   UNL     1      34.616 -17.578 -23.736  0.00  0.00    +0.024 C 
ATOM     19  C   UNL     1      34.947 -16.154 -21.812  0.00  0.00    +0.024 C 
ATOM     20  C   UNL     1      34.965 -17.422 -22.395  0.00  0.00    +0.143 C 
BRANCH  20  23
ATOM     21  O   UNL     1      35.995 -18.378 -20.566  0.00  0.00    -0.126 OA
ATOM     22  O   UNL     1      35.007 -19.696 -22.017  0.00  0.00    -0.126 OA
ATOM     23  N   UNL     1      35.341 -18.553 -21.622  0.00  0.00    +0.058 N 
ENDBRANCH  20  23
ENDBRANCH   1  15
BRANCH   1  24
ATOM     24  C   UNL     1      32.782 -14.326 -25.821  0.00  0.00    +0.074 C 
BRANCH  24  26
ATOM     25  O   UNL     1      34.009 -13.852 -27.855  0.00  0.00    -0.296 OA
ATOM     26  C   UNL     1      33.027 -13.625 -27.150  0.00  0.00    +0.152 C 
ATOM     27  C   UNL     1      32.013 -12.584 -27.549  0.00  0.00    +0.072 C 
ENDBRANCH  24  26
ENDBRANCH   1  24
TORSDOF 6
ENDMDL
MODEL 3
REMARK VINA RESULT:      -9.5      9.199     13.097
REMARK  Name = 54676537
REMARK  6 active torsions:
REMARK  status: ('A' for Active; 'I' for Inactive)
REMARK    1  A    between atoms: C_1  and  C_4
REMARK    2  A    between atoms: C_1  and  C_15
REMARK    3  A    between atoms: C_1  and  C_24
REMARK    4  A    between atoms: C_5  and  O_13
REMARK    5  A    between atoms: C_20  and  N_23
REMARK    6  A    between atoms: C_24  and  C_26
REMARK                            x       y       z     vdW  Elec       q    Type
REMARK                         _______ _______ _______ _____ _____    ______ ____
ROOT
ATOM      1  C   UNL     1      33.983 -14.090 -24.709  0.00  0.00    +0.061 C 
ENDROOT
BRANCH   1   4
ATOM      2  O   UNL     1      31.800 -12.159 -22.294  0.00  0.00    -0.421 OA
ATOM      3  O   UNL     1      31.953 -14.362 -22.838  0.00  0.00    -0.245 OA
ATOM      4  C   UNL     1      33.445 -12.894 -23.971  0.00  0.00    +0.092 A 
ATOM      5  C   UNL     1      33.865 -11.624 -24.125  0.00  0.00    +0.139 A 
ATOM      6  C   UNL     1      33.259 -10.533 -23.357  0.00  0.00    +0.068 A 
ATOM      7  C   UNL     1      32.354 -13.215 -23.006  0.00  0.00    +0.345 A 
ATOM      8  C   UNL     1      32.239 -10.835 -22.463  0.00  0.00    +0.152 A 
ATOM      9  C   UNL     1      33.650  -9.192 -23.477  0.00  0.00    +0.006 C 
ATOM     10  C   UNL     1      31.608  -9.856 -21.694  0.00  0.00    +0.038 C 
ATOM     11  C   UNL     1      33.028  -8.198 -22.715  0.00  0.00    +0.000 C 
ATOM     12  C   UNL     1      32.008  -8.529 -21.824  0.00  0.00    +0.003 C 
BRANCH   5  13
ATOM     13  O   UNL     1      34.869 -11.230 -24.984  0.00  0.00    -0.506 OA
ATOM     14  H   UNL     1      34.734 -10.502 -25.559  0.00  0.00    +0.292 HD
ENDBRANCH   5  13
ENDBRANCH   1   4
BRANCH   1  15
ATOM     15  C   UNL     1      34.289 -15.233 -23.753  0.00  0.00    -0.018 C 
ATOM     16  C   UNL     1      34.580 -14.964 -22.415  0.00  0.00    -0.002 C 
ATOM     17  C   UNL     1      34.278 -16.549 -24.213  0.00  0.00    -0.002 C 
ATOM     18  C   UNL     1      34.860 -16.011 -21.538  0.00  0.00    +0.024 C 
ATOM     19  C   UNL     1      34.558 -17.597 -23.336  0.00  0.00    +0.024 C 
ATOM     20  C   UNL     1      34.850 -17.328 -21.998  0.00  0.00    +0.143 C 
BRANCH  20  23
ATOM     21  O   UNL     1      34.211 -19.180 -20.782  0.00  0.00    -0.126 OA
ATOM     22  O   UNL     1      36.302 -18.523 -20.665  0.00  0.00    -0.126 OA
ATOM     23  N   UNL     1      35.134 -18.395 -21.105  0.00  0.00    +0.058 N 
ENDBRANCH  20  23
ENDBRANCH   1  15
BRANCH   1  24
ATOM     24  C   UNL     1      33.025 -14.503 -25.844  0.00  0.00    +0.074 C 
BRANCH  24  26
ATOM     25  O   UNL     1      34.181 -13.781 -27.847  0.00  0.00    -0.296 OA
ATOM     26  C   UNL     1      33.195 -13.687 -27.117  0.00  0.00    +0.152 C 
ATOM     27  C   UNL     1      32.097 -12.701 -27.426  0.00  0.00    +0.072 C 
ENDBRANCH  24  26
ENDBRANCH   1  24
TORSDOF 6
ENDMDL
MODEL 4
REMARK VINA RESULT:      -9.4      5.219      9.856
REMARK  Name = 54676537
REMARK  6 active torsions:
REMARK  status: ('A' for Active; 'I' for Inactive)
REMARK    1  A    between atoms: C_1  and  C_4
REMARK    2  A    between atoms: C_1  and  C_15
REMARK    3  A    between atoms: C_1  and  C_24
REMARK    4  A    between atoms: C_5  and  O_13
REMARK    5  A    between atoms: C_20  and  N_23
REMARK    6  A    between atoms: C_24  and  C_26
REMARK                            x       y       z     vdW  Elec       q    Type
REMARK                         _______ _______ _______ _____ _____    ______ ____
ROOT
ATOM      1  C   UNL     1      34.301 -19.106 -22.219  0.00  0.00    +0.061 C 
ENDROOT
BRANCH   1   4
ATOM      2  O   UNL     1      36.617 -20.345 -19.494  0.00  0.00    -0.421 OA
ATOM      3  O   UNL     1      36.878 -18.882 -21.216  0.00  0.00    -0.245 OA
ATOM      4  C   UNL     1      34.729 -19.884 -21.004  0.00  0.00    +0.092 A 
ATOM      5  C   UNL     1      33.952 -20.732 -20.303  0.00  0.00    +0.139 A 
ATOM      6  C   UNL     1      34.481 -21.447 -19.138  0.00  0.00    +0.068 A 
ATOM      7  C   UNL     1      36.146 -19.652 -20.601  0.00  0.00    +0.345 A 
ATOM      8  C   UNL     1      35.803 -21.232 -18.769  0.00  0.00    +0.152 A 
ATOM      9  C   UNL     1      33.723 -22.343 -18.371  0.00  0.00    +0.006 C 
ATOM     10  C   UNL     1      36.384 -21.873 -17.673  0.00  0.00    +0.038 C 
ATOM     11  C   UNL     1      34.290 -22.995 -17.271  0.00  0.00    +0.000 C 
ATOM     12  C   UNL     1      35.619 -22.760 -16.922  0.00  0.00    +0.003 C 
BRANCH   5  13
ATOM     13  O   UNL     1      32.633 -21.006 -20.592  0.00  0.00    -0.506 OA
ATOM     14  H   UNL     1      32.308 -21.881 -20.511  0.00  0.00    +0.292 HD
ENDBRANCH   5  13
ENDBRANCH   1   4
BRANCH   1  15
ATOM     15  C   UNL     1      33.878 -17.693 -21.845  0.00  0.00    -0.018 C 
ATOM     16  C   UNL     1      34.618 -16.601 -22.299  0.00  0.00    -0.002 C 
ATOM     17  C   UNL     1      32.752 -17.490 -21.047  0.00  0.00    -0.002 C 
ATOM     18  C   UNL     1      34.230 -15.306 -21.956  0.00  0.00    +0.024 C 
ATOM     19  C   UNL     1      32.365 -16.195 -20.704  0.00  0.00    +0.024 C 
ATOM     20  C   UNL     1      33.105 -15.102 -21.158  0.00  0.00    +0.143 C 
BRANCH  20  23
ATOM     21  O   UNL     1      32.684 -12.901 -21.700  0.00  0.00    -0.126 OA
ATOM     22  O   UNL     1      32.397 -13.538 -19.620  0.00  0.00    -0.126 OA
ATOM     23  N   UNL     1      32.710 -13.784 -20.809  0.00  0.00    +0.058 N 
ENDBRANCH  20  23
ENDBRANCH   1  15
BRANCH   1  24
ATOM     24  C   UNL     1      35.403 -19.132 -23.297  0.00  0.00    +0.074 C 
BRANCH  24  26
ATOM     25  O   UNL     1      34.970 -20.480 -25.262  0.00  0.00    -0.296 OA
ATOM     26  C   UNL     1      34.879 -19.388 -24.703  0.00  0.00    +0.152 C 
ATOM     27  C   UNL     1      34.274 -18.204 -25.413  0.00  0.00    +0.072 C 
ENDBRANCH  24  26
ENDBRANCH   1  24
TORSDOF 6
ENDMDL
MODEL 5
REMARK VINA RESULT:      -9.3      5.846      9.624
REMARK  Name = 54676537
REMARK  6 active torsions:
REMARK  status: ('A' for Active; 'I' for Inactive)
REMARK    1  A    between atoms: C_1  and  C_4
REMARK    2  A    between atoms: C_1  and  C_15
REMARK    3  A    between atoms: C_1  and  C_24
REMARK    4  A    between atoms: C_5  and  O_13
REMARK    5  A    between atoms: C_20  and  N_23
REMARK    6  A    between atoms: C_24  and  C_26
REMARK                            x       y       z     vdW  Elec       q    Type
REMARK                         _______ _______ _______ _____ _____    ______ ____
ROOT
ATOM      1  C   UNL     1      35.381 -17.264 -22.466  0.00  0.00    +0.061 C 
ENDROOT
BRANCH   1   4
ATOM      2  O   UNL     1      33.840 -14.651 -20.203  0.00  0.00    -0.421 OA
ATOM      3  O   UNL     1      35.241 -16.404 -19.832  0.00  0.00    -0.245 OA
ATOM      4  C   UNL     1      34.557 -16.063 -22.086  0.00  0.00    +0.092 A 
ATOM      5  C   UNL     1      33.832 -15.310 -22.936  0.00  0.00    +0.139 A 
ATOM      6  C   UNL     1      33.056 -14.166 -22.451  0.00  0.00    +0.068 A 
ATOM      7  C   UNL     1      34.587 -15.740 -20.631  0.00  0.00    +0.345 A 
ATOM      8  C   UNL     1      33.082 -13.871 -21.093  0.00  0.00    +0.152 A 
ATOM      9  C   UNL     1      32.281 -13.347 -23.284  0.00  0.00    +0.006 C 
ATOM     10  C   UNL     1      32.371 -12.800 -20.549  0.00  0.00    +0.038 C 
ATOM     11  C   UNL     1      31.562 -12.270 -22.756  0.00  0.00    +0.000 C 
ATOM     12  C   UNL     1      31.606 -11.997 -21.389  0.00  0.00    +0.003 C 
BRANCH   5  13
ATOM     13  O   UNL     1      33.748 -15.523 -24.295  0.00  0.00    -0.506 OA
ATOM     14  H   UNL     1      33.284 -16.268 -24.624  0.00  0.00    +0.292 HD
ENDBRANCH   5  13
ENDBRANCH   1   4
BRANCH   1  15
ATOM     15  C   UNL     1      34.960 -18.491 -21.673  0.00  0.00    -0.018 C 
ATOM     16  C   UNL     1      35.928 -19.329 -21.119  0.00  0.00    -0.002 C 
ATOM     17  C   UNL     1      33.606 -18.778 -21.499  0.00  0.00    -0.002 C 
ATOM     18  C   UNL     1      35.542 -20.454 -20.391  0.00  0.00    +0.024 C 
ATOM     19  C   UNL     1      33.219 -19.904 -20.771  0.00  0.00    +0.024 C 
ATOM     20  C   UNL     1      34.188 -20.742 -20.217  0.00  0.00    +0.143 C 
BRANCH  20  23
ATOM     21  O   UNL     1      34.625 -22.809 -19.294  0.00  0.00    -0.126 OA
ATOM     22  O   UNL     1      32.626 -21.945 -19.021  0.00  0.00    -0.126 OA
ATOM     23  N   UNL     1      33.794 -21.887 -19.475  0.00  0.00    +0.058 N 
ENDBRANCH  20  23
ENDBRANCH   1  15
BRANCH   1  24
ATOM     24  C   UNL     1      35.334 -17.494 -23.990  0.00  0.00    +0.074 C 
BRANCH  24  26
ATOM     25  O   UNL     1      35.309 -19.914 -24.115  0.00  0.00    -0.296 OA
ATOM     26  C   UNL     1      34.759 -18.847 -24.387  0.00  0.00    +0.152 C 
ATOM     27  C   UNL     1      33.482 -18.818 -25.187  0.00  0.00    +0.072 C 
ENDBRANCH  24  26
ENDBRANCH   1  24
TORSDOF 6
ENDMDL
MODEL 6
REMARK VINA RESULT:      -8.9      2.395      5.160
REMARK  Name = 54676537
REMARK  6 active torsions:
REMARK  status: ('A' for Active; 'I' for Inactive)
REMARK    1  A    between atoms: C_1  and  C_4
REMARK    2  A    between atoms: C_1  and  C_15
REMARK    3  A    between atoms: C_1  and  C_24
REMARK    4  A    between atoms: C_5  and  O_13
REMARK    5  A    between atoms: C_20  and  N_23
REMARK    6  A    between atoms: C_24  and  C_26
REMARK                            x       y       z     vdW  Elec       q    Type
REMARK                         _______ _______ _______ _____ _____    ______ ____
ROOT
ATOM      1  C   UNL     1      34.786 -23.826 -14.751  0.00  0.00    +0.061 C 
ENDROOT
BRANCH   1   4
ATOM      2  O   UNL     1      37.101 -21.524 -16.666  0.00  0.00    -0.421 OA
ATOM      3  O   UNL     1      37.102 -22.314 -14.533  0.00  0.00    -0.245 OA
ATOM      4  C   UNL     1      35.312 -23.042 -15.922  0.00  0.00    +0.092 A 
ATOM      5  C   UNL     1      34.748 -22.987 -17.145  0.00  0.00    +0.139 A 
ATOM      6  C   UNL     1      35.345 -22.179 -18.212  0.00  0.00    +0.068 A 
ATOM      7  C   UNL     1      36.561 -22.281 -15.634  0.00  0.00    +0.345 A 
ATOM      8  C   UNL     1      36.507 -21.468 -17.938  0.00  0.00    +0.152 A 
ATOM      9  C   UNL     1      34.804 -22.080 -19.501  0.00  0.00    +0.006 C 
ATOM     10  C   UNL     1      37.137 -20.673 -18.897  0.00  0.00    +0.038 C 
ATOM     11  C   UNL     1      35.423 -21.289 -20.474  0.00  0.00    +0.000 C 
ATOM     12  C   UNL     1      36.589 -20.585 -20.173  0.00  0.00    +0.003 C 
BRANCH   5  13
ATOM     13  O   UNL     1      33.602 -23.659 -17.509  0.00  0.00    -0.506 OA
ATOM     14  H   UNL     1      32.804 -23.513 -17.038  0.00  0.00    +0.292 HD
ENDBRANCH   5  13
ENDBRANCH   1   4
BRANCH   1  15
ATOM     15  C   UNL     1      33.267 -23.902 -14.780  0.00  0.00    -0.018 C 
ATOM     16  C   UNL     1      32.627 -25.129 -14.603  0.00  0.00    -0.002 C 
ATOM     17  C   UNL     1      32.514 -22.746 -14.984  0.00  0.00    -0.002 C 
ATOM     18  C   UNL     1      31.234 -25.200 -14.630  0.00  0.00    +0.024 C 
ATOM     19  C   UNL     1      31.121 -22.816 -15.012  0.00  0.00    +0.024 C 
ATOM     20  C   UNL     1      30.481 -24.044 -14.834  0.00  0.00    +0.143 C 
BRANCH  20  23
ATOM     21  O   UNL     1      28.415 -23.155 -15.341  0.00  0.00    -0.126 OA
ATOM     22  O   UNL     1      28.497 -25.138 -14.405  0.00  0.00    -0.126 OA
ATOM     23  N   UNL     1      29.063 -24.115 -14.861  0.00  0.00    +0.058 N 
ENDBRANCH  20  23
ENDBRANCH   1  15
BRANCH   1  24
ATOM     24  C   UNL     1      35.450 -25.215 -14.684  0.00  0.00    +0.074 C 
BRANCH  24  26
ATOM     25  O   UNL     1      37.270 -26.187 -13.414  0.00  0.00    -0.296 OA
ATOM     26  C   UNL     1      36.302 -25.428 -13.440  0.00  0.00    +0.152 C 
ATOM     27  C   UNL     1      35.867 -24.686 -12.203  0.00  0.00    +0.072 C 
ENDBRANCH  24  26
ENDBRANCH   1  24
TORSDOF 6
ENDMDL
MODEL 7
REMARK VINA RESULT:      -8.9     13.761     17.160
REMARK  Name = 54676537
REMARK  6 active torsions:
REMARK  status: ('A' for Active; 'I' for Inactive)
REMARK    1  A    between atoms: C_1  and  C_4
REMARK    2  A    between atoms: C_1  and  C_15
REMARK    3  A    between atoms: C_1  and  C_24
REMARK    4  A    between atoms: C_5  and  O_13
REMARK    5  A    between atoms: C_20  and  N_23
REMARK    6  A    between atoms: C_24  and  C_26
REMARK                            x       y       z     vdW  Elec       q    Type
REMARK                         _______ _______ _______ _____ _____    ______ ____
ROOT
ATOM      1  C   UNL     1      32.391  -8.612 -22.513  0.00  0.00    +0.061 C 
ENDROOT
BRANCH   1   4
ATOM      2  O   UNL     1      31.541  -6.022 -25.140  0.00  0.00    -0.421 OA
ATOM      3  O   UNL     1      30.290  -7.201 -23.651  0.00  0.00    -0.245 OA
ATOM      4  C   UNL     1      32.633  -7.614 -23.613  0.00  0.00    +0.092 A 
ATOM      5  C   UNL     1      33.834  -7.309 -24.143  0.00  0.00    +0.139 A 
ATOM      6  C   UNL     1      33.950  -6.325 -25.223  0.00  0.00    +0.068 A 
ATOM      7  C   UNL     1      31.397  -6.949 -24.116  0.00  0.00    +0.345 A 
ATOM      8  C   UNL     1      32.795  -5.711 -25.692  0.00  0.00    +0.152 A 
ATOM      9  C   UNL     1      35.169  -5.968 -25.816  0.00  0.00    +0.006 C 
ATOM     10  C   UNL     1      32.818  -4.765 -26.718  0.00  0.00    +0.038 C 
ATOM     11  C   UNL     1      35.211  -5.022 -26.845  0.00  0.00    +0.000 C 
ATOM     12  C   UNL     1      34.037  -4.421 -27.296  0.00  0.00    +0.003 C 
BRANCH   5  13
ATOM     13  O   UNL     1      35.030  -7.863 -23.742  0.00  0.00    -0.506 OA
ATOM     14  H   UNL     1      35.221  -8.759 -23.940  0.00  0.00    +0.292 HD
ENDBRANCH   5  13
ENDBRANCH   1   4
BRANCH   1  15
ATOM     15  C   UNL     1      32.695 -10.027 -22.980  0.00  0.00    -0.018 C 
ATOM     16  C   UNL     1      33.546 -10.235 -24.066  0.00  0.00    -0.002 C 
ATOM     17  C   UNL     1      32.125 -11.117 -22.322  0.00  0.00    -0.002 C 
ATOM     18  C   UNL     1      33.826 -11.532 -24.494  0.00  0.00    +0.024 C 
ATOM     19  C   UNL     1      32.404 -12.415 -22.751  0.00  0.00    +0.024 C 
ATOM     20  C   UNL     1      33.255 -12.622 -23.837  0.00  0.00    +0.143 C 
BRANCH  20  23
ATOM     21  O   UNL     1      32.948 -14.392 -25.284  0.00  0.00    -0.126 OA
ATOM     22  O   UNL     1      34.377 -14.626 -23.634  0.00  0.00    -0.126 OA
ATOM     23  N   UNL     1      33.540 -13.944 -24.272  0.00  0.00    +0.058 N 
ENDBRANCH  20  23
ENDBRANCH   1  15
BRANCH   1  24
ATOM     24  C   UNL     1      33.175  -8.222 -21.244  0.00  0.00    +0.074 C 
BRANCH  24  26
ATOM     25  O   UNL     1      31.970  -8.059 -19.149  0.00  0.00    -0.296 OA
ATOM     26  C   UNL     1      32.328  -7.517 -20.193  0.00  0.00    +0.152 C 
ATOM     27  C   UNL     1      31.899  -6.110 -20.520  0.00  0.00    +0.072 C 
ENDBRANCH  24  26
ENDBRANCH   1  24
TORSDOF 6
ENDMDL
MODEL 8
REMARK VINA RESULT:      -8.8     10.432     13.776
REMARK  Name = 54676537
REMARK  6 active torsions:
REMARK  status: ('A' for Active; 'I' for Inactive)
REMARK    1  A    between atoms: C_1  and  C_4
REMARK    2  A    between atoms: C_1  and  C_15
REMARK    3  A    between atoms: C_1  and  C_24
REMARK    4  A    between atoms: C_5  and  O_13
REMARK    5  A    between atoms: C_20  and  N_23
REMARK    6  A    between atoms: C_24  and  C_26
REMARK                            x       y       z     vdW  Elec       q    Type
REMARK                         _______ _______ _______ _____ _____    ______ ____
ROOT
ATOM      1  C   UNL     1      33.339 -12.560 -24.407  0.00  0.00    +0.061 C 
ENDROOT
BRANCH   1   4
ATOM      2  O   UNL     1      33.392 -16.136 -25.647  0.00  0.00    -0.421 OA
ATOM      3  O   UNL     1      32.468 -14.219 -26.452  0.00  0.00    -0.245 OA
ATOM      4  C   UNL     1      33.679 -14.026 -24.412  0.00  0.00    +0.092 A 
ATOM      5  C   UNL     1      34.405 -14.665 -23.475  0.00  0.00    +0.139 A 
ATOM      6  C   UNL     1      34.665 -16.103 -23.578  0.00  0.00    +0.068 A 
ATOM      7  C   UNL     1      33.129 -14.774 -25.579  0.00  0.00    +0.345 A 
ATOM      8  C   UNL     1      34.147 -16.798 -24.664  0.00  0.00    +0.152 A 
ATOM      9  C   UNL     1      35.411 -16.824 -22.635  0.00  0.00    +0.006 C 
ATOM     10  C   UNL     1      34.347 -18.169 -24.837  0.00  0.00    +0.038 C 
ATOM     11  C   UNL     1      35.621 -18.198 -22.791  0.00  0.00    +0.000 C 
ATOM     12  C   UNL     1      35.089 -18.870 -23.891  0.00  0.00    +0.003 C 
BRANCH   5  13
ATOM     13  O   UNL     1      34.961 -14.061 -22.368  0.00  0.00    -0.506 OA
ATOM     14  H   UNL     1      35.445 -13.265 -22.463  0.00  0.00    +0.292 HD
ENDBRANCH   5  13
ENDBRANCH   1   4
BRANCH   1  15
ATOM     15  C   UNL     1      32.704 -12.150 -23.087  0.00  0.00    -0.018 C 
ATOM     16  C   UNL     1      32.574 -10.798 -22.766  0.00  0.00    -0.002 C 
ATOM     17  C   UNL     1      32.250 -13.124 -22.199  0.00  0.00    -0.002 C 
ATOM     18  C   UNL     1      31.990 -10.422 -21.556  0.00  0.00    +0.024 C 
ATOM     19  C   UNL     1      31.667 -12.749 -20.988  0.00  0.00    +0.024 C 
ATOM     20  C   UNL     1      31.537 -11.396 -20.667  0.00  0.00    +0.143 C 
BRANCH  20  23
ATOM     21  O   UNL     1      31.653 -10.981 -18.402  0.00  0.00    -0.126 OA
ATOM     22  O   UNL     1      29.724 -10.718 -19.416  0.00  0.00    -0.126 OA
ATOM     23  N   UNL     1      30.943 -11.014 -19.436  0.00  0.00    +0.058 N 
ENDBRANCH  20  23
ENDBRANCH   1  15
BRANCH   1  24
ATOM     24  C   UNL     1      34.580 -11.714 -24.758  0.00  0.00    +0.074 C 
BRANCH  24  26
ATOM     25  O   UNL     1      34.003 -11.915 -27.102  0.00  0.00    -0.296 OA
ATOM     26  C   UNL     1      34.689 -11.372 -26.238  0.00  0.00    +0.152 C 
ATOM     27  C   UNL     1      35.732 -10.350 -26.608  0.00  0.00    +0.072 C 
ENDBRANCH  24  26
ENDBRANCH   1  24
TORSDOF 6
ENDMDL
MODEL 9
REMARK VINA RESULT:      -8.7      1.403      4.911
REMARK  Name = 54676537
REMARK  6 active torsions:
REMARK  status: ('A' for Active; 'I' for Inactive)
REMARK    1  A    between atoms: C_1  and  C_4
REMARK    2  A    between atoms: C_1  and  C_15
REMARK    3  A    between atoms: C_1  and  C_24
REMARK    4  A    between atoms: C_5  and  O_13
REMARK    5  A    between atoms: C_20  and  N_23
REMARK    6  A    between atoms: C_24  and  C_26
REMARK                            x       y       z     vdW  Elec       q    Type
REMARK                         _______ _______ _______ _____ _____    ______ ____
ROOT
ATOM      1  C   UNL     1      35.007 -22.632 -16.288  0.00  0.00    +0.061 C 
ENDROOT
BRANCH   1   4
ATOM      2  O   UNL     1      31.476 -23.425 -17.399  0.00  0.00    -0.421 OA
ATOM      3  O   UNL     1      33.350 -22.769 -18.509  0.00  0.00    -0.245 OA
ATOM      4  C   UNL     1      33.566 -23.047 -16.155  0.00  0.00    +0.092 A 
ATOM      5  C   UNL     1      32.949 -23.380 -15.005  0.00  0.00    +0.139 A 
ATOM      6  C   UNL     1      31.534 -23.758 -14.993  0.00  0.00    +0.068 A 
ATOM      7  C   UNL     1      32.816 -23.062 -17.444  0.00  0.00    +0.345 A 
ATOM      8  C   UNL     1      30.837 -23.767 -16.195  0.00  0.00    +0.152 A 
ATOM      9  C   UNL     1      30.837 -24.112 -13.829  0.00  0.00    +0.006 C 
ATOM     10  C   UNL     1      29.487 -24.114 -16.272  0.00  0.00    +0.038 C 
ATOM     11  C   UNL     1      29.484 -24.462 -13.887  0.00  0.00    +0.000 C 
ATOM     12  C   UNL     1      28.809 -24.463 -15.107  0.00  0.00    +0.003 C 
BRANCH   5  13
ATOM     13  O   UNL     1      33.558 -23.403 -13.769  0.00  0.00    -0.506 OA
ATOM     14  H   UNL     1      34.164 -22.728 -13.533  0.00  0.00    +0.292 HD
ENDBRANCH   5  13
ENDBRANCH   1   4
BRANCH   1  15
ATOM     15  C   UNL     1      35.904 -23.480 -15.399  0.00  0.00    -0.018 C 
ATOM     16  C   UNL     1      35.963 -24.861 -15.582  0.00  0.00    -0.002 C 
ATOM     17  C   UNL     1      36.669 -22.875 -14.401  0.00  0.00    -0.002 C 
ATOM     18  C   UNL     1      36.786 -25.638 -14.768  0.00  0.00    +0.024 C 
ATOM     19  C   UNL     1      37.492 -23.652 -13.586  0.00  0.00    +0.024 C 
ATOM     20  C   UNL     1      37.551 -25.035 -13.770  0.00  0.00    +0.143 C 
BRANCH  20  23
ATOM     21  O   UNL     1      39.511 -26.183 -13.374  0.00  0.00    -0.126 OA
ATOM     22  O   UNL     1      37.986 -26.144 -11.796  0.00  0.00    -0.126 OA
ATOM     23  N   UNL     1      38.389 -25.826 -12.940  0.00  0.00    +0.058 N 
ENDBRANCH  20  23
ENDBRANCH   1  15
BRANCH   1  24
ATOM     24  C   UNL     1      35.443 -22.652 -17.766  0.00  0.00    +0.074 C 
BRANCH  24  26
ATOM     25  O   UNL     1      37.118 -20.968 -17.288  0.00  0.00    -0.296 OA
ATOM     26  C   UNL     1      36.436 -21.555 -18.126  0.00  0.00    +0.152 C 
ATOM     27  C   UNL     1      36.512 -21.181 -19.584  0.00  0.00    +0.072 C 
ENDBRANCH  24  26
ENDBRANCH   1  24
TORSDOF 6
ENDMDL
