MODEL 1
REMARK VINA RESULT:      -8.9      0.000      0.000
REMARK  Name = 5287789
REMARK  4 active torsions:
REMARK  status: ('A' for Active; 'I' for Inactive)
REMARK    1  A    between atoms: C_4  and  N_11
REMARK    2  A    between atoms: C_4  and  C_17
REMARK    3  A    between atoms: C_6  and  C_16
REMARK    4  A    between atoms: C_17  and  C_18
REMARK                            x       y       z     vdW  Elec       q    Type
REMARK                         _______ _______ _______ _____ _____    ______ ____
ROOT
ATOM      1  O   UNL     1      33.791 -16.445 -24.597  0.00  0.00    -0.276 OA
ATOM      2  N   UNL     1      33.271 -15.024 -21.379  0.00  0.00    -0.202 NA
ATOM      3  N   UNL     1      33.447 -15.101 -22.763  0.00  0.00    -0.217 N 
ATOM      4  C   UNL     1      34.754 -17.199 -22.512  0.00  0.00    +0.029 C 
ATOM      5  C   UNL     1      34.500 -17.025 -21.007  0.00  0.00    +0.008 C 
ATOM      6  C   UNL     1      32.808 -13.976 -23.434  0.00  0.00    +0.158 C 
ATOM      7  C   UNL     1      34.395 -15.552 -20.626  0.00  0.00    +0.091 C 
ATOM      8  C   UNL     1      32.968 -13.624 -21.078  0.00  0.00    +0.094 C 
ATOM      9  C   UNL     1      32.161 -13.195 -22.303  0.00  0.00    +0.048 C 
ATOM     10  C   UNL     1      33.919 -16.244 -23.386  0.00  0.00    +0.220 C 
ENDROOT
BRANCH   4  11
ATOM     11  N   UNL     1      36.151 -16.850 -22.811  0.00  0.00    +0.389 N 
ATOM     12  H   UNL     1      36.583 -17.603 -23.346  0.00  0.00    -0.088 HD
ATOM     13  H   UNL     1      36.663 -16.716 -21.939  0.00  0.00    -0.088 HD
ATOM     14  H   UNL     1      36.177 -15.988 -23.356  0.00  0.00    -0.088 HD
ENDBRANCH   4  11
BRANCH   6  16
ATOM     15  O   UNL     1      33.915 -11.967 -24.150  0.00  0.00    -0.286 OA
ATOM     16  C   UNL     1      33.902 -13.192 -24.093  0.00  0.00    +0.228 C 
ENDBRANCH   6  16
BRANCH   4  17
ATOM     17  C   UNL     1      34.508 -18.655 -22.925  0.00  0.00    +0.015 C 
BRANCH  17  18
ATOM     18  C   UNL     1      34.455 -19.561 -21.726  0.00  0.00    -0.024 C 
ATOM     19  C   UNL     1      35.634 -20.077 -21.204  0.00  0.00    -0.004 C 
ATOM     20  C   UNL     1      33.228 -19.874 -21.156  0.00  0.00    -0.004 C 
ATOM     21  C   UNL     1      35.585 -20.918 -20.092  0.00  0.00    -0.000 C 
ATOM     22  C   UNL     1      33.178 -20.715 -20.045  0.00  0.00    -0.000 C 
ATOM     23  C   UNL     1      34.358 -21.238 -19.512  0.00  0.00    -0.000 C 
ENDBRANCH  17  18
ENDBRANCH   4  17
TORSDOF 4
ENDMDL
MODEL 2
REMARK VINA RESULT:      -8.3     10.058     12.143
REMARK  Name = 5287789
REMARK  4 active torsions:
REMARK  status: ('A' for Active; 'I' for Inactive)
REMARK    1  A    between atoms: C_4  and  N_11
REMARK    2  A    between atoms: C_4  and  C_17
REMARK    3  A    between atoms: C_6  and  C_16
REMARK    4  A    between atoms: C_17  and  C_18
REMARK                            x       y       z     vdW  Elec       q    Type
REMARK                         _______ _______ _______ _____ _____    ______ ____
ROOT
ATOM      1  O   UNL     1      35.317 -24.517 -16.094  0.00  0.00    -0.276 OA
ATOM      2  N   UNL     1      36.889 -24.771 -12.914  0.00  0.00    -0.202 NA
ATOM      3  N   UNL     1      36.553 -25.075 -14.236  0.00  0.00    -0.217 N 
ATOM      4  C   UNL     1      34.327 -24.008 -13.948  0.00  0.00    +0.029 C 
ATOM      5  C   UNL     1      34.795 -23.718 -12.514  0.00  0.00    +0.008 C 
ATOM      6  C   UNL     1      37.638 -25.785 -14.901  0.00  0.00    +0.158 C 
ATOM      7  C   UNL     1      35.751 -24.795 -12.011  0.00  0.00    +0.091 C 
ATOM      8  C   UNL     1      37.958 -25.697 -12.537  0.00  0.00    +0.094 C 
ATOM      9  C   UNL     1      38.729 -25.855 -13.846  0.00  0.00    +0.048 C 
ATOM     10  C   UNL     1      35.455 -24.514 -14.868  0.00  0.00    +0.220 C 
ENDROOT
BRANCH   4  11
ATOM     11  N   UNL     1      33.347 -25.104 -13.926  0.00  0.00    +0.389 N 
ATOM     12  H   UNL     1      32.749 -25.010 -13.105  0.00  0.00    -0.088 HD
ATOM     13  H   UNL     1      33.838 -25.999 -13.890  0.00  0.00    -0.088 HD
ATOM     14  H   UNL     1      32.775 -25.065 -14.770  0.00  0.00    -0.088 HD
ENDBRANCH   4  11
BRANCH   6  16
ATOM     15  O   UNL     1      36.748 -27.463 -16.372  0.00  0.00    -0.286 OA
ATOM     16  C   UNL     1      37.112 -27.145 -15.245  0.00  0.00    +0.228 C 
ENDBRANCH   6  16
BRANCH   4  17
ATOM     17  C   UNL     1      33.664 -22.763 -14.550  0.00  0.00    +0.015 C 
BRANCH  17  18
ATOM     18  C   UNL     1      32.230 -23.028 -14.911  0.00  0.00    -0.024 C 
ATOM     19  C   UNL     1      31.882 -23.216 -16.243  0.00  0.00    -0.004 C 
ATOM     20  C   UNL     1      31.268 -23.081 -13.910  0.00  0.00    -0.004 C 
ATOM     21  C   UNL     1      30.550 -23.461 -16.579  0.00  0.00    -0.000 C 
ATOM     22  C   UNL     1      29.937 -23.327 -14.246  0.00  0.00    -0.000 C 
ATOM     23  C   UNL     1      29.577 -23.517 -15.581  0.00  0.00    -0.000 C 
ENDBRANCH  17  18
ENDBRANCH   4  17
TORSDOF 4
ENDMDL
MODEL 3
REMARK VINA RESULT:      -8.3     10.061     12.160
REMARK  Name = 5287789
REMARK  4 active torsions:
REMARK  status: ('A' for Active; 'I' for Inactive)
REMARK    1  A    between atoms: C_4  and  N_11
REMARK    2  A    between atoms: C_4  and  C_17
REMARK    3  A    between atoms: C_6  and  C_16
REMARK    4  A    between atoms: C_17  and  C_18
REMARK                            x       y       z     vdW  Elec       q    Type
REMARK                         _______ _______ _______ _____ _____    ______ ____
ROOT
ATOM      1  O   UNL     1      35.315 -24.518 -16.090  0.00  0.00    -0.276 OA
ATOM      2  N   UNL     1      36.882 -24.774 -12.908  0.00  0.00    -0.202 NA
ATOM      3  N   UNL     1      36.548 -25.077 -14.231  0.00  0.00    -0.217 N 
ATOM      4  C   UNL     1      34.322 -24.009 -13.945  0.00  0.00    +0.029 C 
ATOM      5  C   UNL     1      34.788 -23.721 -12.509  0.00  0.00    +0.008 C 
ATOM      6  C   UNL     1      37.633 -25.786 -14.895  0.00  0.00    +0.158 C 
ATOM      7  C   UNL     1      35.744 -24.798 -12.006  0.00  0.00    +0.091 C 
ATOM      8  C   UNL     1      37.951 -25.701 -12.530  0.00  0.00    +0.094 C 
ATOM      9  C   UNL     1      38.724 -25.858 -13.839  0.00  0.00    +0.048 C 
ATOM     10  C   UNL     1      35.451 -24.515 -14.863  0.00  0.00    +0.220 C 
ENDROOT
BRANCH   4  11
ATOM     11  N   UNL     1      33.342 -25.105 -13.925  0.00  0.00    +0.389 N 
ATOM     12  H   UNL     1      32.518 -24.835 -14.462  0.00  0.00    -0.088 HD
ATOM     13  H   UNL     1      33.070 -25.302 -12.961  0.00  0.00    -0.088 HD
ATOM     14  H   UNL     1      33.757 -25.940 -14.337  0.00  0.00    -0.088 HD
ENDBRANCH   4  11
BRANCH   6  16
ATOM     15  O   UNL     1      36.743 -27.463 -16.368  0.00  0.00    -0.286 OA
ATOM     16  C   UNL     1      37.108 -27.146 -15.241  0.00  0.00    +0.228 C 
ENDBRANCH   6  16
BRANCH   4  17
ATOM     17  C   UNL     1      33.661 -22.764 -14.546  0.00  0.00    +0.015 C 
BRANCH  17  18
ATOM     18  C   UNL     1      32.226 -23.028 -14.908  0.00  0.00    -0.024 C 
ATOM     19  C   UNL     1      31.265 -23.084 -13.907  0.00  0.00    -0.004 C 
ATOM     20  C   UNL     1      31.878 -23.215 -16.240  0.00  0.00    -0.004 C 
ATOM     21  C   UNL     1      29.933 -23.330 -14.243  0.00  0.00    -0.000 C 
ATOM     22  C   UNL     1      30.547 -23.461 -16.577  0.00  0.00    -0.000 C 
ATOM     23  C   UNL     1      29.574 -23.518 -15.578  0.00  0.00    -0.000 C 
ENDBRANCH  17  18
ENDBRANCH   4  17
TORSDOF 4
ENDMDL
MODEL 4
REMARK VINA RESULT:      -8.2      9.613     11.342
REMARK  Name = 5287789
REMARK  4 active torsions:
REMARK  status: ('A' for Active; 'I' for Inactive)
REMARK    1  A    between atoms: C_4  and  N_11
REMARK    2  A    between atoms: C_4  and  C_17
REMARK    3  A    between atoms: C_6  and  C_16
REMARK    4  A    between atoms: C_17  and  C_18
REMARK                            x       y       z     vdW  Elec       q    Type
REMARK                         _______ _______ _______ _____ _____    ______ ____
ROOT
ATOM      1  O   UNL     1      33.635 -24.095 -12.717  0.00  0.00    -0.276 OA
ATOM      2  N   UNL     1      32.504 -22.981 -15.899  0.00  0.00    -0.202 NA
ATOM      3  N   UNL     1      32.495 -23.621 -14.657  0.00  0.00    -0.217 N 
ATOM      4  C   UNL     1      34.969 -23.842 -14.718  0.00  0.00    +0.029 C 
ATOM      5  C   UNL     1      34.871 -23.127 -16.074  0.00  0.00    +0.008 C 
ATOM      6  C   UNL     1      31.136 -23.756 -14.149  0.00  0.00    +0.158 C 
ATOM      7  C   UNL     1      33.558 -23.450 -16.781  0.00  0.00    +0.091 C 
ATOM      8  C   UNL     1      31.159 -23.139 -16.456  0.00  0.00    +0.094 C 
ATOM      9  C   UNL     1      30.281 -23.078 -15.207  0.00  0.00    +0.048 C 
ATOM     10  C   UNL     1      33.650 -23.824 -13.921  0.00  0.00    +0.220 C 
ENDROOT
BRANCH   4  11
ATOM     11  N   UNL     1      35.247 -25.269 -14.942  0.00  0.00    +0.389 N 
ATOM     12  H   UNL     1      34.612 -25.633 -15.652  0.00  0.00    -0.088 HD
ATOM     13  H   UNL     1      35.113 -25.783 -14.070  0.00  0.00    -0.088 HD
ATOM     14  H   UNL     1      36.210 -25.382 -15.257  0.00  0.00    -0.088 HD
ENDBRANCH   4  11
BRANCH   6  16
ATOM     15  O   UNL     1      30.134 -25.820 -14.865  0.00  0.00    -0.286 OA
ATOM     16  C   UNL     1      30.852 -25.225 -14.068  0.00  0.00    +0.228 C 
ENDBRANCH   6  16
BRANCH   4  17
ATOM     17  C   UNL     1      36.106 -23.240 -13.884  0.00  0.00    +0.015 C 
BRANCH  17  18
ATOM     18  C   UNL     1      37.328 -24.116 -13.914  0.00  0.00    -0.024 C 
ATOM     19  C   UNL     1      37.610 -24.937 -12.830  0.00  0.00    -0.004 C 
ATOM     20  C   UNL     1      38.162 -24.091 -15.025  0.00  0.00    -0.004 C 
ATOM     21  C   UNL     1      38.744 -25.749 -12.857  0.00  0.00    -0.000 C 
ATOM     22  C   UNL     1      39.296 -24.903 -15.052  0.00  0.00    -0.000 C 
ATOM     23  C   UNL     1      39.588 -25.732 -13.968  0.00  0.00    -0.000 C 
ENDBRANCH  17  18
ENDBRANCH   4  17
TORSDOF 4
ENDMDL
MODEL 5
REMARK VINA RESULT:      -8.1      1.881      2.890
REMARK  Name = 5287789
REMARK  4 active torsions:
REMARK  status: ('A' for Active; 'I' for Inactive)
REMARK    1  A    between atoms: C_4  and  N_11
REMARK    2  A    between atoms: C_4  and  C_17
REMARK    3  A    between atoms: C_6  and  C_16
REMARK    4  A    between atoms: C_17  and  C_18
REMARK                            x       y       z     vdW  Elec       q    Type
REMARK                         _______ _______ _______ _____ _____    ______ ____
ROOT
ATOM      1  O   UNL     1      35.097 -16.390 -20.280  0.00  0.00    -0.276 OA
ATOM      2  N   UNL     1      34.667 -15.863 -23.770  0.00  0.00    -0.202 NA
ATOM      3  N   UNL     1      34.508 -15.696 -22.391  0.00  0.00    -0.217 N 
ATOM      4  C   UNL     1      35.082 -18.083 -22.006  0.00  0.00    +0.029 C 
ATOM      5  C   UNL     1      35.235 -18.159 -23.533  0.00  0.00    +0.008 C 
ATOM      6  C   UNL     1      34.123 -14.327 -22.072  0.00  0.00    +0.158 C 
ATOM      7  C   UNL     1      34.294 -17.187 -24.236  0.00  0.00    +0.091 C 
ATOM      8  C   UNL     1      33.912 -14.782 -24.406  0.00  0.00    +0.094 C 
ATOM      9  C   UNL     1      34.101 -13.629 -23.421  0.00  0.00    +0.048 C 
ATOM     10  C   UNL     1      34.942 -16.642 -21.478  0.00  0.00    +0.220 C 
ENDROOT
BRANCH   4  11
ATOM     11  N   UNL     1      33.831 -18.746 -21.610  0.00  0.00    +0.389 N 
ATOM     12  H   UNL     1      33.988 -19.750 -21.529  0.00  0.00    -0.088 HD
ATOM     13  H   UNL     1      33.114 -18.569 -22.315  0.00  0.00    -0.088 HD
ATOM     14  H   UNL     1      33.521 -18.378 -20.711  0.00  0.00    -0.088 HD
ENDBRANCH   4  11
BRANCH   6  16
ATOM     15  O   UNL     1      32.071 -15.415 -21.456  0.00  0.00    -0.286 OA
ATOM     16  C   UNL     1      32.756 -14.398 -21.463  0.00  0.00    +0.228 C 
ENDBRANCH   6  16
BRANCH   4  17
ATOM     17  C   UNL     1      36.257 -18.791 -21.321  0.00  0.00    +0.015 C 
BRANCH  17  18
ATOM     18  C   UNL     1      35.783 -19.940 -20.474  0.00  0.00    -0.024 C 
ATOM     19  C   UNL     1      34.436 -20.279 -20.470  0.00  0.00    -0.004 C 
ATOM     20  C   UNL     1      36.698 -20.648 -19.705  0.00  0.00    -0.004 C 
ATOM     21  C   UNL     1      33.997 -21.344 -19.683  0.00  0.00    -0.000 C 
ATOM     22  C   UNL     1      36.259 -21.713 -18.919  0.00  0.00    -0.000 C 
ATOM     23  C   UNL     1      34.908 -22.062 -18.908  0.00  0.00    -0.000 C 
ENDBRANCH  17  18
ENDBRANCH   4  17
TORSDOF 4
ENDMDL
MODEL 6
REMARK VINA RESULT:      -8.0      9.886     11.528
REMARK  Name = 5287789
REMARK  4 active torsions:
REMARK  status: ('A' for Active; 'I' for Inactive)
REMARK    1  A    between atoms: C_4  and  N_11
REMARK    2  A    between atoms: C_4  and  C_17
REMARK    3  A    between atoms: C_6  and  C_16
REMARK    4  A    between atoms: C_17  and  C_18
REMARK                            x       y       z     vdW  Elec       q    Type
REMARK                         _______ _______ _______ _____ _____    ______ ____
ROOT
ATOM      1  O   UNL     1      33.995 -24.673 -12.394  0.00  0.00    -0.276 OA
ATOM      2  N   UNL     1      35.643 -23.917 -15.453  0.00  0.00    -0.202 NA
ATOM      3  N   UNL     1      35.431 -24.048 -14.078  0.00  0.00    -0.217 N 
ATOM      4  C   UNL     1      32.981 -23.783 -14.401  0.00  0.00    +0.029 C 
ATOM      5  C   UNL     1      33.321 -23.657 -15.894  0.00  0.00    +0.008 C 
ATOM      6  C   UNL     1      36.691 -24.232 -13.370  0.00  0.00    +0.158 C 
ATOM      7  C   UNL     1      34.695 -23.028 -16.101  0.00  0.00    +0.091 C 
ATOM      8  C   UNL     1      37.040 -23.509 -15.618  0.00  0.00    +0.094 C 
ATOM      9  C   UNL     1      37.733 -24.250 -14.476  0.00  0.00    +0.048 C 
ATOM     10  C   UNL     1      34.171 -24.252 -13.541  0.00  0.00    +0.220 C 
ENDROOT
BRANCH   4  11
ATOM     11  N   UNL     1      32.639 -22.457 -13.867  0.00  0.00    +0.389 N 
ATOM     12  H   UNL     1      32.065 -22.563 -13.031  0.00  0.00    -0.088 HD
ATOM     13  H   UNL     1      32.118 -21.931 -14.571  0.00  0.00    -0.088 HD
ATOM     14  H   UNL     1      33.494 -21.954 -13.631  0.00  0.00    -0.088 HD
ENDBRANCH   4  11
BRANCH   6  16
ATOM     15  O   UNL     1      37.939 -22.684 -12.021  0.00  0.00    -0.286 OA
ATOM     16  C   UNL     1      36.856 -23.044 -12.473  0.00  0.00    +0.228 C 
ENDBRANCH   6  16
BRANCH   4  17
ATOM     17  C   UNL     1      31.782 -24.719 -14.209  0.00  0.00    +0.015 C 
BRANCH  17  18
ATOM     18  C   UNL     1      30.561 -24.194 -14.913  0.00  0.00    -0.024 C 
ATOM     19  C   UNL     1      29.889 -25.005 -15.818  0.00  0.00    -0.004 C 
ATOM     20  C   UNL     1      30.121 -22.902 -14.651  0.00  0.00    -0.004 C 
ATOM     21  C   UNL     1      28.757 -24.517 -16.471  0.00  0.00    -0.000 C 
ATOM     22  C   UNL     1      28.989 -22.415 -15.304  0.00  0.00    -0.000 C 
ATOM     23  C   UNL     1      28.306 -23.223 -16.214  0.00  0.00    -0.000 C 
ENDBRANCH  17  18
ENDBRANCH   4  17
TORSDOF 4
ENDMDL
MODEL 7
REMARK VINA RESULT:      -7.7      5.089      9.817
REMARK  Name = 5287789
REMARK  4 active torsions:
REMARK  status: ('A' for Active; 'I' for Inactive)
REMARK    1  A    between atoms: C_4  and  N_11
REMARK    2  A    between atoms: C_4  and  C_17
REMARK    3  A    between atoms: C_6  and  C_16
REMARK    4  A    between atoms: C_17  and  C_18
REMARK                            x       y       z     vdW  Elec       q    Type
REMARK                         _______ _______ _______ _____ _____    ______ ____
ROOT
ATOM      1  O   UNL     1      34.409  -9.807 -24.407  0.00  0.00    -0.276 OA
ATOM      2  N   UNL     1      32.545 -12.009 -22.329  0.00  0.00    -0.202 NA
ATOM      3  N   UNL     1      33.266 -11.549 -23.433  0.00  0.00    -0.217 N 
ATOM      4  C   UNL     1      32.573  -9.211 -22.950  0.00  0.00    +0.029 C 
ATOM      5  C   UNL     1      31.817  -9.818 -21.758  0.00  0.00    +0.008 C 
ATOM      6  C   UNL     1      33.915 -12.652 -24.130  0.00  0.00    +0.158 C 
ATOM      7  C   UNL     1      31.344 -11.236 -22.062  0.00  0.00    +0.091 C 
ATOM      8  C   UNL     1      32.288 -13.431 -22.566  0.00  0.00    +0.094 C 
ATOM      9  C   UNL     1      33.553 -13.872 -23.300  0.00  0.00    +0.048 C 
ATOM     10  C   UNL     1      33.533 -10.204 -23.634  0.00  0.00    +0.220 C 
ENDROOT
BRANCH   4  11
ATOM     11  N   UNL     1      31.610  -8.845 -23.999  0.00  0.00    +0.389 N 
ATOM     12  H   UNL     1      31.365  -9.673 -24.541  0.00  0.00    -0.088 HD
ATOM     13  H   UNL     1      32.028  -8.146 -24.615  0.00  0.00    -0.088 HD
ATOM     14  H   UNL     1      30.770  -8.459 -23.569  0.00  0.00    -0.088 HD
ENDBRANCH   4  11
BRANCH   6  16
ATOM     15  O   UNL     1      33.043 -13.763 -26.074  0.00  0.00    -0.286 OA
ATOM     16  C   UNL     1      33.306 -12.712 -25.498  0.00  0.00    +0.228 C 
ENDBRANCH   6  16
BRANCH   4  17
ATOM     17  C   UNL     1      33.330  -7.953 -22.510  0.00  0.00    +0.015 C 
BRANCH  17  18
ATOM     18  C   UNL     1      32.676  -6.708 -23.042  0.00  0.00    -0.024 C 
ATOM     19  C   UNL     1      31.805  -5.992 -22.231  0.00  0.00    -0.004 C 
ATOM     20  C   UNL     1      32.949  -6.289 -24.338  0.00  0.00    -0.004 C 
ATOM     21  C   UNL     1      31.197  -4.837 -22.724  0.00  0.00    -0.000 C 
ATOM     22  C   UNL     1      32.342  -5.134 -24.831  0.00  0.00    -0.000 C 
ATOM     23  C   UNL     1      31.465  -4.408 -24.024  0.00  0.00    -0.000 C 
ENDBRANCH  17  18
ENDBRANCH   4  17
TORSDOF 4
ENDMDL
MODEL 8
REMARK VINA RESULT:      -7.7      7.879     11.273
REMARK  Name = 5287789
REMARK  4 active torsions:
REMARK  status: ('A' for Active; 'I' for Inactive)
REMARK    1  A    between atoms: C_4  and  N_11
REMARK    2  A    between atoms: C_4  and  C_17
REMARK    3  A    between atoms: C_6  and  C_16
REMARK    4  A    between atoms: C_17  and  C_18
REMARK                            x       y       z     vdW  Elec       q    Type
REMARK                         _______ _______ _______ _____ _____    ______ ____
ROOT
ATOM      1  O   UNL     1      34.054 -24.853 -14.245  0.00  0.00    -0.276 OA
ATOM      2  N   UNL     1      37.579 -24.428 -14.434  0.00  0.00    -0.202 NA
ATOM      3  N   UNL     1      36.317 -24.666 -13.883  0.00  0.00    -0.217 N 
ATOM      4  C   UNL     1      35.249 -23.304 -15.666  0.00  0.00    +0.029 C 
ATOM      5  C   UNL     1      36.678 -23.107 -16.193  0.00  0.00    +0.008 C 
ATOM      6  C   UNL     1      36.416 -25.496 -12.689  0.00  0.00    +0.158 C 
ATOM      7  C   UNL     1      37.698 -23.123 -15.059  0.00  0.00    +0.091 C 
ATOM      8  C   UNL     1      38.548 -24.656 -13.360  0.00  0.00    +0.094 C 
ATOM      9  C   UNL     1      37.902 -25.796 -12.574  0.00  0.00    +0.048 C 
ATOM     10  C   UNL     1      35.147 -24.377 -14.565  0.00  0.00    +0.220 C 
ENDROOT
BRANCH   4  11
ATOM     11  N   UNL     1      34.796 -22.064 -15.018  0.00  0.00    +0.389 N 
ATOM     12  H   UNL     1      34.796 -21.304 -15.698  0.00  0.00    -0.088 HD
ATOM     13  H   UNL     1      35.426 -21.832 -14.249  0.00  0.00    -0.088 HD
ATOM     14  H   UNL     1      33.852 -22.195 -14.655  0.00  0.00    -0.088 HD
ENDBRANCH   4  11
BRANCH   6  16
ATOM     15  O   UNL     1      35.269 -25.107 -10.614  0.00  0.00    -0.286 OA
ATOM     16  C   UNL     1      35.931 -24.659 -11.545  0.00  0.00    +0.228 C 
ENDBRANCH   6  16
BRANCH   4  17
ATOM     17  C   UNL     1      34.299 -23.634 -16.823  0.00  0.00    +0.015 C 
BRANCH  17  18
ATOM     18  C   UNL     1      34.421 -22.628 -17.934  0.00  0.00    -0.024 C 
ATOM     19  C   UNL     1      33.277 -22.176 -18.579  0.00  0.00    -0.004 C 
ATOM     20  C   UNL     1      35.677 -22.162 -18.303  0.00  0.00    -0.004 C 
ATOM     21  C   UNL     1      33.390 -21.243 -19.610  0.00  0.00    -0.000 C 
ATOM     22  C   UNL     1      35.791 -21.229 -19.333  0.00  0.00    -0.000 C 
ATOM     23  C   UNL     1      34.647 -20.769 -19.987  0.00  0.00    -0.000 C 
ENDBRANCH  17  18
ENDBRANCH   4  17
TORSDOF 4
ENDMDL
MODEL 9
REMARK VINA RESULT:      -7.6      9.450     10.726
REMARK  Name = 5287789
REMARK  4 active torsions:
REMARK  status: ('A' for Active; 'I' for Inactive)
REMARK    1  A    between atoms: C_4  and  N_11
REMARK    2  A    between atoms: C_4  and  C_17
REMARK    3  A    between atoms: C_6  and  C_16
REMARK    4  A    between atoms: C_17  and  C_18
REMARK                            x       y       z     vdW  Elec       q    Type
REMARK                         _______ _______ _______ _____ _____    ______ ____
ROOT
ATOM      1  O   UNL     1      31.816 -22.664 -17.232  0.00  0.00    -0.276 OA
ATOM      2  N   UNL     1      30.408 -25.046 -14.999  0.00  0.00    -0.202 NA
ATOM      3  N   UNL     1      30.485 -23.967 -15.883  0.00  0.00    -0.217 N 
ATOM      4  C   UNL     1      32.858 -23.581 -15.252  0.00  0.00    +0.029 C 
ATOM      5  C   UNL     1      32.670 -24.784 -14.315  0.00  0.00    +0.008 C 
ATOM      6  C   UNL     1      29.213 -23.755 -16.561  0.00  0.00    +0.158 C 
ATOM      7  C   UNL     1      31.233 -24.882 -13.815  0.00  0.00    +0.091 C 
ATOM      8  C   UNL     1      28.987 -25.237 -14.704  0.00  0.00    +0.094 C 
ATOM      9  C   UNL     1      28.326 -24.869 -16.031  0.00  0.00    +0.048 C 
ATOM     10  C   UNL     1      31.692 -23.390 -16.242  0.00  0.00    +0.220 C 
ENDROOT
BRANCH   4  11
ATOM     11  N   UNL     1      32.874 -22.345 -14.457  0.00  0.00    +0.389 N 
ATOM     12  H   UNL     1      32.732 -22.571 -13.472  0.00  0.00    -0.088 HD
ATOM     13  H   UNL     1      32.128 -21.725 -14.774  0.00  0.00    -0.088 HD
ATOM     14  H   UNL     1      33.774 -21.878 -14.571  0.00  0.00    -0.088 HD
ENDBRANCH   4  11
BRANCH   6  16
ATOM     15  O   UNL     1      27.965 -21.718 -16.816  0.00  0.00    -0.286 OA
ATOM     16  C   UNL     1      28.721 -22.405 -16.137  0.00  0.00    +0.228 C 
ENDBRANCH   6  16
BRANCH   4  17
ATOM     17  C   UNL     1      34.186 -23.702 -16.008  0.00  0.00    +0.015 C 
BRANCH  17  18
ATOM     18  C   UNL     1      35.304 -24.106 -15.087  0.00  0.00    -0.024 C 
ATOM     19  C   UNL     1      35.865 -23.164 -14.234  0.00  0.00    -0.004 C 
ATOM     20  C   UNL     1      35.764 -25.417 -15.100  0.00  0.00    -0.004 C 
ATOM     21  C   UNL     1      36.902 -23.538 -13.380  0.00  0.00    -0.000 C 
ATOM     22  C   UNL     1      36.801 -25.792 -14.246  0.00  0.00    -0.000 C 
ATOM     23  C   UNL     1      37.370 -24.852 -13.386  0.00  0.00    -0.000 C 
ENDBRANCH  17  18
ENDBRANCH   4  17
TORSDOF 4
ENDMDL
