MODEL 1
REMARK VINA RESULT:     -10.8      0.000      0.000
REMARK  Name = 446242
REMARK  5 active torsions:
REMARK  status: ('A' for Active; 'I' for Inactive)
REMARK    1  A    between atoms: N_2  and  C_17
REMARK    2  A    between atoms: C_3  and  C_5
REMARK    3  A    between atoms: C_6  and  S_11
REMARK    4  A    between atoms: S_11  and  N_14
REMARK    5  A    between atoms: C_17  and  C_21
REMARK                            x       y       z     vdW  Elec       q    Type
REMARK                         _______ _______ _______ _____ _____    ______ ____
ROOT
ATOM      1  O   UNL     1      36.781 -18.305 -22.174  0.00  0.00    -0.270 OA
ATOM      2  N   UNL     1      34.619 -17.475 -22.308  0.00  0.00    -0.297 N 
ATOM      3  C   UNL     1      35.578 -18.394 -21.866  0.00  0.00    +0.246 C 
ATOM      4  H   UNL     1      33.685 -17.605 -22.027  0.00  0.00    +0.150 HD
ENDROOT
BRANCH   3   5
ATOM      5  C   UNL     1      35.107 -19.494 -21.040  0.00  0.00    +0.053 C 
ATOM      6  C   UNL     1      34.202 -21.603 -19.454  0.00  0.00    +0.122 C 
ATOM      7  C   UNL     1      33.738 -19.699 -20.868  0.00  0.00    +0.006 C 
ATOM      8  C   UNL     1      36.023 -20.342 -20.419  0.00  0.00    +0.006 C 
ATOM      9  C   UNL     1      33.285 -20.754 -20.075  0.00  0.00    +0.020 C 
ATOM     10  C   UNL     1      35.570 -21.398 -19.627  0.00  0.00    +0.020 C 
BRANCH   6  11
ATOM     11  S   UNL     1      33.636 -22.924 -18.464  0.00  0.00    +0.057 S 
ATOM     12  O   UNL     1      32.320 -22.578 -17.943  0.00  0.00    -0.153 OA
ATOM     13  O   UNL     1      33.816 -24.166 -19.201  0.00  0.00    -0.153 OA
BRANCH  11  14
ATOM     14  N   UNL     1      34.766 -22.878 -17.182  0.00  0.00    -0.203 NA
ATOM     15  H   UNL     1      34.318 -23.194 -16.322  0.00  0.00    +0.144 HD
ATOM     16  H   UNL     1      35.101 -21.923 -17.061  0.00  0.00    +0.144 HD
ENDBRANCH  11  14
ENDBRANCH   6  11
ENDBRANCH   3   5
BRANCH   2  17
ATOM     17  C   UNL     1      34.927 -16.343 -23.153  0.00  0.00    +0.117 C 
BRANCH  17  21
ATOM     18  F   UNL     1      33.117 -11.952 -24.219  0.00  0.00    -0.202 F 
ATOM     19  F   UNL     1      32.177 -13.867 -19.991  0.00  0.00    -0.202 F 
ATOM     20  F   UNL     1      31.914 -11.805 -21.768  0.00  0.00    -0.199 F 
ATOM     21  C   UNL     1      34.123 -15.131 -22.783  0.00  0.00    +0.002 C 
ATOM     22  C   UNL     1      33.515 -15.064 -21.535  0.00  0.00    +0.029 C 
ATOM     23  C   UNL     1      33.994 -14.087 -23.692  0.00  0.00    +0.029 C 
ATOM     24  C   UNL     1      33.247 -12.961 -23.348  0.00  0.00    +0.169 C 
ATOM     25  C   UNL     1      32.768 -13.938 -21.191  0.00  0.00    +0.169 C 
ATOM     26  C   UNL     1      32.633 -12.886 -22.097  0.00  0.00    +0.195 C 
ENDBRANCH  17  21
ENDBRANCH   2  17
TORSDOF 5
ENDMDL
MODEL 2
REMARK VINA RESULT:     -10.7      0.159      2.000
REMARK  Name = 446242
REMARK  5 active torsions:
REMARK  status: ('A' for Active; 'I' for Inactive)
REMARK    1  A    between atoms: N_2  and  C_17
REMARK    2  A    between atoms: C_3  and  C_5
REMARK    3  A    between atoms: C_6  and  S_11
REMARK    4  A    between atoms: S_11  and  N_14
REMARK    5  A    between atoms: C_17  and  C_21
REMARK                            x       y       z     vdW  Elec       q    Type
REMARK                         _______ _______ _______ _____ _____    ______ ____
ROOT
ATOM      1  O   UNL     1      36.814 -18.287 -22.122  0.00  0.00    -0.270 OA
ATOM      2  N   UNL     1      34.625 -17.598 -22.455  0.00  0.00    -0.297 N 
ATOM      3  C   UNL     1      35.599 -18.438 -21.902  0.00  0.00    +0.246 C 
ATOM      4  H   UNL     1      33.681 -17.775 -22.240  0.00  0.00    +0.150 HD
ENDROOT
BRANCH   3   5
ATOM      5  C   UNL     1      35.130 -19.531 -21.065  0.00  0.00    +0.053 C 
ATOM      6  C   UNL     1      34.231 -21.629 -19.461  0.00  0.00    +0.122 C 
ATOM      7  C   UNL     1      36.049 -20.349 -20.408  0.00  0.00    +0.006 C 
ATOM      8  C   UNL     1      33.763 -19.762 -20.921  0.00  0.00    +0.006 C 
ATOM      9  C   UNL     1      35.600 -21.398 -19.605  0.00  0.00    +0.020 C 
ATOM     10  C   UNL     1      33.313 -20.810 -20.119  0.00  0.00    +0.020 C 
BRANCH   6  11
ATOM     11  S   UNL     1      33.668 -22.940 -18.455  0.00  0.00    +0.057 S 
ATOM     12  O   UNL     1      32.373 -22.571 -17.900  0.00  0.00    -0.153 OA
ATOM     13  O   UNL     1      33.808 -24.185 -19.196  0.00  0.00    -0.153 OA
BRANCH  11  14
ATOM     14  N   UNL     1      34.832 -22.913 -17.204  0.00  0.00    -0.203 NA
ATOM     15  H   UNL     1      35.741 -23.183 -17.579  0.00  0.00    +0.144 HD
ATOM     16  H   UNL     1      34.558 -23.568 -16.472  0.00  0.00    +0.144 HD
ENDBRANCH  11  14
ENDBRANCH   6  11
ENDBRANCH   3   5
BRANCH   2  17
ATOM     17  C   UNL     1      34.931 -16.485 -23.325  0.00  0.00    +0.117 C 
BRANCH  17  21
ATOM     18  F   UNL     1      32.322 -13.898 -20.132  0.00  0.00    -0.202 F 
ATOM     19  F   UNL     1      33.123 -12.105 -24.441  0.00  0.00    -0.202 F 
ATOM     20  F   UNL     1      32.012 -11.882 -21.953  0.00  0.00    -0.199 F 
ATOM     21  C   UNL     1      34.151 -15.256 -22.959  0.00  0.00    +0.002 C 
ATOM     22  C   UNL     1      33.998 -14.236 -23.890  0.00  0.00    +0.029 C 
ATOM     23  C   UNL     1      33.589 -15.151 -21.692  0.00  0.00    +0.029 C 
ATOM     24  C   UNL     1      32.864 -14.009 -21.351  0.00  0.00    +0.169 C 
ATOM     25  C   UNL     1      33.273 -13.094 -23.550  0.00  0.00    +0.169 C 
ATOM     26  C   UNL     1      32.707 -12.979 -22.281  0.00  0.00    +0.195 C 
ENDBRANCH  17  21
ENDBRANCH   2  17
TORSDOF 5
ENDMDL
MODEL 3
REMARK VINA RESULT:     -10.5      5.231      7.654
REMARK  Name = 446242
REMARK  5 active torsions:
REMARK  status: ('A' for Active; 'I' for Inactive)
REMARK    1  A    between atoms: N_2  and  C_17
REMARK    2  A    between atoms: C_3  and  C_5
REMARK    3  A    between atoms: C_6  and  S_11
REMARK    4  A    between atoms: S_11  and  N_14
REMARK    5  A    between atoms: C_17  and  C_21
REMARK                            x       y       z     vdW  Elec       q    Type
REMARK                         _______ _______ _______ _____ _____    ______ ____
ROOT
ATOM      1  O   UNL     1      32.164 -23.522 -16.364  0.00  0.00    -0.270 OA
ATOM      2  N   UNL     1      34.061 -22.831 -17.505  0.00  0.00    -0.297 N 
ATOM      3  C   UNL     1      33.389 -23.308 -16.373  0.00  0.00    +0.246 C 
ATOM      4  H   UNL     1      35.033 -22.683 -17.442  0.00  0.00    +0.150 HD
ENDROOT
BRANCH   3   5
ATOM      5  C   UNL     1      34.185 -23.525 -15.176  0.00  0.00    +0.053 C 
ATOM      6  C   UNL     1      35.713 -23.943 -12.879  0.00  0.00    +0.122 C 
ATOM      7  C   UNL     1      35.511 -23.095 -15.132  0.00  0.00    +0.006 C 
ATOM      8  C   UNL     1      33.624 -24.165 -14.071  0.00  0.00    +0.006 C 
ATOM      9  C   UNL     1      36.276 -23.304 -13.984  0.00  0.00    +0.020 C 
ATOM     10  C   UNL     1      34.387 -24.373 -12.922  0.00  0.00    +0.020 C 
BRANCH   6  11
ATOM     11  S   UNL     1      36.669 -24.203 -11.441  0.00  0.00    +0.057 S 
ATOM     12  O   UNL     1      37.629 -25.264 -11.712  0.00  0.00    -0.153 OA
ATOM     13  O   UNL     1      37.136 -22.912 -10.957  0.00  0.00    -0.153 OA
BRANCH  11  14
ATOM     14  N   UNL     1      35.481 -24.796 -10.364  0.00  0.00    -0.203 NA
ATOM     15  H   UNL     1      35.754 -25.721 -10.033  0.00  0.00    +0.144 HD
ATOM     16  H   UNL     1      34.586 -24.858 -10.848  0.00  0.00    +0.144 HD
ENDBRANCH  11  14
ENDBRANCH   6  11
ENDBRANCH   3   5
BRANCH   2  17
ATOM     17  C   UNL     1      33.406 -22.544 -18.761  0.00  0.00    +0.117 C 
BRANCH  17  21
ATOM     18  F   UNL     1      37.506 -20.450 -20.342  0.00  0.00    -0.202 F 
ATOM     19  F   UNL     1      33.337 -18.558 -21.554  0.00  0.00    -0.202 F 
ATOM     20  F   UNL     1      36.069 -18.526 -21.651  0.00  0.00    -0.199 F 
ATOM     21  C   UNL     1      34.118 -21.471 -19.533  0.00  0.00    +0.002 C 
ATOM     22  C   UNL     1      33.380 -20.497 -20.195  0.00  0.00    +0.029 C 
ATOM     23  C   UNL     1      35.507 -21.462 -19.576  0.00  0.00    +0.029 C 
ATOM     24  C   UNL     1      36.168 -20.464 -20.293  0.00  0.00    +0.169 C 
ATOM     25  C   UNL     1      34.041 -19.499 -20.911  0.00  0.00    +0.169 C 
ATOM     26  C   UNL     1      35.434 -19.483 -20.961  0.00  0.00    +0.195 C 
ENDBRANCH  17  21
ENDBRANCH   2  17
TORSDOF 5
ENDMDL
MODEL 4
REMARK VINA RESULT:     -10.4      5.224      7.598
REMARK  Name = 446242
REMARK  5 active torsions:
REMARK  status: ('A' for Active; 'I' for Inactive)
REMARK    1  A    between atoms: N_2  and  C_17
REMARK    2  A    between atoms: C_3  and  C_5
REMARK    3  A    between atoms: C_6  and  S_11
REMARK    4  A    between atoms: S_11  and  N_14
REMARK    5  A    between atoms: C_17  and  C_21
REMARK                            x       y       z     vdW  Elec       q    Type
REMARK                         _______ _______ _______ _____ _____    ______ ____
ROOT
ATOM      1  O   UNL     1      32.169 -23.481 -16.360  0.00  0.00    -0.270 OA
ATOM      2  N   UNL     1      34.069 -22.813 -17.510  0.00  0.00    -0.297 N 
ATOM      3  C   UNL     1      33.396 -23.279 -16.374  0.00  0.00    +0.246 C 
ATOM      4  H   UNL     1      35.042 -22.674 -17.451  0.00  0.00    +0.150 HD
ENDROOT
BRANCH   3   5
ATOM      5  C   UNL     1      34.195 -23.500 -15.179  0.00  0.00    +0.053 C 
ATOM      6  C   UNL     1      35.727 -23.925 -12.887  0.00  0.00    +0.122 C 
ATOM      7  C   UNL     1      35.514 -23.051 -15.129  0.00  0.00    +0.006 C 
ATOM      8  C   UNL     1      33.642 -24.162 -14.083  0.00  0.00    +0.006 C 
ATOM      9  C   UNL     1      36.281 -23.263 -13.983  0.00  0.00    +0.020 C 
ATOM     10  C   UNL     1      34.408 -24.374 -12.937  0.00  0.00    +0.020 C 
BRANCH   6  11
ATOM     11  S   UNL     1      36.685 -24.189 -11.451  0.00  0.00    +0.057 S 
ATOM     12  O   UNL     1      37.631 -25.263 -11.721  0.00  0.00    -0.153 OA
ATOM     13  O   UNL     1      37.170 -22.902 -10.975  0.00  0.00    -0.153 OA
BRANCH  11  14
ATOM     14  N   UNL     1      35.495 -24.762 -10.367  0.00  0.00    -0.203 NA
ATOM     15  H   UNL     1      35.858 -25.569  -9.859  0.00  0.00    +0.144 HD
ATOM     16  H   UNL     1      34.663 -25.034 -10.889  0.00  0.00    +0.144 HD
ENDBRANCH  11  14
ENDBRANCH   6  11
ENDBRANCH   3   5
BRANCH   2  17
ATOM     17  C   UNL     1      33.412 -22.524 -18.765  0.00  0.00    +0.117 C 
BRANCH  17  21
ATOM     18  F   UNL     1      33.346 -18.561 -21.592  0.00  0.00    -0.202 F 
ATOM     19  F   UNL     1      37.514 -20.410 -20.313  0.00  0.00    -0.202 F 
ATOM     20  F   UNL     1      36.079 -18.509 -21.656  0.00  0.00    -0.199 F 
ATOM     21  C   UNL     1      34.124 -21.451 -19.537  0.00  0.00    +0.002 C 
ATOM     22  C   UNL     1      35.513 -21.432 -19.565  0.00  0.00    +0.029 C 
ATOM     23  C   UNL     1      33.387 -20.490 -20.217  0.00  0.00    +0.029 C 
ATOM     24  C   UNL     1      34.049 -19.494 -20.936  0.00  0.00    +0.169 C 
ATOM     25  C   UNL     1      36.175 -20.437 -20.283  0.00  0.00    +0.169 C 
ATOM     26  C   UNL     1      35.444 -19.467 -20.968  0.00  0.00    +0.195 C 
ENDBRANCH  17  21
ENDBRANCH   2  17
TORSDOF 5
ENDMDL
MODEL 5
REMARK VINA RESULT:     -10.1      6.574     10.303
REMARK  Name = 446242
REMARK  5 active torsions:
REMARK  status: ('A' for Active; 'I' for Inactive)
REMARK    1  A    between atoms: N_2  and  C_17
REMARK    2  A    between atoms: C_3  and  C_5
REMARK    3  A    between atoms: C_6  and  S_11
REMARK    4  A    between atoms: S_11  and  N_14
REMARK    5  A    between atoms: C_17  and  C_21
REMARK                            x       y       z     vdW  Elec       q    Type
REMARK                         _______ _______ _______ _____ _____    ______ ____
ROOT
ATOM      1  O   UNL     1      33.510 -24.016 -18.497  0.00  0.00    -0.270 OA
ATOM      2  N   UNL     1      34.543 -22.896 -16.748  0.00  0.00    -0.297 N 
ATOM      3  C   UNL     1      34.128 -23.020 -18.080  0.00  0.00    +0.246 C 
ATOM      4  H   UNL     1      35.029 -22.081 -16.486  0.00  0.00    +0.150 HD
ENDROOT
BRANCH   3   5
ATOM      5  C   UNL     1      34.473 -21.934 -18.982  0.00  0.00    +0.053 C 
ATOM      6  C   UNL     1      35.136 -19.851 -20.716  0.00  0.00    +0.122 C 
ATOM      7  C   UNL     1      33.467 -21.221 -19.633  0.00  0.00    +0.006 C 
ATOM      8  C   UNL     1      35.811 -21.606 -19.199  0.00  0.00    +0.006 C 
ATOM      9  C   UNL     1      33.798 -20.179 -20.500  0.00  0.00    +0.020 C 
ATOM     10  C   UNL     1      36.143 -20.564 -20.065  0.00  0.00    +0.020 C 
BRANCH   6  11
ATOM     11  S   UNL     1      35.551 -18.546 -21.799  0.00  0.00    +0.057 S 
ATOM     12  O   UNL     1      36.992 -18.567 -22.014  0.00  0.00    -0.153 OA
ATOM     13  O   UNL     1      34.650 -18.588 -22.941  0.00  0.00    -0.153 OA
BRANCH  11  14
ATOM     14  N   UNL     1      35.157 -17.188 -20.839  0.00  0.00    -0.203 NA
ATOM     15  H   UNL     1      34.345 -16.716 -21.235  0.00  0.00    +0.144 HD
ATOM     16  H   UNL     1      35.948 -16.546 -20.819  0.00  0.00    +0.144 HD
ENDBRANCH  11  14
ENDBRANCH   6  11
ENDBRANCH   3   5
BRANCH   2  17
ATOM     17  C   UNL     1      34.297 -23.900 -15.738  0.00  0.00    +0.117 C 
BRANCH  17  21
ATOM     18  F   UNL     1      37.963 -26.868 -14.533  0.00  0.00    -0.202 F 
ATOM     19  F   UNL     1      37.615 -22.653 -12.402  0.00  0.00    -0.202 F 
ATOM     20  F   UNL     1      38.912 -25.036 -12.737  0.00  0.00    -0.199 F 
ATOM     21  C   UNL     1      35.529 -24.204 -14.936  0.00  0.00    +0.002 C 
ATOM     22  C   UNL     1      36.005 -23.268 -14.026  0.00  0.00    +0.029 C 
ATOM     23  C   UNL     1      36.182 -25.418 -15.113  0.00  0.00    +0.029 C 
ATOM     24  C   UNL     1      37.327 -25.701 -14.367  0.00  0.00    +0.169 C 
ATOM     25  C   UNL     1      37.149 -23.550 -13.281  0.00  0.00    +0.169 C 
ATOM     26  C   UNL     1      37.811 -24.766 -13.451  0.00  0.00    +0.195 C 
ENDBRANCH  17  21
ENDBRANCH   2  17
TORSDOF 5
ENDMDL
MODEL 6
REMARK VINA RESULT:     -10.1      5.492      9.148
REMARK  Name = 446242
REMARK  5 active torsions:
REMARK  status: ('A' for Active; 'I' for Inactive)
REMARK    1  A    between atoms: N_2  and  C_17
REMARK    2  A    between atoms: C_3  and  C_5
REMARK    3  A    between atoms: C_6  and  S_11
REMARK    4  A    between atoms: S_11  and  N_14
REMARK    5  A    between atoms: C_17  and  C_21
REMARK                            x       y       z     vdW  Elec       q    Type
REMARK                         _______ _______ _______ _____ _____    ______ ____
ROOT
ATOM      1  O   UNL     1      33.893 -23.810 -19.191  0.00  0.00    -0.270 OA
ATOM      2  N   UNL     1      34.201 -22.498 -17.303  0.00  0.00    -0.297 N 
ATOM      3  C   UNL     1      34.141 -22.699 -18.687  0.00  0.00    +0.246 C 
ATOM      4  H   UNL     1      34.403 -21.593 -16.972  0.00  0.00    +0.150 HD
ENDROOT
BRANCH   3   5
ATOM      5  C   UNL     1      34.409 -21.548 -19.534  0.00  0.00    +0.053 C 
ATOM      6  C   UNL     1      34.924 -19.337 -21.156  0.00  0.00    +0.122 C 
ATOM      7  C   UNL     1      35.725 -21.185 -19.821  0.00  0.00    +0.006 C 
ATOM      8  C   UNL     1      33.351 -20.805 -20.057  0.00  0.00    +0.006 C 
ATOM      9  C   UNL     1      35.983 -20.079 -20.632  0.00  0.00    +0.020 C 
ATOM     10  C   UNL     1      33.608 -19.700 -20.869  0.00  0.00    +0.020 C 
BRANCH   6  11
ATOM     11  S   UNL     1      35.246 -17.955 -22.173  0.00  0.00    +0.057 S 
ATOM     12  O   UNL     1      34.487 -18.106 -23.407  0.00  0.00    -0.153 OA
ATOM     13  O   UNL     1      35.095 -16.747 -21.374  0.00  0.00    -0.153 OA
BRANCH  11  14
ATOM     14  N   UNL     1      36.905 -18.182 -22.515  0.00  0.00    -0.203 NA
ATOM     15  H   UNL     1      37.156 -19.157 -22.349  0.00  0.00    +0.144 HD
ATOM     16  H   UNL     1      37.462 -17.579 -21.910  0.00  0.00    +0.144 HD
ENDBRANCH  11  14
ENDBRANCH   6  11
ENDBRANCH   3   5
BRANCH   2  17
ATOM     17  C   UNL     1      33.982 -23.548 -16.333  0.00  0.00    +0.117 C 
BRANCH  17  21
ATOM     18  F   UNL     1      29.276 -22.457 -16.927  0.00  0.00    -0.202 F 
ATOM     19  F   UNL     1      30.611 -24.885 -13.087  0.00  0.00    -0.202 F 
ATOM     20  F   UNL     1      28.645 -23.711 -14.580  0.00  0.00    -0.199 F 
ATOM     21  C   UNL     1      32.557 -23.591 -15.865  0.00  0.00    +0.002 C 
ATOM     22  C   UNL     1      32.245 -24.230 -14.671  0.00  0.00    +0.029 C 
ATOM     23  C   UNL     1      31.564 -22.991 -16.630  0.00  0.00    +0.029 C 
ATOM     24  C   UNL     1      30.239 -23.031 -16.194  0.00  0.00    +0.169 C 
ATOM     25  C   UNL     1      30.920 -24.270 -14.235  0.00  0.00    +0.169 C 
ATOM     26  C   UNL     1      29.917 -23.671 -14.997  0.00  0.00    +0.195 C 
ENDBRANCH  17  21
ENDBRANCH   2  17
TORSDOF 5
ENDMDL
MODEL 7
REMARK VINA RESULT:     -10.1      5.501      9.303
REMARK  Name = 446242
REMARK  5 active torsions:
REMARK  status: ('A' for Active; 'I' for Inactive)
REMARK    1  A    between atoms: N_2  and  C_17
REMARK    2  A    between atoms: C_3  and  C_5
REMARK    3  A    between atoms: C_6  and  S_11
REMARK    4  A    between atoms: S_11  and  N_14
REMARK    5  A    between atoms: C_17  and  C_21
REMARK                            x       y       z     vdW  Elec       q    Type
REMARK                         _______ _______ _______ _____ _____    ______ ____
ROOT
ATOM      1  O   UNL     1      33.864 -23.817 -19.132  0.00  0.00    -0.270 OA
ATOM      2  N   UNL     1      34.190 -22.485 -17.261  0.00  0.00    -0.297 N 
ATOM      3  C   UNL     1      34.119 -22.701 -18.642  0.00  0.00    +0.246 C 
ATOM      4  H   UNL     1      34.396 -21.577 -16.941  0.00  0.00    +0.150 HD
ENDROOT
BRANCH   3   5
ATOM      5  C   UNL     1      34.383 -21.560 -19.503  0.00  0.00    +0.053 C 
ATOM      6  C   UNL     1      34.892 -19.369 -21.153  0.00  0.00    +0.122 C 
ATOM      7  C   UNL     1      35.697 -21.213 -19.817  0.00  0.00    +0.006 C 
ATOM      8  C   UNL     1      33.324 -20.811 -20.014  0.00  0.00    +0.006 C 
ATOM      9  C   UNL     1      35.952 -20.118 -20.643  0.00  0.00    +0.020 C 
ATOM     10  C   UNL     1      33.578 -19.716 -20.840  0.00  0.00    +0.020 C 
BRANCH   6  11
ATOM     11  S   UNL     1      35.210 -17.999 -22.188  0.00  0.00    +0.057 S 
ATOM     12  O   UNL     1      34.455 -18.170 -23.422  0.00  0.00    -0.153 OA
ATOM     13  O   UNL     1      35.050 -16.782 -21.407  0.00  0.00    -0.153 OA
BRANCH  11  14
ATOM     14  N   UNL     1      36.871 -18.222 -22.522  0.00  0.00    -0.203 NA
ATOM     15  H   UNL     1      37.226 -17.416 -23.036  0.00  0.00    +0.144 HD
ATOM     16  H   UNL     1      36.993 -19.065 -23.085  0.00  0.00    +0.144 HD
ENDBRANCH  11  14
ENDBRANCH   6  11
ENDBRANCH   3   5
BRANCH   2  17
ATOM     17  C   UNL     1      33.976 -23.523 -16.278  0.00  0.00    +0.117 C 
BRANCH  17  21
ATOM     18  F   UNL     1      30.561 -24.951 -13.115  0.00  0.00    -0.202 F 
ATOM     19  F   UNL     1      29.267 -22.483 -16.944  0.00  0.00    -0.202 F 
ATOM     20  F   UNL     1      28.609 -23.779 -14.629  0.00  0.00    -0.199 F 
ATOM     21  C   UNL     1      32.542 -23.592 -15.837  0.00  0.00    +0.002 C 
ATOM     22  C   UNL     1      31.556 -22.994 -16.613  0.00  0.00    +0.029 C 
ATOM     23  C   UNL     1      32.216 -24.253 -14.659  0.00  0.00    +0.029 C 
ATOM     24  C   UNL     1      30.884 -24.317 -14.250  0.00  0.00    +0.169 C 
ATOM     25  C   UNL     1      30.224 -23.058 -16.204  0.00  0.00    +0.169 C 
ATOM     26  C   UNL     1      29.887 -23.719 -15.023  0.00  0.00    +0.195 C 
ENDBRANCH  17  21
ENDBRANCH   2  17
TORSDOF 5
ENDMDL
MODEL 8
REMARK VINA RESULT:      -9.9      6.251      9.959
REMARK  Name = 446242
REMARK  5 active torsions:
REMARK  status: ('A' for Active; 'I' for Inactive)
REMARK    1  A    between atoms: N_2  and  C_17
REMARK    2  A    between atoms: C_3  and  C_5
REMARK    3  A    between atoms: C_6  and  S_11
REMARK    4  A    between atoms: S_11  and  N_14
REMARK    5  A    between atoms: C_17  and  C_21
REMARK                            x       y       z     vdW  Elec       q    Type
REMARK                         _______ _______ _______ _____ _____    ______ ____
ROOT
ATOM      1  O   UNL     1      33.824 -23.939 -19.170  0.00  0.00    -0.270 OA
ATOM      2  N   UNL     1      33.735 -22.584 -17.290  0.00  0.00    -0.297 N 
ATOM      3  C   UNL     1      33.910 -22.807 -18.661  0.00  0.00    +0.246 C 
ATOM      4  H   UNL     1      33.817 -21.662 -16.953  0.00  0.00    +0.150 HD
ENDROOT
BRANCH   3   5
ATOM      5  C   UNL     1      34.229 -21.650 -19.482  0.00  0.00    +0.053 C 
ATOM      6  C   UNL     1      34.841 -19.429 -21.056  0.00  0.00    +0.122 C 
ATOM      7  C   UNL     1      35.559 -21.345 -19.771  0.00  0.00    +0.006 C 
ATOM      8  C   UNL     1      33.205 -20.845 -19.980  0.00  0.00    +0.006 C 
ATOM      9  C   UNL     1      35.865 -20.234 -20.558  0.00  0.00    +0.020 C 
ATOM     10  C   UNL     1      33.511 -19.735 -20.768  0.00  0.00    +0.020 C 
BRANCH   6  11
ATOM     11  S   UNL     1      35.223 -18.041 -22.044  0.00  0.00    +0.057 S 
ATOM     12  O   UNL     1      34.479 -18.145 -23.291  0.00  0.00    -0.153 OA
ATOM     13  O   UNL     1      35.100 -16.843 -21.226  0.00  0.00    -0.153 OA
BRANCH  11  14
ATOM     14  N   UNL     1      36.879 -18.317 -22.365  0.00  0.00    -0.203 NA
ATOM     15  H   UNL     1      37.135 -19.253 -22.053  0.00  0.00    +0.144 HD
ATOM     16  H   UNL     1      37.441 -17.626 -21.867  0.00  0.00    +0.144 HD
ENDBRANCH  11  14
ENDBRANCH   6  11
ENDBRANCH   3   5
BRANCH   2  17
ATOM     17  C   UNL     1      33.438 -23.633 -16.341  0.00  0.00    +0.117 C 
BRANCH  17  21
ATOM     18  F   UNL     1      34.997 -24.819 -11.885  0.00  0.00    -0.202 F 
ATOM     19  F   UNL     1      38.157 -23.505 -15.157  0.00  0.00    -0.202 F 
ATOM     20  F   UNL     1      37.587 -24.332 -12.615  0.00  0.00    -0.199 F 
ATOM     21  C   UNL     1      34.546 -23.820 -15.345  0.00  0.00    +0.002 C 
ATOM     22  C   UNL     1      35.859 -23.570 -15.725  0.00  0.00    +0.029 C 
ATOM     23  C   UNL     1      34.247 -24.240 -14.055  0.00  0.00    +0.029 C 
ATOM     24  C   UNL     1      35.276 -24.412 -13.130  0.00  0.00    +0.169 C 
ATOM     25  C   UNL     1      36.889 -23.742 -14.799  0.00  0.00    +0.169 C 
ATOM     26  C   UNL     1      36.598 -24.164 -13.502  0.00  0.00    +0.195 C 
ENDBRANCH  17  21
ENDBRANCH   2  17
TORSDOF 5
ENDMDL
MODEL 9
REMARK VINA RESULT:      -9.8      4.016      5.931
REMARK  Name = 446242
REMARK  5 active torsions:
REMARK  status: ('A' for Active; 'I' for Inactive)
REMARK    1  A    between atoms: N_2  and  C_17
REMARK    2  A    between atoms: C_3  and  C_5
REMARK    3  A    between atoms: C_6  and  S_11
REMARK    4  A    between atoms: S_11  and  N_14
REMARK    5  A    between atoms: C_17  and  C_21
REMARK                            x       y       z     vdW  Elec       q    Type
REMARK                         _______ _______ _______ _____ _____    ______ ____
ROOT
ATOM      1  O   UNL     1      32.059 -12.653 -20.161  0.00  0.00    -0.270 OA
ATOM      2  N   UNL     1      32.052 -12.415 -22.468  0.00  0.00    -0.297 N 
ATOM      3  C   UNL     1      32.337 -13.108 -21.285  0.00  0.00    +0.246 C 
ATOM      4  H   UNL     1      32.299 -12.833 -23.324  0.00  0.00    +0.150 HD
ENDROOT
BRANCH   3   5
ATOM      5  C   UNL     1      33.007 -14.391 -21.417  0.00  0.00    +0.053 C 
ATOM      6  C   UNL     1      34.293 -16.854 -21.670  0.00  0.00    +0.122 C 
ATOM      7  C   UNL     1      32.592 -15.477 -20.646  0.00  0.00    +0.006 C 
ATOM      8  C   UNL     1      34.064 -14.537 -22.314  0.00  0.00    +0.006 C 
ATOM      9  C   UNL     1      33.235 -16.709 -20.772  0.00  0.00    +0.020 C 
ATOM     10  C   UNL     1      34.707 -15.769 -22.441  0.00  0.00    +0.020 C 
BRANCH   6  11
ATOM     11  S   UNL     1      35.096 -18.396 -21.829  0.00  0.00    +0.057 S 
ATOM     12  O   UNL     1      35.969 -18.581 -20.679  0.00  0.00    -0.153 OA
ATOM     13  O   UNL     1      34.098 -19.407 -22.149  0.00  0.00    -0.153 OA
BRANCH  11  14
ATOM     14  N   UNL     1      36.059 -18.120 -23.214  0.00  0.00    -0.203 NA
ATOM     15  H   UNL     1      37.044 -18.127 -22.950  0.00  0.00    +0.144 HD
ATOM     16  H   UNL     1      35.821 -17.213 -23.617  0.00  0.00    +0.144 HD
ENDBRANCH  11  14
ENDBRANCH   6  11
ENDBRANCH   3   5
BRANCH   2  17
ATOM     17  C   UNL     1      31.412 -11.119 -22.500  0.00  0.00    +0.117 C 
BRANCH  17  21
ATOM     18  F   UNL     1      32.922  -6.512 -22.061  0.00  0.00    -0.202 F 
ATOM     19  F   UNL     1      35.411  -9.506 -24.758  0.00  0.00    -0.202 F 
ATOM     20  F   UNL     1      35.053  -7.009 -23.703  0.00  0.00    -0.199 F 
ATOM     21  C   UNL     1      32.384 -10.021 -22.822  0.00  0.00    +0.002 C 
ATOM     22  C   UNL     1      33.464 -10.282 -23.657  0.00  0.00    +0.029 C 
ATOM     23  C   UNL     1      32.194  -8.755 -22.281  0.00  0.00    +0.029 C 
ATOM     24  C   UNL     1      33.097  -7.735 -22.580  0.00  0.00    +0.169 C 
ATOM     25  C   UNL     1      34.367  -9.262 -23.956  0.00  0.00    +0.169 C 
ATOM     26  C   UNL     1      34.184  -7.988 -23.418  0.00  0.00    +0.195 C 
ENDBRANCH  17  21
ENDBRANCH   2  17
TORSDOF 5
ENDMDL
