MODEL 1
REMARK VINA RESULT:      -8.3      0.000      0.000
REMARK  Name = 439924
REMARK  6 active torsions:
REMARK  status: ('A' for Active; 'I' for Inactive)
REMARK    1  A    between atoms: C2*_2  and  O2*_17
REMARK    2  A    between atoms: C3*_3  and  O3*_19
REMARK    3  A    between atoms: C1*_4  and  N_6
REMARK    4  A    between atoms: C4*_5  and  C5*_21
REMARK    5  A    between atoms: C_9  and  C_14
REMARK    6  A    between atoms: C5*_21  and  O5*_22
REMARK                            x       y       z     vdW  Elec       q    Type
REMARK                         _______ _______ _______ _____ _____    ______ ____
ROOT
ATOM      1  O4* UNL     1      36.343 -24.616 -15.715  0.00  0.00    -0.333 OA
ATOM      2  C2* UNL     1      35.699 -24.294 -13.458  0.00  0.00    +0.187 C 
ATOM      3  C3* UNL     1      37.115 -24.835 -13.474  0.00  0.00    +0.171 C 
ATOM      4  C1* UNL     1      35.569 -23.747 -14.868  0.00  0.00    +0.223 C 
ATOM      5  C4* UNL     1      37.229 -25.403 -14.886  0.00  0.00    +0.175 C 
ENDROOT
BRANCH   4   6
ATOM      6  N   UNL     1      34.142 -23.691 -15.276  0.00  0.00    -0.279 N 
ATOM      7  C   UNL     1      33.195 -24.101 -14.412  0.00  0.00    +0.124 C 
ATOM      8  C   UNL     1      33.826 -23.230 -16.500  0.00  0.00    +0.063 C 
ATOM      9  C   UNL     1      31.855 -24.059 -14.766  0.00  0.00    +0.051 C 
ATOM     10  C   UNL     1      32.501 -23.166 -16.907  0.00  0.00    +0.016 C 
ATOM     11  C   UNL     1      31.508 -23.586 -16.028  0.00  0.00    +0.003 C 
BRANCH   9  14
ATOM     12  O   UNL     1      30.739 -24.019 -12.692  0.00  0.00    -0.271 OA
ATOM     13  N   UNL     1      29.937 -25.480 -14.269  0.00  0.00    -0.326 N 
ATOM     14  C   UNL     1      30.831 -24.503 -13.834  0.00  0.00    +0.240 C 
ATOM     15  H   UNL     1      29.231 -25.803 -13.664  0.00  0.00    +0.145 HD
ATOM     16  H   UNL     1      30.013 -25.845 -15.179  0.00  0.00    +0.145 HD
ENDBRANCH   9  14
ENDBRANCH   4   6
BRANCH   2  17
ATOM     17  O2* UNL     1      35.501 -23.292 -12.482  0.00  0.00    -0.378 OA
ATOM     18  H2* UNL     1      34.710 -22.775 -12.706  0.00  0.00    +0.211 HD
ENDBRANCH   2  17
BRANCH   3  19
ATOM     19  O3* UNL     1      38.039 -23.755 -13.336  0.00  0.00    -0.379 OA
ATOM     20  H3* UNL     1      38.919 -24.045 -13.622  0.00  0.00    +0.211 HD
ENDBRANCH   3  19
BRANCH   5  21
ATOM     21  C5* UNL     1      36.804 -26.861 -14.976  0.00  0.00    +0.169 C 
BRANCH  21  22
ATOM     22  O5* UNL     1      36.797 -27.248 -16.338  0.00  0.00    -0.379 OA
ATOM     23  H5* UNL     1      37.166 -28.142 -16.423  0.00  0.00    +0.211 HD
ENDBRANCH  21  22
ENDBRANCH   5  21
TORSDOF 6
ENDMDL
MODEL 2
REMARK VINA RESULT:      -8.1      7.858      9.842
REMARK  Name = 439924
REMARK  6 active torsions:
REMARK  status: ('A' for Active; 'I' for Inactive)
REMARK    1  A    between atoms: C2*_2  and  O2*_17
REMARK    2  A    between atoms: C3*_3  and  O3*_19
REMARK    3  A    between atoms: C1*_4  and  N_6
REMARK    4  A    between atoms: C4*_5  and  C5*_21
REMARK    5  A    between atoms: C_9  and  C_14
REMARK    6  A    between atoms: C5*_21  and  O5*_22
REMARK                            x       y       z     vdW  Elec       q    Type
REMARK                         _______ _______ _______ _____ _____    ______ ____
ROOT
ATOM      1  O4* UNL     1      35.341 -16.686 -20.882  0.00  0.00    -0.333 OA
ATOM      2  C2* UNL     1      34.788 -17.874 -22.855  0.00  0.00    +0.187 C 
ATOM      3  C3* UNL     1      34.436 -16.415 -23.066  0.00  0.00    +0.171 C 
ATOM      4  C1* UNL     1      35.776 -17.783 -21.706  0.00  0.00    +0.223 C 
ATOM      5  C4* UNL     1      34.411 -15.877 -21.638  0.00  0.00    +0.175 C 
ENDROOT
BRANCH   4   6
ATOM      6  N   UNL     1      35.822 -19.064 -20.957  0.00  0.00    -0.279 N 
ATOM      7  C   UNL     1      34.670 -19.661 -20.602  0.00  0.00    +0.124 C 
ATOM      8  C   UNL     1      37.017 -19.602 -20.649  0.00  0.00    +0.063 C 
ATOM      9  C   UNL     1      34.684 -20.858 -19.902  0.00  0.00    +0.051 C 
ATOM     10  C   UNL     1      37.091 -20.799 -19.950  0.00  0.00    +0.016 C 
ATOM     11  C   UNL     1      35.910 -21.430 -19.574  0.00  0.00    +0.003 C 
BRANCH   9  14
ATOM     12  O   UNL     1      32.394 -20.851 -19.351  0.00  0.00    -0.271 OA
ATOM     13  N   UNL     1      33.449 -22.888 -19.359  0.00  0.00    -0.326 N 
ATOM     14  C   UNL     1      33.440 -21.504 -19.518  0.00  0.00    +0.240 C 
ATOM     15  H   UNL     1      32.624 -23.358 -19.099  0.00  0.00    +0.145 HD
ATOM     16  H   UNL     1      34.279 -23.394 -19.506  0.00  0.00    +0.145 HD
ENDBRANCH   9  14
ENDBRANCH   4   6
BRANCH   2  17
ATOM     17  O2* UNL     1      35.360 -18.476 -23.998  0.00  0.00    -0.378 OA
ATOM     18  H2* UNL     1      34.667 -18.642 -24.657  0.00  0.00    +0.211 HD
ENDBRANCH   2  17
BRANCH   3  19
ATOM     19  O3* UNL     1      35.488 -15.770 -23.782  0.00  0.00    -0.379 OA
ATOM     20  H3* UNL     1      35.210 -14.874 -24.029  0.00  0.00    +0.211 HD
ENDBRANCH   3  19
BRANCH   5  21
ATOM     21  C5* UNL     1      33.040 -15.985 -20.987  0.00  0.00    +0.169 C 
BRANCH  21  22
ATOM     22  O5* UNL     1      32.164 -15.069 -21.618  0.00  0.00    -0.379 OA
ATOM     23  H5* UNL     1      32.183 -15.211 -22.579  0.00  0.00    +0.211 HD
ENDBRANCH  21  22
ENDBRANCH   5  21
TORSDOF 6
ENDMDL
MODEL 3
REMARK VINA RESULT:      -8.1      2.623      4.123
REMARK  Name = 439924
REMARK  6 active torsions:
REMARK  status: ('A' for Active; 'I' for Inactive)
REMARK    1  A    between atoms: C2*_2  and  O2*_17
REMARK    2  A    between atoms: C3*_3  and  O3*_19
REMARK    3  A    between atoms: C1*_4  and  N_6
REMARK    4  A    between atoms: C4*_5  and  C5*_21
REMARK    5  A    between atoms: C_9  and  C_14
REMARK    6  A    between atoms: C5*_21  and  O5*_22
REMARK                            x       y       z     vdW  Elec       q    Type
REMARK                         _______ _______ _______ _____ _____    ______ ____
ROOT
ATOM      1  O4* UNL     1      35.622 -23.722 -13.374  0.00  0.00    -0.333 OA
ATOM      2  C2* UNL     1      37.383 -24.901 -14.431  0.00  0.00    +0.187 C 
ATOM      3  C3* UNL     1      37.424 -25.217 -12.948  0.00  0.00    +0.171 C 
ATOM      4  C1* UNL     1      35.957 -24.406 -14.595  0.00  0.00    +0.223 C 
ATOM      5  C4* UNL     1      36.578 -24.094 -12.354  0.00  0.00    +0.175 C 
ENDROOT
BRANCH   4   6
ATOM      6  N   UNL     1      35.846 -23.523 -15.782  0.00  0.00    -0.279 N 
ATOM      7  C   UNL     1      34.685 -23.477 -16.461  0.00  0.00    +0.124 C 
ATOM      8  C   UNL     1      36.909 -22.786 -16.155  0.00  0.00    +0.063 C 
ATOM      9  C   UNL     1      34.554 -22.660 -17.575  0.00  0.00    +0.051 C 
ATOM     10  C   UNL     1      36.834 -21.951 -17.261  0.00  0.00    +0.016 C 
ATOM     11  C   UNL     1      35.641 -21.890 -17.975  0.00  0.00    +0.003 C 
BRANCH   9  14
ATOM     12  O   UNL     1      33.274 -22.428 -19.539  0.00  0.00    -0.271 OA
ATOM     13  N   UNL     1      32.120 -22.790 -17.590  0.00  0.00    -0.326 N 
ATOM     14  C   UNL     1      33.300 -22.609 -18.309  0.00  0.00    +0.240 C 
ATOM     15  H   UNL     1      31.253 -22.762 -18.055  0.00  0.00    +0.145 HD
ATOM     16  H   UNL     1      32.154 -22.945 -16.620  0.00  0.00    +0.145 HD
ENDBRANCH   9  14
ENDBRANCH   4   6
BRANCH   2  17
ATOM     17  O2* UNL     1      37.648 -26.026 -15.243  0.00  0.00    -0.378 OA
ATOM     18  H2* UNL     1      37.906 -26.776 -14.682  0.00  0.00    +0.211 HD
ENDBRANCH   2  17
BRANCH   3  19
ATOM     19  O3* UNL     1      36.771 -26.463 -12.708  0.00  0.00    -0.379 OA
ATOM     20  H3* UNL     1      36.685 -26.948 -13.543  0.00  0.00    +0.211 HD
ENDBRANCH   3  19
BRANCH   5  21
ATOM     21  C5* UNL     1      37.395 -22.864 -11.989  0.00  0.00    +0.169 C 
BRANCH  21  22
ATOM     22  O5* UNL     1      38.709 -23.274 -11.658  0.00  0.00    -0.379 OA
ATOM     23  H5* UNL     1      38.874 -23.106 -10.717  0.00  0.00    +0.211 HD
ENDBRANCH  21  22
ENDBRANCH   5  21
TORSDOF 6
ENDMDL
MODEL 4
REMARK VINA RESULT:      -8.0      1.739      3.044
REMARK  Name = 439924
REMARK  6 active torsions:
REMARK  status: ('A' for Active; 'I' for Inactive)
REMARK    1  A    between atoms: C2*_2  and  O2*_17
REMARK    2  A    between atoms: C3*_3  and  O3*_19
REMARK    3  A    between atoms: C1*_4  and  N_6
REMARK    4  A    between atoms: C4*_5  and  C5*_21
REMARK    5  A    between atoms: C_9  and  C_14
REMARK    6  A    between atoms: C5*_21  and  O5*_22
REMARK                            x       y       z     vdW  Elec       q    Type
REMARK                         _______ _______ _______ _____ _____    ______ ____
ROOT
ATOM      1  O4* UNL     1      36.613 -24.278 -14.947  0.00  0.00    -0.333 OA
ATOM      2  C2* UNL     1      35.262 -24.391 -13.004  0.00  0.00    +0.187 C 
ATOM      3  C3* UNL     1      36.640 -24.920 -12.655  0.00  0.00    +0.171 C 
ATOM      4  C1* UNL     1      35.557 -23.586 -14.257  0.00  0.00    +0.223 C 
ATOM      5  C4* UNL     1      37.235 -25.209 -14.031  0.00  0.00    +0.175 C 
ENDROOT
BRANCH   4   6
ATOM      6  N   UNL     1      34.335 -23.453 -15.089  0.00  0.00    -0.279 N 
ATOM      7  C   UNL     1      34.460 -23.230 -16.410  0.00  0.00    +0.124 C 
ATOM      8  C   UNL     1      33.127 -23.558 -14.505  0.00  0.00    +0.063 C 
ATOM      9  C   UNL     1      33.335 -23.102 -17.212  0.00  0.00    +0.051 C 
ATOM     10  C   UNL     1      31.967 -23.439 -15.258  0.00  0.00    +0.016 C 
ATOM     11  C   UNL     1      32.077 -23.208 -16.626  0.00  0.00    +0.003 C 
BRANCH   9  14
ATOM     12  O   UNL     1      34.080 -23.655 -19.377  0.00  0.00    -0.271 OA
ATOM     13  N   UNL     1      32.872 -21.717 -19.163  0.00  0.00    -0.326 N 
ATOM     14  C   UNL     1      33.469 -22.862 -18.639  0.00  0.00    +0.240 C 
ATOM     15  H   UNL     1      32.942 -21.523 -20.125  0.00  0.00    +0.145 HD
ATOM     16  H   UNL     1      32.380 -21.104 -18.571  0.00  0.00    +0.145 HD
ENDBRANCH   9  14
ENDBRANCH   4   6
BRANCH   2  17
ATOM     17  O2* UNL     1      34.701 -23.594 -11.982  0.00  0.00    -0.378 OA
ATOM     18  H2* UNL     1      33.772 -23.407 -12.192  0.00  0.00    +0.211 HD
ENDBRANCH   2  17
BRANCH   3  19
ATOM     19  O3* UNL     1      37.403 -23.887 -12.032  0.00  0.00    -0.379 OA
ATOM     20  H3* UNL     1      36.812 -23.314 -11.520  0.00  0.00    +0.211 HD
ENDBRANCH   3  19
BRANCH   5  21
ATOM     21  C5* UNL     1      36.951 -26.622 -14.516  0.00  0.00    +0.169 C 
BRANCH  21  22
ATOM     22  O5* UNL     1      37.208 -26.685 -15.907  0.00  0.00    -0.379 OA
ATOM     23  H5* UNL     1      36.538 -27.242 -16.336  0.00  0.00    +0.211 HD
ENDBRANCH  21  22
ENDBRANCH   5  21
TORSDOF 6
ENDMDL
MODEL 5
REMARK VINA RESULT:      -8.0      1.870      3.866
REMARK  Name = 439924
REMARK  6 active torsions:
REMARK  status: ('A' for Active; 'I' for Inactive)
REMARK    1  A    between atoms: C2*_2  and  O2*_17
REMARK    2  A    between atoms: C3*_3  and  O3*_19
REMARK    3  A    between atoms: C1*_4  and  N_6
REMARK    4  A    between atoms: C4*_5  and  C5*_21
REMARK    5  A    between atoms: C_9  and  C_14
REMARK    6  A    between atoms: C5*_21  and  O5*_22
REMARK                            x       y       z     vdW  Elec       q    Type
REMARK                         _______ _______ _______ _____ _____    ______ ____
ROOT
ATOM      1  O4* UNL     1      35.086 -23.993 -12.793  0.00  0.00    -0.333 OA
ATOM      2  C2* UNL     1      35.993 -25.297 -14.551  0.00  0.00    +0.187 C 
ATOM      3  C3* UNL     1      36.960 -25.336 -13.383  0.00  0.00    +0.171 C 
ATOM      4  C1* UNL     1      34.706 -24.878 -13.862  0.00  0.00    +0.223 C 
ATOM      5  C4* UNL     1      36.502 -24.148 -12.542  0.00  0.00    +0.175 C 
ENDROOT
BRANCH   4   6
ATOM      6  N   UNL     1      33.786 -24.229 -14.830  0.00  0.00    -0.279 N 
ATOM      7  C   UNL     1      34.276 -23.767 -15.995  0.00  0.00    +0.124 C 
ATOM      8  C   UNL     1      32.481 -24.116 -14.521  0.00  0.00    +0.063 C 
ATOM      9  C   UNL     1      33.438 -23.156 -16.917  0.00  0.00    +0.051 C 
ATOM     10  C   UNL     1      31.597 -23.515 -15.406  0.00  0.00    +0.016 C 
ATOM     11  C   UNL     1      32.086 -23.031 -16.616  0.00  0.00    +0.003 C 
BRANCH   9  14
ATOM     12  O   UNL     1      35.191 -22.553 -18.371  0.00  0.00    -0.271 OA
ATOM     13  N   UNL     1      33.054 -22.314 -19.172  0.00  0.00    -0.326 N 
ATOM     14  C   UNL     1      33.966 -22.657 -18.176  0.00  0.00    +0.240 C 
ATOM     15  H   UNL     1      33.377 -21.973 -20.037  0.00  0.00    +0.145 HD
ATOM     16  H   UNL     1      32.089 -22.413 -19.009  0.00  0.00    +0.145 HD
ENDBRANCH   9  14
ENDBRANCH   4   6
BRANCH   2  17
ATOM     17  O2* UNL     1      35.863 -26.543 -15.203  0.00  0.00    -0.378 OA
ATOM     18  H2* UNL     1      35.296 -27.126 -14.674  0.00  0.00    +0.211 HD
ENDBRANCH   2  17
BRANCH   3  19
ATOM     19  O3* UNL     1      36.756 -26.535 -12.636  0.00  0.00    -0.379 OA
ATOM     20  H3* UNL     1      36.946 -27.302 -13.198  0.00  0.00    +0.211 HD
ENDBRANCH   3  19
BRANCH   5  21
ATOM     21  C5* UNL     1      37.201 -22.850 -12.917  0.00  0.00    +0.169 C 
BRANCH  21  22
ATOM     22  O5* UNL     1      38.129 -22.523 -11.899  0.00  0.00    -0.379 OA
ATOM     23  H5* UNL     1      38.794 -23.227 -11.828  0.00  0.00    +0.211 HD
ENDBRANCH  21  22
ENDBRANCH   5  21
TORSDOF 6
ENDMDL
MODEL 6
REMARK VINA RESULT:      -7.9      2.375      3.785
REMARK  Name = 439924
REMARK  6 active torsions:
REMARK  status: ('A' for Active; 'I' for Inactive)
REMARK    1  A    between atoms: C2*_2  and  O2*_17
REMARK    2  A    between atoms: C3*_3  and  O3*_19
REMARK    3  A    between atoms: C1*_4  and  N_6
REMARK    4  A    between atoms: C4*_5  and  C5*_21
REMARK    5  A    between atoms: C_9  and  C_14
REMARK    6  A    between atoms: C5*_21  and  O5*_22
REMARK                            x       y       z     vdW  Elec       q    Type
REMARK                         _______ _______ _______ _____ _____    ______ ____
ROOT
ATOM      1  O4* UNL     1      35.802 -25.223 -13.139  0.00  0.00    -0.333 OA
ATOM      2  C2* UNL     1      36.838 -23.214 -13.847  0.00  0.00    +0.187 C 
ATOM      3  C3* UNL     1      37.659 -23.797 -12.713  0.00  0.00    +0.171 C 
ATOM      4  C1* UNL     1      36.060 -24.432 -14.313  0.00  0.00    +0.223 C 
ATOM      5  C4* UNL     1      36.682 -24.782 -12.079  0.00  0.00    +0.175 C 
ENDROOT
BRANCH   4   6
ATOM      6  N   UNL     1      34.810 -24.019 -14.999  0.00  0.00    -0.279 N 
ATOM      7  C   UNL     1      34.872 -23.577 -16.268  0.00  0.00    +0.124 C 
ATOM      8  C   UNL     1      33.641 -24.097 -14.337  0.00  0.00    +0.063 C 
ATOM      9  C   UNL     1      33.719 -23.185 -16.933  0.00  0.00    +0.051 C 
ATOM     10  C   UNL     1      32.456 -23.719 -14.953  0.00  0.00    +0.016 C 
ATOM     11  C   UNL     1      32.501 -23.259 -16.266  0.00  0.00    +0.003 C 
BRANCH   9  14
ATOM     12  O   UNL     1      34.796 -22.883 -19.006  0.00  0.00    -0.271 OA
ATOM     13  N   UNL     1      32.664 -22.057 -18.819  0.00  0.00    -0.326 N 
ATOM     14  C   UNL     1      33.785 -22.707 -18.304  0.00  0.00    +0.240 C 
ATOM     15  H   UNL     1      32.674 -21.720 -19.744  0.00  0.00    +0.145 HD
ATOM     16  H   UNL     1      31.866 -21.935 -18.258  0.00  0.00    +0.145 HD
ENDBRANCH   9  14
ENDBRANCH   4   6
BRANCH   2  17
ATOM     17  O2* UNL     1      37.632 -22.667 -14.880  0.00  0.00    -0.378 OA
ATOM     18  H2* UNL     1      37.437 -21.721 -14.971  0.00  0.00    +0.211 HD
ENDBRANCH   2  17
BRANCH   3  19
ATOM     19  O3* UNL     1      38.764 -24.524 -13.249  0.00  0.00    -0.379 OA
ATOM     20  H3* UNL     1      39.245 -24.958 -12.528  0.00  0.00    +0.211 HD
ENDBRANCH   3  19
BRANCH   5  21
ATOM     21  C5* UNL     1      35.836 -24.157 -10.980  0.00  0.00    +0.169 C 
BRANCH  21  22
ATOM     22  O5* UNL     1      35.254 -25.192 -10.209  0.00  0.00    -0.379 OA
ATOM     23  H5* UNL     1      35.949 -25.668  -9.727  0.00  0.00    +0.211 HD
ENDBRANCH  21  22
ENDBRANCH   5  21
TORSDOF 6
ENDMDL
MODEL 7
REMARK VINA RESULT:      -7.9      7.867      9.698
REMARK  Name = 439924
REMARK  6 active torsions:
REMARK  status: ('A' for Active; 'I' for Inactive)
REMARK    1  A    between atoms: C2*_2  and  O2*_17
REMARK    2  A    between atoms: C3*_3  and  O3*_19
REMARK    3  A    between atoms: C1*_4  and  N_6
REMARK    4  A    between atoms: C4*_5  and  C5*_21
REMARK    5  A    between atoms: C_9  and  C_14
REMARK    6  A    between atoms: C5*_21  and  O5*_22
REMARK                            x       y       z     vdW  Elec       q    Type
REMARK                         _______ _______ _______ _____ _____    ______ ____
ROOT
ATOM      1  O4* UNL     1      33.800 -18.100 -22.808  0.00  0.00    -0.333 OA
ATOM      2  C2* UNL     1      35.068 -16.735 -21.345  0.00  0.00    +0.187 C 
ATOM      3  C3* UNL     1      34.524 -15.860 -22.458  0.00  0.00    +0.171 C 
ATOM      4  C1* UNL     1      34.136 -17.931 -21.419  0.00  0.00    +0.223 C 
ATOM      5  C4* UNL     1      34.139 -16.886 -23.519  0.00  0.00    +0.175 C 
ENDROOT
BRANCH   4   6
ATOM      6  N   UNL     1      34.789 -19.136 -20.849  0.00  0.00    -0.279 N 
ATOM      7  C   UNL     1      34.025 -20.141 -20.384  0.00  0.00    +0.124 C 
ATOM      8  C   UNL     1      36.133 -19.198 -20.809  0.00  0.00    +0.063 C 
ATOM      9  C   UNL     1      34.609 -21.278 -19.846  0.00  0.00    +0.051 C 
ATOM     10  C   UNL     1      36.772 -20.312 -20.283  0.00  0.00    +0.016 C 
ATOM     11  C   UNL     1      35.997 -21.361 -19.797  0.00  0.00    +0.003 C 
BRANCH   9  14
ATOM     12  O   UNL     1      34.118 -23.554 -19.486  0.00  0.00    -0.271 OA
ATOM     13  N   UNL     1      32.607 -22.030 -18.676  0.00  0.00    -0.326 N 
ATOM     14  C   UNL     1      33.784 -22.364 -19.344  0.00  0.00    +0.240 C 
ATOM     15  H   UNL     1      32.025 -22.740 -18.322  0.00  0.00    +0.145 HD
ATOM     16  H   UNL     1      32.361 -21.085 -18.559  0.00  0.00    +0.145 HD
ENDBRANCH   9  14
ENDBRANCH   4   6
BRANCH   2  17
ATOM     17  O2* UNL     1      35.026 -16.109 -20.079  0.00  0.00    -0.378 OA
ATOM     18  H2* UNL     1      34.971 -15.147 -20.196  0.00  0.00    +0.211 HD
ENDBRANCH   2  17
BRANCH   3  19
ATOM     19  O3* UNL     1      33.342 -15.197 -22.007  0.00  0.00    -0.379 OA
ATOM     20  H3* UNL     1      32.605 -15.414 -22.599  0.00  0.00    +0.211 HD
ENDBRANCH   3  19
BRANCH   5  21
ATOM     21  C5* UNL     1      35.272 -17.195 -24.485  0.00  0.00    +0.169 C 
BRANCH  21  22
ATOM     22  O5* UNL     1      34.873 -16.814 -25.790  0.00  0.00    -0.379 OA
ATOM     23  H5* UNL     1      33.971 -16.458 -25.762  0.00  0.00    +0.211 HD
ENDBRANCH  21  22
ENDBRANCH   5  21
TORSDOF 6
ENDMDL
MODEL 8
REMARK VINA RESULT:      -7.8      1.422      2.240
REMARK  Name = 439924
REMARK  6 active torsions:
REMARK  status: ('A' for Active; 'I' for Inactive)
REMARK    1  A    between atoms: C2*_2  and  O2*_17
REMARK    2  A    between atoms: C3*_3  and  O3*_19
REMARK    3  A    between atoms: C1*_4  and  N_6
REMARK    4  A    between atoms: C4*_5  and  C5*_21
REMARK    5  A    between atoms: C_9  and  C_14
REMARK    6  A    between atoms: C5*_21  and  O5*_22
REMARK                            x       y       z     vdW  Elec       q    Type
REMARK                         _______ _______ _______ _____ _____    ______ ____
ROOT
ATOM      1  O4* UNL     1      36.169 -23.072 -14.346  0.00  0.00    -0.333 OA
ATOM      2  C2* UNL     1      36.116 -25.278 -15.208  0.00  0.00    +0.187 C 
ATOM      3  C3* UNL     1      37.561 -24.910 -14.934  0.00  0.00    +0.171 C 
ATOM      4  C1* UNL     1      35.380 -24.275 -14.337  0.00  0.00    +0.223 C 
ATOM      5  C4* UNL     1      37.495 -23.389 -14.829  0.00  0.00    +0.175 C 
ENDROOT
BRANCH   4   6
ATOM      6  N   UNL     1      34.005 -24.050 -14.851  0.00  0.00    -0.279 N 
ATOM      7  C   UNL     1      32.953 -24.415 -14.096  0.00  0.00    +0.124 C 
ATOM      8  C   UNL     1      33.841 -23.485 -16.061  0.00  0.00    +0.063 C 
ATOM      9  C   UNL     1      31.658 -24.216 -14.552  0.00  0.00    +0.051 C 
ATOM     10  C   UNL     1      32.568 -23.261 -16.567  0.00  0.00    +0.016 C 
ATOM     11  C   UNL     1      31.467 -23.633 -15.800  0.00  0.00    +0.003 C 
BRANCH   9  14
ATOM     12  O   UNL     1      30.423 -24.266 -12.546  0.00  0.00    -0.271 OA
ATOM     13  N   UNL     1      29.525 -25.376 -14.340  0.00  0.00    -0.326 N 
ATOM     14  C   UNL     1      30.520 -24.610 -13.737  0.00  0.00    +0.240 C 
ATOM     15  H   UNL     1      28.740 -25.661 -13.818  0.00  0.00    +0.145 HD
ATOM     16  H   UNL     1      29.607 -25.632 -15.287  0.00  0.00    +0.145 HD
ENDBRANCH   9  14
ENDBRANCH   4   6
BRANCH   2  17
ATOM     17  O2* UNL     1      35.808 -26.611 -14.855  0.00  0.00    -0.378 OA
ATOM     18  H2* UNL     1      35.445 -26.631 -13.955  0.00  0.00    +0.211 HD
ENDBRANCH   2  17
BRANCH   3  19
ATOM     19  O3* UNL     1      37.957 -25.442 -13.670  0.00  0.00    -0.379 OA
ATOM     20  H3* UNL     1      37.890 -24.751 -12.993  0.00  0.00    +0.211 HD
ENDBRANCH   3  19
BRANCH   5  21
ATOM     21  C5* UNL     1      37.700 -22.692 -16.165  0.00  0.00    +0.169 C 
BRANCH  21  22
ATOM     22  O5* UNL     1      37.043 -21.438 -16.129  0.00  0.00    -0.379 OA
ATOM     23  H5* UNL     1      36.443 -21.408 -15.367  0.00  0.00    +0.211 HD
ENDBRANCH  21  22
ENDBRANCH   5  21
TORSDOF 6
ENDMDL
MODEL 9
REMARK VINA RESULT:      -7.7      2.507      5.769
REMARK  Name = 439924
REMARK  6 active torsions:
REMARK  status: ('A' for Active; 'I' for Inactive)
REMARK    1  A    between atoms: C2*_2  and  O2*_17
REMARK    2  A    between atoms: C3*_3  and  O3*_19
REMARK    3  A    between atoms: C1*_4  and  N_6
REMARK    4  A    between atoms: C4*_5  and  C5*_21
REMARK    5  A    between atoms: C_9  and  C_14
REMARK    6  A    between atoms: C5*_21  and  O5*_22
REMARK                            x       y       z     vdW  Elec       q    Type
REMARK                         _______ _______ _______ _____ _____    ______ ____
ROOT
ATOM      1  O4* UNL     1      30.907 -24.209 -15.937  0.00  0.00    -0.333 OA
ATOM      2  C2* UNL     1      31.970 -23.108 -14.129  0.00  0.00    +0.187 C 
ATOM      3  C3* UNL     1      30.589 -23.540 -13.676  0.00  0.00    +0.171 C 
ATOM      4  C1* UNL     1      32.194 -24.020 -15.323  0.00  0.00    +0.223 C 
ATOM      5  C4* UNL     1      29.881 -23.807 -15.001  0.00  0.00    +0.175 C 
ENDROOT
BRANCH   4   6
ATOM      6  N   UNL     1      33.180 -23.421 -16.257  0.00  0.00    -0.279 N 
ATOM      7  C   UNL     1      34.446 -23.228 -15.842  0.00  0.00    +0.124 C 
ATOM      8  C   UNL     1      32.788 -23.084 -17.499  0.00  0.00    +0.063 C 
ATOM      9  C   UNL     1      35.388 -22.671 -16.695  0.00  0.00    +0.051 C 
ATOM     10  C   UNL     1      33.688 -22.523 -18.394  0.00  0.00    +0.016 C 
ATOM     11  C   UNL     1      35.001 -22.316 -17.983  0.00  0.00    +0.003 C 
BRANCH   9  14
ATOM     12  O   UNL     1      37.381 -23.345 -15.635  0.00  0.00    -0.271 OA
ATOM     13  N   UNL     1      37.355 -21.240 -16.545  0.00  0.00    -0.326 N 
ATOM     14  C   UNL     1      36.755 -22.462 -16.248  0.00  0.00    +0.240 C 
ATOM     15  H   UNL     1      38.280 -21.064 -16.258  0.00  0.00    +0.145 HD
ATOM     16  H   UNL     1      36.854 -20.554 -17.041  0.00  0.00    +0.145 HD
ENDBRANCH   9  14
ENDBRANCH   4   6
BRANCH   2  17
ATOM     17  O2* UNL     1      32.958 -23.284 -13.136  0.00  0.00    -0.378 OA
ATOM     18  H2* UNL     1      32.714 -24.031 -12.567  0.00  0.00    +0.211 HD
ENDBRANCH   2  17
BRANCH   3  19
ATOM     19  O3* UNL     1      30.688 -24.766 -12.951  0.00  0.00    -0.379 OA
ATOM     20  H3* UNL     1      30.285 -24.657 -12.076  0.00  0.00    +0.211 HD
ENDBRANCH   3  19
BRANCH   5  21
ATOM     21  C5* UNL     1      29.178 -22.577 -15.556  0.00  0.00    +0.169 C 
BRANCH  21  22
ATOM     22  O5* UNL     1      29.415 -22.510 -16.951  0.00  0.00    -0.379 OA
ATOM     23  H5* UNL     1      30.241 -22.028 -17.117  0.00  0.00    +0.211 HD
ENDBRANCH  21  22
ENDBRANCH   5  21
TORSDOF 6
ENDMDL
