MODEL 1
REMARK VINA RESULT:      -8.3      0.000      0.000
REMARK  Name = 11794741
REMARK  5 active torsions:
REMARK  status: ('A' for Active; 'I' for Inactive)
REMARK    1  A    between atoms: C_8  and  O_23
REMARK    2  A    between atoms: C_8  and  C_28
REMARK    3  A    between atoms: C_9  and  O_25
REMARK    4  A    between atoms: C_28  and  C_29
REMARK    5  A    between atoms: C_29  and  O_30
REMARK                            x       y       z     vdW  Elec       q    Type
REMARK                         _______ _______ _______ _____ _____    ______ ____
ROOT
ATOM      1  F   UNL     1      35.493 -25.494 -14.859  0.00  0.00    -0.237 F 
ATOM      2  O   UNL     1      40.268 -26.465 -14.564  0.00  0.00    -0.287 OA
ATOM      3  C   UNL     1      32.512 -23.673 -14.451  0.00  0.00    +0.035 C 
ATOM      4  C   UNL     1      33.554 -23.560 -15.593  0.00  0.00    +0.010 C 
ATOM      5  C   UNL     1      34.968 -23.211 -15.100  0.00  0.00    +0.034 C 
ATOM      6  C   UNL     1      35.458 -24.326 -14.115  0.00  0.00    +0.164 C 
ATOM      7  C   UNL     1      32.980 -24.810 -13.520  0.00  0.00    +0.035 C 
ATOM      8  C   UNL     1      31.227 -23.958 -15.291  0.00  0.00    +0.156 C 
ATOM      9  C   UNL     1      34.420 -24.615 -12.989  0.00  0.00    +0.141 C 
ATOM     10  C   UNL     1      36.946 -24.083 -13.639  0.00  0.00    +0.064 C 
ATOM     11  C   UNL     1      32.880 -22.632 -16.605  0.00  0.00    +0.025 C 
ATOM     12  C   UNL     1      35.928 -23.061 -16.294  0.00  0.00    +0.007 C 
ATOM     13  C   UNL     1      31.426 -23.049 -16.495  0.00  0.00    -0.014 C 
ATOM     14  C   UNL     1      32.342 -22.351 -13.648  0.00  0.00    +0.003 C 
ATOM     15  C   UNL     1      37.367 -22.825 -15.851  0.00  0.00    +0.023 C 
ATOM     16  C   UNL     1      37.806 -23.905 -14.896  0.00  0.00    -0.035 C 
ATOM     17  C   UNL     1      37.128 -22.827 -12.756  0.00  0.00    +0.011 C 
ATOM     18  C   UNL     1      37.429 -25.259 -12.803  0.00  0.00    -0.017 C 
ATOM     19  C   UNL     1      38.867 -24.674 -15.188  0.00  0.00    +0.034 C 
ATOM     20  C   UNL     1      30.481 -22.654 -17.358  0.00  0.00    -0.006 C 
ATOM     21  C   UNL     1      38.484 -26.029 -13.090  0.00  0.00    +0.038 C 
ATOM     22  C   UNL     1      39.287 -25.777 -14.299  0.00  0.00    +0.195 C 
ENDROOT
BRANCH   8  23
ATOM     23  O   UNL     1      31.194 -25.311 -15.729  0.00  0.00    -0.376 OA
ATOM     24  H   UNL     1      32.090 -25.682 -15.702  0.00  0.00    +0.211 HD
ENDBRANCH   8  23
BRANCH   9  25
ATOM     25  O   UNL     1      34.433 -23.608 -11.990  0.00  0.00    -0.382 OA
ATOM     26  H   UNL     1      33.571 -23.583 -11.545  0.00  0.00    +0.210 HD
ENDBRANCH   9  25
BRANCH   8  28
ATOM     27  O   UNL     1      29.359 -22.635 -14.611  0.00  0.00    -0.291 OA
ATOM     28  C   UNL     1      29.946 -23.714 -14.540  0.00  0.00    +0.207 C 
BRANCH  28  29
ATOM     29  C   UNL     1      29.429 -24.866 -13.704  0.00  0.00    +0.205 C 
BRANCH  29  30
ATOM     30  O   UNL     1      28.458 -25.603 -14.415  0.00  0.00    -0.375 OA
ATOM     31  H   UNL     1      27.820 -24.992 -14.817  0.00  0.00    +0.211 HD
ENDBRANCH  29  30
ENDBRANCH  28  29
ENDBRANCH   8  28
TORSDOF 5
ENDMDL
MODEL 2
REMARK VINA RESULT:      -7.1     14.441     17.063
REMARK  Name = 11794741
REMARK  5 active torsions:
REMARK  status: ('A' for Active; 'I' for Inactive)
REMARK    1  A    between atoms: C_8  and  O_23
REMARK    2  A    between atoms: C_8  and  C_28
REMARK    3  A    between atoms: C_9  and  O_25
REMARK    4  A    between atoms: C_28  and  C_29
REMARK    5  A    between atoms: C_29  and  O_30
REMARK                            x       y       z     vdW  Elec       q    Type
REMARK                         _______ _______ _______ _____ _____    ______ ____
ROOT
ATOM      1  F   UNL     1      31.486  -9.495 -23.746  0.00  0.00    -0.237 F 
ATOM      2  O   UNL     1      30.403  -4.743 -23.463  0.00  0.00    -0.287 OA
ATOM      3  C   UNL     1      33.375 -12.431 -23.324  0.00  0.00    +0.035 C 
ATOM      4  C   UNL     1      32.414 -11.758 -22.312  0.00  0.00    +0.010 C 
ATOM      5  C   UNL     1      32.801 -10.310 -21.969  0.00  0.00    +0.034 C 
ATOM      6  C   UNL     1      32.791  -9.452 -23.281  0.00  0.00    +0.164 C 
ATOM      7  C   UNL     1      33.313 -11.608 -24.626  0.00  0.00    +0.035 C 
ATOM      8  C   UNL     1      32.742 -13.857 -23.383  0.00  0.00    +0.156 C 
ATOM      9  C   UNL     1      33.630 -10.108 -24.419  0.00  0.00    +0.141 C 
ATOM     10  C   UNL     1      33.088  -7.927 -22.992  0.00  0.00    +0.064 C 
ATOM     11  C   UNL     1      32.314 -12.778 -21.177  0.00  0.00    +0.025 C 
ATOM     12  C   UNL     1      31.834  -9.733 -20.919  0.00  0.00    +0.007 C 
ATOM     13  C   UNL     1      32.353 -14.094 -21.930  0.00  0.00    -0.014 C 
ATOM     14  C   UNL     1      34.840 -12.520 -22.808  0.00  0.00    +0.003 C 
ATOM     15  C   UNL     1      32.110  -8.262 -20.629  0.00  0.00    +0.023 C 
ATOM     16  C   UNL     1      32.106  -7.465 -21.909  0.00  0.00    -0.035 C 
ATOM     17  C   UNL     1      34.522  -7.649 -22.484  0.00  0.00    +0.011 C 
ATOM     18  C   UNL     1      32.926  -7.110 -24.266  0.00  0.00    -0.017 C 
ATOM     19  C   UNL     1      31.246  -6.446 -22.067  0.00  0.00    +0.034 C 
ATOM     20  C   UNL     1      32.077 -15.275 -21.363  0.00  0.00    -0.006 C 
ATOM     21  C   UNL     1      32.070  -6.096 -24.429  0.00  0.00    +0.038 C 
ATOM     22  C   UNL     1      31.179  -5.684 -23.331  0.00  0.00    +0.195 C 
ENDROOT
BRANCH   8  23
ATOM     23  O   UNL     1      31.568 -13.862 -24.186  0.00  0.00    -0.376 OA
ATOM     24  H   UNL     1      31.228 -14.769 -24.256  0.00  0.00    +0.211 HD
ENDBRANCH   8  23
BRANCH   9  25
ATOM     25  O   UNL     1      35.022  -9.933 -24.214  0.00  0.00    -0.382 OA
ATOM     26  H   UNL     1      35.512 -10.407 -24.904  0.00  0.00    +0.210 HD
ENDBRANCH   9  25
BRANCH   8  28
ATOM     27  O   UNL     1      34.521 -15.446 -23.260  0.00  0.00    -0.291 OA
ATOM     28  C   UNL     1      33.660 -14.905 -23.953  0.00  0.00    +0.207 C 
BRANCH  28  29
ATOM     29  C   UNL     1      33.461 -15.248 -25.414  0.00  0.00    +0.205 C 
BRANCH  29  30
ATOM     30  O   UNL     1      34.348 -16.272 -25.811  0.00  0.00    -0.375 OA
ATOM     31  H   UNL     1      34.738 -16.046 -26.670  0.00  0.00    +0.211 HD
ENDBRANCH  29  30
ENDBRANCH  28  29
ENDBRANCH   8  28
TORSDOF 5
ENDMDL
MODEL 3
REMARK VINA RESULT:      -6.9      1.842      7.042
REMARK  Name = 11794741
REMARK  5 active torsions:
REMARK  status: ('A' for Active; 'I' for Inactive)
REMARK    1  A    between atoms: C_8  and  O_23
REMARK    2  A    between atoms: C_8  and  C_28
REMARK    3  A    between atoms: C_9  and  O_25
REMARK    4  A    between atoms: C_28  and  C_29
REMARK    5  A    between atoms: C_29  and  O_30
REMARK                            x       y       z     vdW  Elec       q    Type
REMARK                         _______ _______ _______ _____ _____    ______ ____
ROOT
ATOM      1  F   UNL     1      32.087 -22.416 -14.407  0.00  0.00    -0.237 F 
ATOM      2  O   UNL     1      27.360 -21.616 -15.325  0.00  0.00    -0.287 OA
ATOM      3  C   UNL     1      35.173 -24.103 -14.468  0.00  0.00    +0.035 C 
ATOM      4  C   UNL     1      34.585 -23.145 -15.535  0.00  0.00    +0.010 C 
ATOM      5  C   UNL     1      33.228 -23.606 -16.090  0.00  0.00    +0.034 C 
ATOM      6  C   UNL     1      32.197 -23.702 -14.913  0.00  0.00    +0.164 C 
ATOM      7  C   UNL     1      34.174 -24.144 -13.294  0.00  0.00    +0.035 C 
ATOM      8  C   UNL     1      36.532 -23.386 -14.188  0.00  0.00    +0.156 C 
ATOM      9  C   UNL     1      32.742 -24.543 -13.720  0.00  0.00    +0.141 C 
ATOM     10  C   UNL     1      30.749 -24.080 -15.424  0.00  0.00    +0.064 C 
ATOM     11  C   UNL     1      35.744 -22.937 -16.510  0.00  0.00    +0.025 C 
ATOM     12  C   UNL     1      32.739 -22.635 -17.181  0.00  0.00    +0.007 C 
ATOM     13  C   UNL     1      36.941 -22.926 -15.580  0.00  0.00    -0.014 C 
ATOM     14  C   UNL     1      35.429 -25.538 -15.012  0.00  0.00    +0.003 C 
ATOM     15  C   UNL     1      31.344 -22.989 -17.684  0.00  0.00    +0.023 C 
ATOM     16  C   UNL     1      30.379 -23.085 -16.530  0.00  0.00    -0.035 C 
ATOM     17  C   UNL     1      30.641 -25.506 -16.010  0.00  0.00    +0.011 C 
ATOM     18  C   UNL     1      29.755 -24.019 -14.274  0.00  0.00    -0.017 C 
ATOM     19  C   UNL     1      29.293 -22.296 -16.491  0.00  0.00    +0.034 C 
ATOM     20  C   UNL     1      38.169 -22.555 -15.966  0.00  0.00    -0.006 C 
ATOM     21  C   UNL     1      28.673 -23.235 -14.229  0.00  0.00    +0.038 C 
ATOM     22  C   UNL     1      28.360 -22.328 -15.347  0.00  0.00    +0.195 C 
ENDROOT
BRANCH   8  23
ATOM     23  O   UNL     1      36.347 -22.248 -13.356  0.00  0.00    -0.376 OA
ATOM     24  H   UNL     1      35.878 -22.510 -12.548  0.00  0.00    +0.211 HD
ENDBRANCH   8  23
BRANCH   9  25
ATOM     25  O   UNL     1      32.690 -25.935 -13.991  0.00  0.00    -0.382 OA
ATOM     26  H   UNL     1      32.278 -26.395 -13.242  0.00  0.00    +0.210 HD
ENDBRANCH   9  25
BRANCH   8  28
ATOM     27  O   UNL     1      38.245 -25.049 -14.142  0.00  0.00    -0.291 OA
ATOM     28  C   UNL     1      37.548 -24.260 -13.505  0.00  0.00    +0.207 C 
BRANCH  28  29
ATOM     29  C   UNL     1      37.660 -24.110 -12.002  0.00  0.00    +0.205 C 
BRANCH  29  30
ATOM     30  O   UNL     1      38.537 -23.055 -11.670  0.00  0.00    -0.375 OA
ATOM     31  H   UNL     1      38.561 -22.945 -10.707  0.00  0.00    +0.211 HD
ENDBRANCH  29  30
ENDBRANCH  28  29
ENDBRANCH   8  28
TORSDOF 5
ENDMDL
MODEL 4
REMARK VINA RESULT:      -6.3     10.871     13.400
REMARK  Name = 11794741
REMARK  5 active torsions:
REMARK  status: ('A' for Active; 'I' for Inactive)
REMARK    1  A    between atoms: C_8  and  O_23
REMARK    2  A    between atoms: C_8  and  C_28
REMARK    3  A    between atoms: C_9  and  O_25
REMARK    4  A    between atoms: C_28  and  C_29
REMARK    5  A    between atoms: C_29  and  O_30
REMARK                            x       y       z     vdW  Elec       q    Type
REMARK                         _______ _______ _______ _____ _____    ______ ____
ROOT
ATOM      1  F   UNL     1      35.416 -14.297 -23.936  0.00  0.00    -0.237 F 
ATOM      2  O   UNL     1      34.718  -9.845 -25.812  0.00  0.00    -0.287 OA
ATOM      3  C   UNL     1      34.568 -17.376 -22.462  0.00  0.00    +0.035 C 
ATOM      4  C   UNL     1      34.546 -16.996 -23.964  0.00  0.00    +0.010 C 
ATOM      5  C   UNL     1      33.635 -15.799 -24.281  0.00  0.00    +0.034 C 
ATOM      6  C   UNL     1      34.132 -14.548 -23.478  0.00  0.00    +0.164 C 
ATOM      7  C   UNL     1      35.110 -16.155 -21.692  0.00  0.00    +0.035 C 
ATOM      8  C   UNL     1      35.505 -18.624 -22.517  0.00  0.00    +0.156 C 
ATOM      9  C   UNL     1      34.314 -14.856 -21.961  0.00  0.00    +0.141 C 
ATOM     10  C   UNL     1      33.297 -13.252 -23.826  0.00  0.00    +0.064 C 
ATOM     11  C   UNL     1      34.281 -18.327 -24.669  0.00  0.00    +0.025 C 
ATOM     12  C   UNL     1      33.624 -15.521 -25.795  0.00  0.00    +0.007 C 
ATOM     13  C   UNL     1      35.056 -19.302 -23.804  0.00  0.00    -0.014 C 
ATOM     14  C   UNL     1      33.169 -17.783 -21.916  0.00  0.00    +0.003 C 
ATOM     15  C   UNL     1      32.821 -14.274 -26.146  0.00  0.00    +0.023 C 
ATOM     16  C   UNL     1      33.314 -13.092 -25.351  0.00  0.00    -0.035 C 
ATOM     17  C   UNL     1      31.822 -13.311 -23.370  0.00  0.00    +0.011 C 
ATOM     18  C   UNL     1      33.904 -12.037 -23.139  0.00  0.00    -0.017 C 
ATOM     19  C   UNL     1      33.773 -11.999 -25.981  0.00  0.00    +0.034 C 
ATOM     20  C   UNL     1      35.292 -20.572 -24.159  0.00  0.00    -0.006 C 
ATOM     21  C   UNL     1      34.364 -10.947 -23.761  0.00  0.00    +0.038 C 
ATOM     22  C   UNL     1      34.315 -10.848 -25.231  0.00  0.00    +0.195 C 
ENDROOT
BRANCH   8  23
ATOM     23  O   UNL     1      36.866 -18.235 -22.646  0.00  0.00    -0.376 OA
ATOM     24  H   UNL     1      37.375 -18.964 -23.038  0.00  0.00    +0.211 HD
ENDBRANCH   8  23
BRANCH   9  25
ATOM     25  O   UNL     1      33.070 -14.904 -21.281  0.00  0.00    -0.382 OA
ATOM     26  H   UNL     1      32.356 -15.043 -21.923  0.00  0.00    +0.210 HD
ENDBRANCH   9  25
BRANCH   8  28
ATOM     27  O   UNL     1      34.369 -20.064 -20.988  0.00  0.00    -0.291 OA
ATOM     28  C   UNL     1      35.418 -19.501 -21.297  0.00  0.00    +0.207 C 
BRANCH  28  29
ATOM     29  C   UNL     1      36.688 -19.646 -20.484  0.00  0.00    +0.205 C 
BRANCH  29  30
ATOM     30  O   UNL     1      36.469 -20.473 -19.361  0.00  0.00    -0.375 OA
ATOM     31  H   UNL     1      36.879 -20.070 -18.580  0.00  0.00    +0.211 HD
ENDBRANCH  29  30
ENDBRANCH  28  29
ENDBRANCH   8  28
TORSDOF 5
ENDMDL
MODEL 5
REMARK VINA RESULT:      -6.2      1.665      7.179
REMARK  Name = 11794741
REMARK  5 active torsions:
REMARK  status: ('A' for Active; 'I' for Inactive)
REMARK    1  A    between atoms: C_8  and  O_23
REMARK    2  A    between atoms: C_8  and  C_28
REMARK    3  A    between atoms: C_9  and  O_25
REMARK    4  A    between atoms: C_28  and  C_29
REMARK    5  A    between atoms: C_29  and  O_30
REMARK                            x       y       z     vdW  Elec       q    Type
REMARK                         _______ _______ _______ _____ _____    ______ ____
ROOT
ATOM      1  F   UNL     1      33.081 -25.549 -14.295  0.00  0.00    -0.237 F 
ATOM      2  O   UNL     1      28.201 -25.646 -14.378  0.00  0.00    -0.287 OA
ATOM      3  C   UNL     1      36.316 -24.231 -14.703  0.00  0.00    +0.035 C 
ATOM      4  C   UNL     1      35.365 -24.074 -13.490  0.00  0.00    +0.010 C 
ATOM      5  C   UNL     1      34.014 -23.433 -13.848  0.00  0.00    +0.034 C 
ATOM      6  C   UNL     1      33.288 -24.326 -14.913  0.00  0.00    +0.164 C 
ATOM      7  C   UNL     1      35.611 -25.155 -15.717  0.00  0.00    +0.035 C 
ATOM      8  C   UNL     1      37.567 -24.828 -13.984  0.00  0.00    +0.156 C 
ATOM      9  C   UNL     1      34.206 -24.656 -16.128  0.00  0.00    +0.141 C 
ATOM     10  C   UNL     1      31.848 -23.777 -15.261  0.00  0.00    +0.064 C 
ATOM     11  C   UNL     1      36.239 -23.400 -12.431  0.00  0.00    +0.025 C 
ATOM     12  C   UNL     1      33.152 -23.261 -12.585  0.00  0.00    +0.007 C 
ATOM     13  C   UNL     1      37.589 -24.044 -12.679  0.00  0.00    -0.014 C 
ATOM     14  C   UNL     1      36.682 -22.873 -15.370  0.00  0.00    +0.003 C 
ATOM     15  C   UNL     1      31.759 -22.731 -12.905  0.00  0.00    +0.023 C 
ATOM     16  C   UNL     1      31.091 -23.602 -13.939  0.00  0.00    -0.035 C 
ATOM     17  C   UNL     1      31.851 -22.415 -15.992  0.00  0.00    +0.011 C 
ATOM     18  C   UNL     1      31.125 -24.749 -16.183  0.00  0.00    -0.017 C 
ATOM     19  C   UNL     1      29.925 -24.206 -13.661  0.00  0.00    +0.034 C 
ATOM     20  C   UNL     1      38.628 -23.919 -11.844  0.00  0.00    -0.006 C 
ATOM     21  C   UNL     1      29.965 -25.354 -15.911  0.00  0.00    +0.038 C 
ATOM     22  C   UNL     1      29.275 -25.110 -14.632  0.00  0.00    +0.195 C 
ENDROOT
BRANCH   8  23
ATOM     23  O   UNL     1      37.380 -26.208 -13.695  0.00  0.00    -0.376 OA
ATOM     24  H   UNL     1      37.663 -26.389 -12.784  0.00  0.00    +0.211 HD
ENDBRANCH   8  23
BRANCH   9  25
ATOM     25  O   UNL     1      34.326 -23.553 -17.011  0.00  0.00    -0.382 OA
ATOM     26  H   UNL     1      34.807 -23.827 -17.808  0.00  0.00    +0.210 HD
ENDBRANCH   9  25
BRANCH   8  28
ATOM     27  O   UNL     1      39.096 -23.712 -15.440  0.00  0.00    -0.291 OA
ATOM     28  C   UNL     1      38.835 -24.722 -14.787  0.00  0.00    +0.207 C 
BRANCH  28  29
ATOM     29  C   UNL     1      39.760 -25.920 -14.741  0.00  0.00    +0.205 C 
BRANCH  29  30
ATOM     30  O   UNL     1      40.493 -26.031 -15.942  0.00  0.00    -0.375 OA
ATOM     31  H   UNL     1      39.936 -25.754 -16.687  0.00  0.00    +0.211 HD
ENDBRANCH  29  30
ENDBRANCH  28  29
ENDBRANCH   8  28
TORSDOF 5
ENDMDL
MODEL 6
REMARK VINA RESULT:      -6.0     14.274     16.528
REMARK  Name = 11794741
REMARK  5 active torsions:
REMARK  status: ('A' for Active; 'I' for Inactive)
REMARK    1  A    between atoms: C_8  and  O_23
REMARK    2  A    between atoms: C_8  and  C_28
REMARK    3  A    between atoms: C_9  and  O_25
REMARK    4  A    between atoms: C_28  and  C_29
REMARK    5  A    between atoms: C_29  and  O_30
REMARK                            x       y       z     vdW  Elec       q    Type
REMARK                         _______ _______ _______ _____ _____    ______ ____
ROOT
ATOM      1  F   UNL     1      34.643 -12.185 -22.385  0.00  0.00    -0.237 F 
ATOM      2  O   UNL     1      35.117 -16.962 -21.501  0.00  0.00    -0.287 OA
ATOM      3  C   UNL     1      33.204  -9.239 -23.659  0.00  0.00    +0.035 C 
ATOM      4  C   UNL     1      32.866  -9.976 -22.339  0.00  0.00    +0.010 C 
ATOM      5  C   UNL     1      32.417 -11.431 -22.546  0.00  0.00    +0.034 C 
ATOM      6  C   UNL     1      33.566 -12.227 -23.256  0.00  0.00    +0.164 C 
ATOM      7  C   UNL     1      34.372 -10.001 -24.319  0.00  0.00    +0.035 C 
ATOM      8  C   UNL     1      33.541  -7.823 -23.094  0.00  0.00    +0.156 C 
ATOM      9  C   UNL     1      34.077 -11.504 -24.539  0.00  0.00    +0.141 C 
ATOM     10  C   UNL     1      33.212 -13.759 -23.419  0.00  0.00    +0.064 C 
ATOM     11  C   UNL     1      31.920  -9.012 -21.621  0.00  0.00    +0.025 C 
ATOM     12  C   UNL     1      32.046 -12.074 -21.198  0.00  0.00    +0.007 C 
ATOM     13  C   UNL     1      32.500  -7.662 -21.996  0.00  0.00    -0.014 C 
ATOM     14  C   UNL     1      31.995  -9.150 -24.635  0.00  0.00    +0.003 C 
ATOM     15  C   UNL     1      31.701 -13.552 -21.339  0.00  0.00    +0.023 C 
ATOM     16  C   UNL     1      32.818 -14.287 -22.035  0.00  0.00    -0.035 C 
ATOM     17  C   UNL     1      32.039 -14.036 -24.387  0.00  0.00    +0.011 C 
ATOM     18  C   UNL     1      34.407 -14.517 -23.977  0.00  0.00    -0.017 C 
ATOM     19  C   UNL     1      33.434 -15.312 -21.424  0.00  0.00    +0.034 C 
ATOM     20  C   UNL     1      32.124  -6.514 -21.418  0.00  0.00    -0.006 C 
ATOM     21  C   UNL     1      35.026 -15.537 -23.373  0.00  0.00    +0.038 C 
ATOM     22  C   UNL     1      34.569 -16.015 -22.057  0.00  0.00    +0.195 C 
ENDROOT
BRANCH   8  23
ATOM     23  O   UNL     1      34.839  -7.801 -22.513  0.00  0.00    -0.376 OA
ATOM     24  H   UNL     1      35.238  -6.926 -22.648  0.00  0.00    +0.211 HD
ENDBRANCH   8  23
BRANCH   9  25
ATOM     25  O   UNL     1      33.179 -11.665 -25.626  0.00  0.00    -0.382 OA
ATOM     26  H   UNL     1      32.772 -12.544 -25.581  0.00  0.00    +0.210 HD
ENDBRANCH   9  25
BRANCH   8  28
ATOM     27  O   UNL     1      32.542  -5.988 -24.252  0.00  0.00    -0.291 OA
ATOM     28  C   UNL     1      33.513  -6.734 -24.133  0.00  0.00    +0.207 C 
BRANCH  28  29
ATOM     29  C   UNL     1      34.741  -6.614 -25.012  0.00  0.00    +0.205 C 
BRANCH  29  30
ATOM     30  O   UNL     1      34.486  -5.767 -26.112  0.00  0.00    -0.375 OA
ATOM     31  H   UNL     1      34.392  -6.302 -26.916  0.00  0.00    +0.211 HD
ENDBRANCH  29  30
ENDBRANCH  28  29
ENDBRANCH   8  28
TORSDOF 5
ENDMDL
MODEL 7
REMARK VINA RESULT:      -5.4     18.347     20.556
REMARK  Name = 11794741
REMARK  5 active torsions:
REMARK  status: ('A' for Active; 'I' for Inactive)
REMARK    1  A    between atoms: C_8  and  O_23
REMARK    2  A    between atoms: C_8  and  C_28
REMARK    3  A    between atoms: C_9  and  O_25
REMARK    4  A    between atoms: C_28  and  C_29
REMARK    5  A    between atoms: C_29  and  O_30
REMARK                            x       y       z     vdW  Elec       q    Type
REMARK                         _______ _______ _______ _____ _____    ______ ____
ROOT
ATOM      1  F   UNL     1      31.338  -8.122 -24.286  0.00  0.00    -0.237 F 
ATOM      2  O   UNL     1      32.246 -12.757 -23.051  0.00  0.00    -0.287 OA
ATOM      3  C   UNL     1      31.558  -4.615 -24.145  0.00  0.00    +0.035 C 
ATOM      4  C   UNL     1      32.496  -5.604 -24.882  0.00  0.00    +0.010 C 
ATOM      5  C   UNL     1      33.141  -6.645 -23.953  0.00  0.00    +0.034 C 
ATOM      6  C   UNL     1      32.013  -7.483 -23.259  0.00  0.00    +0.164 C 
ATOM      7  C   UNL     1      30.424  -5.449 -23.514  0.00  0.00    +0.035 C 
ATOM      8  C   UNL     1      31.151  -3.696 -25.340  0.00  0.00    +0.156 C 
ATOM      9  C   UNL     1      30.935  -6.579 -22.589  0.00  0.00    +0.141 C 
ATOM     10  C   UNL     1      32.605  -8.639 -22.358  0.00  0.00    +0.064 C 
ATOM     11  C   UNL     1      33.407  -4.692 -25.705  0.00  0.00    +0.025 C 
ATOM     12  C   UNL     1      34.099  -7.551 -24.748  0.00  0.00    +0.007 C 
ATOM     13  C   UNL     1      32.456  -3.584 -26.115  0.00  0.00    -0.014 C 
ATOM     14  C   UNL     1      32.288  -3.780 -23.054  0.00  0.00    +0.003 C 
ATOM     15  C   UNL     1      34.679  -8.670 -23.891  0.00  0.00    +0.023 C 
ATOM     16  C   UNL     1      33.572  -9.450 -23.228  0.00  0.00    -0.035 C 
ATOM     17  C   UNL     1      33.384  -8.137 -21.120  0.00  0.00    +0.011 C 
ATOM     18  C   UNL     1      31.481  -9.514 -21.822  0.00  0.00    -0.017 C 
ATOM     19  C   UNL     1      33.450 -10.769 -23.449  0.00  0.00    +0.034 C 
ATOM     20  C   UNL     1      32.758  -2.658 -27.034  0.00  0.00    -0.006 C 
ATOM     21  C   UNL     1      31.354 -10.827 -22.040  0.00  0.00    +0.038 C 
ATOM     22  C   UNL     1      32.343 -11.549 -22.859  0.00  0.00    +0.195 C 
ENDROOT
BRANCH   8  23
ATOM     23  O   UNL     1      30.175  -4.326 -26.160  0.00  0.00    -0.376 OA
ATOM     24  H   UNL     1      30.479  -5.217 -26.398  0.00  0.00    +0.211 HD
ENDBRANCH   8  23
BRANCH   9  25
ATOM     25  O   UNL     1      31.396  -6.029 -21.366  0.00  0.00    -0.382 OA
ATOM     26  H   UNL     1      31.887  -5.211 -21.544  0.00  0.00    +0.210 HD
ENDBRANCH   9  25
BRANCH   8  28
ATOM     27  O   UNL     1      30.947  -1.810 -23.890  0.00  0.00    -0.291 OA
ATOM     28  C   UNL     1      30.571  -2.373 -24.916  0.00  0.00    +0.207 C 
BRANCH  28  29
ATOM     29  C   UNL     1      29.509  -1.786 -25.822  0.00  0.00    +0.205 C 
BRANCH  29  30
ATOM     30  O   UNL     1      28.251  -1.787 -25.182  0.00  0.00    -0.375 OA
ATOM     31  H   UNL     1      27.585  -2.162 -25.779  0.00  0.00    +0.211 HD
ENDBRANCH  29  30
ENDBRANCH  28  29
ENDBRANCH   8  28
TORSDOF 5
ENDMDL
