MODEL 1
REMARK VINA RESULT:      -9.4      0.000      0.000
REMARK  Name = 71264
REMARK  5 active torsions:
REMARK  status: ('A' for Active; 'I' for Inactive)
REMARK    1  A    between atoms: C_11  and  C_25
REMARK    2  A    between atoms: C_14  and  N_19
REMARK    3  A    between atoms: C_20  and  O_22
REMARK    4  A    between atoms: O_22  and  C_23
REMARK    5  A    between atoms: C_25  and  N_26
REMARK                            x       y       z     vdW  Elec       q    Type
REMARK                         _______ _______ _______ _____ _____    ______ ____
ROOT
ATOM      1  O   UNL     1      33.361 -12.664 -26.283  0.00  0.00    -0.276 OA
ATOM      2  N   UNL     1      33.242 -12.383 -23.955  0.00  0.00    -0.240 N 
ATOM      3  C   UNL     1      31.180 -11.413 -22.206  0.00  0.00    +0.032 C 
ATOM      4  C   UNL     1      31.973 -10.116 -22.182  0.00  0.00    +0.032 C 
ATOM      5  C   UNL     1      32.070 -12.548 -21.800  0.00  0.00    -0.008 C 
ATOM      6  C   UNL     1      33.075 -12.985 -22.673  0.00  0.00    +0.055 C 
ATOM      7  C   UNL     1      33.154  -9.995 -23.124  0.00  0.00    -0.008 C 
ATOM      8  C   UNL     1      33.690 -11.009 -23.951  0.00  0.00    +0.054 C 
ATOM      9  C   UNL     1      33.916 -14.040 -22.282  0.00  0.00    +0.030 C 
ATOM     10  C   UNL     1      31.915 -13.169 -20.552  0.00  0.00    -0.002 C 
ATOM     11  C   UNL     1      33.151 -13.118 -25.154  0.00  0.00    +0.212 C 
ATOM     12  C   UNL     1      33.722  -8.699 -23.178  0.00  0.00    -0.003 C 
ATOM     13  C   UNL     1      34.765 -10.668 -24.804  0.00  0.00    +0.015 C 
ATOM     14  C   UNL     1      33.755 -14.652 -21.040  0.00  0.00    +0.054 C 
ATOM     15  C   UNL     1      32.753 -14.218 -20.176  0.00  0.00    +0.015 C 
ATOM     16  C   UNL     1      34.779  -8.392 -24.029  0.00  0.00    -0.000 C 
ATOM     17  C   UNL     1      35.301  -9.380 -24.845  0.00  0.00    +0.001 C 
ENDROOT
BRANCH  14  19
ATOM     18  O   UNL     1      34.165 -17.392 -22.200  0.00  0.00    -0.226 OA
ATOM     19  N   UNL     1      34.606 -15.687 -20.651  0.00  0.00    -0.250 N 
ATOM     20  C   UNL     1      34.760 -16.946 -21.226  0.00  0.00    +0.405 C 
ATOM     21  H   UNL     1      35.172 -15.503 -19.868  0.00  0.00    +0.158 HD
BRANCH  20  22
ATOM     22  O   UNL     1      35.705 -17.650 -20.528  0.00  0.00    -0.434 OA
BRANCH  22  23
ATOM     23  C   UNL     1      36.241 -18.805 -21.185  0.00  0.00    +0.210 C 
ATOM     24  C   UNL     1      35.685 -20.049 -20.528  0.00  0.00    +0.051 C 
ENDBRANCH  22  23
ENDBRANCH  20  22
ENDBRANCH  14  19
BRANCH  11  25
ATOM     25  C   UNL     1      32.670 -14.552 -25.048  0.00  0.00    +0.011 C 
BRANCH  25  26
ATOM     26  N   UNL     1      33.431 -15.300 -26.022  0.00  0.00    +0.390 N 
ATOM     27  C   UNL     1      34.404 -16.186 -25.368  0.00  0.00    -0.100 C 
ATOM     28  C   UNL     1      32.548 -16.090 -26.890  0.00  0.00    -0.100 C 
ATOM     29  H   UNL     1      33.936 -14.624 -26.595  0.00  0.00    -0.079 HD
ENDBRANCH  25  26
ENDBRANCH  11  25
TORSDOF 5
ENDMDL
MODEL 2
REMARK VINA RESULT:      -8.4      3.006      5.914
REMARK  Name = 71264
REMARK  5 active torsions:
REMARK  status: ('A' for Active; 'I' for Inactive)
REMARK    1  A    between atoms: C_11  and  C_25
REMARK    2  A    between atoms: C_14  and  N_19
REMARK    3  A    between atoms: C_20  and  O_22
REMARK    4  A    between atoms: O_22  and  C_23
REMARK    5  A    between atoms: C_25  and  N_26
REMARK                            x       y       z     vdW  Elec       q    Type
REMARK                         _______ _______ _______ _____ _____    ______ ____
ROOT
ATOM      1  O   UNL     1      31.378  -7.412 -21.116  0.00  0.00    -0.276 OA
ATOM      2  N   UNL     1      32.650  -7.991 -23.002  0.00  0.00    -0.240 N 
ATOM      3  C   UNL     1      35.313  -7.321 -23.846  0.00  0.00    +0.032 C 
ATOM      4  C   UNL     1      34.641  -6.325 -24.777  0.00  0.00    +0.032 C 
ATOM      5  C   UNL     1      34.745  -8.687 -24.084  0.00  0.00    -0.008 C 
ATOM      6  C   UNL     1      33.437  -8.974 -23.673  0.00  0.00    +0.055 C 
ATOM      7  C   UNL     1      33.146  -6.118 -24.630  0.00  0.00    -0.008 C 
ATOM      8  C   UNL     1      32.267  -6.845 -23.794  0.00  0.00    +0.054 C 
ATOM      9  C   UNL     1      32.905 -10.251 -23.911  0.00  0.00    +0.030 C 
ATOM     10  C   UNL     1      35.505  -9.675 -24.725  0.00  0.00    -0.002 C 
ATOM     11  C   UNL     1      32.126  -8.195 -21.710  0.00  0.00    +0.212 C 
ATOM     12  C   UNL     1      32.631  -5.047 -25.398  0.00  0.00    -0.003 C 
ATOM     13  C   UNL     1      30.909  -6.451 -23.762  0.00  0.00    +0.015 C 
ATOM     14  C   UNL     1      33.667 -11.229 -24.549  0.00  0.00    +0.054 C 
ATOM     15  C   UNL     1      34.968 -10.942 -24.954  0.00  0.00    +0.015 C 
ATOM     16  C   UNL     1      31.289  -4.680 -25.344  0.00  0.00    -0.000 C 
ATOM     17  C   UNL     1      30.427  -5.384 -24.521  0.00  0.00    +0.001 C 
ENDROOT
BRANCH  14  19
ATOM     18  O   UNL     1      34.156 -13.872 -23.210  0.00  0.00    -0.226 OA
ATOM     19  N   UNL     1      33.125 -12.490 -24.800  0.00  0.00    -0.250 N 
ATOM     20  C   UNL     1      33.386 -13.691 -24.145  0.00  0.00    +0.405 C 
ATOM     21  H   UNL     1      32.473 -12.537 -25.535  0.00  0.00    +0.158 HD
BRANCH  20  22
ATOM     22  O   UNL     1      32.636 -14.688 -24.712  0.00  0.00    -0.434 OA
BRANCH  22  23
ATOM     23  C   UNL     1      33.194 -15.313 -25.874  0.00  0.00    +0.210 C 
ATOM     24  C   UNL     1      34.073 -16.465 -25.440  0.00  0.00    +0.051 C 
ENDBRANCH  22  23
ENDBRANCH  20  22
ENDBRANCH  14  19
BRANCH  11  25
ATOM     25  C   UNL     1      32.592  -9.428 -20.963  0.00  0.00    +0.011 C 
BRANCH  25  26
ATOM     26  N   UNL     1      31.406 -10.021 -20.392  0.00  0.00    +0.390 N 
ATOM     27  C   UNL     1      30.949 -11.168 -21.188  0.00  0.00    -0.100 C 
ATOM     28  C   UNL     1      31.641 -10.443 -19.004  0.00  0.00    -0.100 C 
ATOM     29  H   UNL     1      30.678  -9.306 -20.398  0.00  0.00    -0.079 HD
ENDBRANCH  25  26
ENDBRANCH  11  25
TORSDOF 5
ENDMDL
MODEL 3
REMARK VINA RESULT:      -8.3      2.154      7.334
REMARK  Name = 71264
REMARK  5 active torsions:
REMARK  status: ('A' for Active; 'I' for Inactive)
REMARK    1  A    between atoms: C_11  and  C_25
REMARK    2  A    between atoms: C_14  and  N_19
REMARK    3  A    between atoms: C_20  and  O_22
REMARK    4  A    between atoms: O_22  and  C_23
REMARK    5  A    between atoms: C_25  and  N_26
REMARK                            x       y       z     vdW  Elec       q    Type
REMARK                         _______ _______ _______ _____ _____    ______ ____
ROOT
ATOM      1  O   UNL     1      32.084 -14.973 -21.251  0.00  0.00    -0.276 OA
ATOM      2  N   UNL     1      33.218 -14.529 -23.259  0.00  0.00    -0.240 N 
ATOM      3  C   UNL     1      32.724 -15.276 -25.988  0.00  0.00    +0.032 C 
ATOM      4  C   UNL     1      33.803 -16.326 -25.773  0.00  0.00    +0.032 C 
ATOM      5  C   UNL     1      33.269 -13.924 -25.641  0.00  0.00    -0.008 C 
ATOM      6  C   UNL     1      33.511 -13.600 -24.300  0.00  0.00    +0.055 C 
ATOM      7  C   UNL     1      34.338 -16.509 -24.366  0.00  0.00    -0.008 C 
ATOM      8  C   UNL     1      34.033 -15.722 -23.232  0.00  0.00    +0.054 C 
ATOM      9  C   UNL     1      34.035 -12.336 -23.981  0.00  0.00    +0.030 C 
ATOM     10  C   UNL     1      33.549 -12.986 -26.644  0.00  0.00    -0.002 C 
ATOM     11  C   UNL     1      32.316 -14.237 -22.215  0.00  0.00    +0.212 C 
ATOM     12  C   UNL     1      35.196 -17.625 -24.214  0.00  0.00    -0.003 C 
ATOM     13  C   UNL     1      34.598 -16.102 -21.992  0.00  0.00    +0.015 C 
ATOM     14  C   UNL     1      34.311 -11.409 -24.985  0.00  0.00    +0.054 C 
ATOM     15  C   UNL     1      34.066 -11.733 -26.316  0.00  0.00    +0.015 C 
ATOM     16  C   UNL     1      35.735 -17.976 -22.980  0.00  0.00    -0.000 C 
ATOM     17  C   UNL     1      35.434 -17.212 -21.866  0.00  0.00    +0.001 C 
ENDROOT
BRANCH  14  19
ATOM     18  O   UNL     1      33.036  -8.987 -23.748  0.00  0.00    -0.226 OA
ATOM     19  N   UNL     1      34.849 -10.163 -24.662  0.00  0.00    -0.250 N 
ATOM     20  C   UNL     1      34.211  -9.067 -24.086  0.00  0.00    +0.405 C 
ATOM     21  H   UNL     1      35.803 -10.043 -24.867  0.00  0.00    +0.158 HD
BRANCH  20  22
ATOM     22  O   UNL     1      35.112  -8.044 -23.940  0.00  0.00    -0.434 OA
BRANCH  22  23
ATOM     23  C   UNL     1      34.583  -6.718 -24.058  0.00  0.00    +0.210 C 
ATOM     24  C   UNL     1      34.580  -6.316 -25.517  0.00  0.00    +0.051 C 
ENDBRANCH  22  23
ENDBRANCH  20  22
ENDBRANCH  14  19
BRANCH  11  25
ATOM     25  C   UNL     1      31.509 -12.960 -22.340  0.00  0.00    +0.011 C 
BRANCH  25  26
ATOM     26  N   UNL     1      32.092 -12.027 -21.405  0.00  0.00    +0.390 N 
ATOM     27  C   UNL     1      31.556 -10.673 -21.603  0.00  0.00    -0.100 C 
ATOM     28  C   UNL     1      31.861 -12.453 -20.018  0.00  0.00    -0.100 C 
ATOM     29  H   UNL     1      33.096 -12.011 -21.580  0.00  0.00    -0.079 HD
ENDBRANCH  25  26
ENDBRANCH  11  25
TORSDOF 5
ENDMDL
MODEL 4
REMARK VINA RESULT:      -6.9     10.503     14.683
REMARK  Name = 71264
REMARK  5 active torsions:
REMARK  status: ('A' for Active; 'I' for Inactive)
REMARK    1  A    between atoms: C_11  and  C_25
REMARK    2  A    between atoms: C_14  and  N_19
REMARK    3  A    between atoms: C_20  and  O_22
REMARK    4  A    between atoms: O_22  and  C_23
REMARK    5  A    between atoms: C_25  and  N_26
REMARK                            x       y       z     vdW  Elec       q    Type
REMARK                         _______ _______ _______ _____ _____    ______ ____
ROOT
ATOM      1  O   UNL     1      38.154 -22.747 -16.788  0.00  0.00    -0.276 OA
ATOM      2  N   UNL     1      37.277 -23.685 -14.822  0.00  0.00    -0.240 N 
ATOM      3  C   UNL     1      37.435 -22.928 -12.056  0.00  0.00    +0.032 C 
ATOM      4  C   UNL     1      38.490 -24.017 -11.940  0.00  0.00    +0.032 C 
ATOM      5  C   UNL     1      36.179 -23.511 -12.630  0.00  0.00    -0.008 C 
ATOM      6  C   UNL     1      36.144 -23.883 -13.980  0.00  0.00    +0.055 C 
ATOM      7  C   UNL     1      38.960 -24.683 -13.217  0.00  0.00    -0.008 C 
ATOM      8  C   UNL     1      38.436 -24.493 -14.517  0.00  0.00    +0.054 C 
ATOM      9  C   UNL     1      34.969 -24.442 -14.510  0.00  0.00    +0.030 C 
ATOM     10  C   UNL     1      35.045 -23.699 -11.827  0.00  0.00    -0.002 C 
ATOM     11  C   UNL     1      37.227 -22.890 -15.985  0.00  0.00    +0.212 C 
ATOM     12  C   UNL     1      40.069 -25.545 -13.047  0.00  0.00    -0.003 C 
ATOM     13  C   UNL     1      39.062 -25.172 -15.588  0.00  0.00    +0.015 C 
ATOM     14  C   UNL     1      33.846 -24.625 -13.704  0.00  0.00    +0.054 C 
ATOM     15  C   UNL     1      33.883 -24.252 -12.364  0.00  0.00    +0.015 C 
ATOM     16  C   UNL     1      40.666 -26.199 -14.121  0.00  0.00    -0.000 C 
ATOM     17  C   UNL     1      40.162 -26.010 -15.395  0.00  0.00    +0.001 C 
ENDROOT
BRANCH  14  19
ATOM     18  O   UNL     1      30.959 -24.242 -12.970  0.00  0.00    -0.226 OA
ATOM     19  N   UNL     1      32.689 -25.199 -14.233  0.00  0.00    -0.250 N 
ATOM     20  C   UNL     1      31.365 -24.986 -13.855  0.00  0.00    +0.405 C 
ATOM     21  H   UNL     1      32.825 -25.837 -14.968  0.00  0.00    +0.158 HD
BRANCH  20  22
ATOM     22  O   UNL     1      30.542 -25.752 -14.637  0.00  0.00    -0.434 OA
BRANCH  22  23
ATOM     23  C   UNL     1      29.235 -25.220 -14.885  0.00  0.00    +0.210 C 
ATOM     24  C   UNL     1      29.319 -24.213 -16.012  0.00  0.00    +0.051 C 
ENDBRANCH  22  23
ENDBRANCH  20  22
ENDBRANCH  14  19
BRANCH  11  25
ATOM     25  C   UNL     1      35.965 -22.081 -16.212  0.00  0.00    +0.011 C 
BRANCH  25  26
ATOM     26  N   UNL     1      35.396 -22.569 -17.447  0.00  0.00    +0.390 N 
ATOM     27  C   UNL     1      33.956 -22.823 -17.303  0.00  0.00    -0.100 C 
ATOM     28  C   UNL     1      35.625 -21.621 -18.546  0.00  0.00    -0.100 C 
ATOM     29  H   UNL     1      35.864 -23.448 -17.669  0.00  0.00    -0.079 HD
ENDBRANCH  25  26
ENDBRANCH  11  25
TORSDOF 5
ENDMDL
MODEL 5
REMARK VINA RESULT:      -6.6      0.998      1.107
REMARK  Name = 71264
REMARK  5 active torsions:
REMARK  status: ('A' for Active; 'I' for Inactive)
REMARK    1  A    between atoms: C_11  and  C_25
REMARK    2  A    between atoms: C_14  and  N_19
REMARK    3  A    between atoms: C_20  and  O_22
REMARK    4  A    between atoms: O_22  and  C_23
REMARK    5  A    between atoms: C_25  and  N_26
REMARK                            x       y       z     vdW  Elec       q    Type
REMARK                         _______ _______ _______ _____ _____    ______ ____
ROOT
ATOM      1  O   UNL     1      32.997 -13.532 -26.469  0.00  0.00    -0.276 OA
ATOM      2  N   UNL     1      33.306 -13.265 -24.157  0.00  0.00    -0.240 N 
ATOM      3  C   UNL     1      31.588 -12.343 -22.048  0.00  0.00    +0.032 C 
ATOM      4  C   UNL     1      32.349 -11.031 -22.161  0.00  0.00    +0.032 C 
ATOM      5  C   UNL     1      32.557 -13.463 -21.824  0.00  0.00    -0.008 C 
ATOM      6  C   UNL     1      33.390 -13.877 -22.871  0.00  0.00    +0.055 C 
ATOM      7  C   UNL     1      33.333 -10.883 -23.304  0.00  0.00    -0.008 C 
ATOM      8  C   UNL     1      33.724 -11.883 -24.224  0.00  0.00    +0.054 C 
ATOM      9  C   UNL     1      34.306 -14.919 -22.652  0.00  0.00    +0.030 C 
ATOM     10  C   UNL     1      32.646 -14.093 -20.574  0.00  0.00    -0.002 C 
ATOM     11  C   UNL     1      33.007 -13.996 -25.325  0.00  0.00    +0.212 C 
ATOM     12  C   UNL     1      33.859  -9.577 -23.451  0.00  0.00    -0.003 C 
ATOM     13  C   UNL     1      34.617 -11.518 -25.259  0.00  0.00    +0.015 C 
ATOM     14  C   UNL     1      34.388 -15.539 -21.406  0.00  0.00    +0.054 C 
ATOM     15  C   UNL     1      33.556 -15.128 -20.368  0.00  0.00    +0.015 C 
ATOM     16  C   UNL     1      34.735  -9.247 -24.480  0.00  0.00    -0.000 C 
ATOM     17  C   UNL     1      35.113 -10.221 -25.388  0.00  0.00    +0.001 C 
ENDROOT
BRANCH  14  19
ATOM     18  O   UNL     1      34.537 -18.319 -22.534  0.00  0.00    -0.226 OA
ATOM     19  N   UNL     1      35.314 -16.561 -21.190  0.00  0.00    -0.250 N 
ATOM     20  C   UNL     1      35.339 -17.839 -21.742  0.00  0.00    +0.405 C 
ATOM     21  H   UNL     1      36.045 -16.350 -20.567  0.00  0.00    +0.158 HD
BRANCH  20  22
ATOM     22  O   UNL     1      36.425 -18.520 -21.259  0.00  0.00    -0.434 OA
BRANCH  22  23
ATOM     23  C   UNL     1      36.197 -19.883 -20.881  0.00  0.00    +0.210 C 
ATOM     24  C   UNL     1      36.624 -20.074 -19.442  0.00  0.00    +0.051 C 
ENDBRANCH  22  23
ENDBRANCH  20  22
ENDBRANCH  14  19
BRANCH  11  25
ATOM     25  C   UNL     1      32.579 -15.438 -25.144  0.00  0.00    +0.011 C 
BRANCH  25  26
ATOM     26  N   UNL     1      33.589 -16.238 -25.796  0.00  0.00    +0.390 N 
ATOM     27  C   UNL     1      34.917 -15.990 -25.218  0.00  0.00    -0.100 C 
ATOM     28  C   UNL     1      33.270 -17.670 -25.706  0.00  0.00    -0.100 C 
ATOM     29  H   UNL     1      33.603 -15.967 -26.778  0.00  0.00    -0.079 HD
ENDBRANCH  25  26
ENDBRANCH  11  25
TORSDOF 5
ENDMDL
