MODEL 1
REMARK VINA RESULT:      -7.9      0.000      0.000
REMARK  Name = 5536
REMARK  11 active torsions:
REMARK  status: ('A' for Active; 'I' for Inactive)
REMARK    1  A    between atoms: C_1  and  C_8
REMARK    2  A    between atoms: C_2  and  O_15
REMARK    3  A    between atoms: C_3  and  O_18
REMARK    4  A    between atoms: C_5  and  O_21
REMARK    5  A    between atoms: C_8  and  C_9
REMARK    6  A    between atoms: C_9  and  C_10
REMARK    7  A    between atoms: C_10  and  C_12
REMARK    8  A    between atoms: C_12  and  O_13
REMARK    9  A    between atoms: O_15  and  C_16
REMARK   10  A    between atoms: O_18  and  C_19
REMARK   11  A    between atoms: O_21  and  C_22
REMARK                            x       y       z     vdW  Elec       q    Type
REMARK                         _______ _______ _______ _____ _____    ______ ____
ROOT
ATOM      1  C   UNL     1      35.784 -23.908 -15.090  0.00  0.00    +0.072 C 
ATOM      2  C   UNL     1      35.025 -24.261 -13.975  0.00  0.00    +0.144 C 
ATOM      3  C   UNL     1      33.762 -23.369 -16.297  0.00  0.00    +0.172 C 
ATOM      4  C   UNL     1      35.153 -23.463 -16.251  0.00  0.00    +0.046 C 
ATOM      5  C   UNL     1      33.002 -23.722 -15.181  0.00  0.00    +0.175 C 
ATOM      6  C   UNL     1      33.634 -24.168 -14.020  0.00  0.00    +0.077 C 
ENDROOT
BRANCH   1   8
ATOM      7  O   UNL     1      37.941 -22.972 -15.144  0.00  0.00    -0.291 OA
ATOM      8  C   UNL     1      37.274 -24.001 -15.062  0.00  0.00    +0.177 C 
BRANCH   8   9
ATOM      9  C   UNL     1      37.918 -25.372 -14.929  0.00  0.00    +0.081 C 
BRANCH   9  10
ATOM     10  C   UNL     1      39.144 -25.347 -14.024  0.00  0.00    +0.117 C 
BRANCH  10  12
ATOM     11  O   UNL     1      41.202 -26.607 -14.101  0.00  0.00    -0.250 OA
ATOM     12  C   UNL     1      40.326 -25.993 -14.697  0.00  0.00    +0.314 C 
BRANCH  12  13
ATOM     13  O   UNL     1      40.324 -25.810 -16.042  0.00  0.00    -0.480 OA
ATOM     14  H   UNL     1      39.785 -25.144 -16.422  0.00  0.00    +0.295 HD
ENDBRANCH  12  13
ENDBRANCH  10  12
ENDBRANCH   9  10
ENDBRANCH   8   9
ENDBRANCH   1   8
BRANCH   2  15
ATOM     15  O   UNL     1      35.623 -24.699 -12.831  0.00  0.00    -0.475 OA
BRANCH  15  16
ATOM     16  C   UNL     1      35.580 -23.828 -11.703  0.00  0.00    +0.206 C 
ATOM     17  C   UNL     1      36.940 -23.190 -11.520  0.00  0.00    +0.051 C 
ENDBRANCH  15  16
ENDBRANCH   2  15
BRANCH   3  18
ATOM     18  O   UNL     1      33.157 -22.932 -17.436  0.00  0.00    -0.472 OA
BRANCH  18  19
ATOM     19  C   UNL     1      34.004 -22.609 -18.537  0.00  0.00    +0.206 C 
ATOM     20  C   UNL     1      33.353 -21.517 -19.358  0.00  0.00    +0.051 C 
ENDBRANCH  18  19
ENDBRANCH   3  18
BRANCH   5  21
ATOM     21  O   UNL     1      31.643 -23.635 -15.213  0.00  0.00    -0.472 OA
BRANCH  21  22
ATOM     22  C   UNL     1      30.930 -24.250 -14.142  0.00  0.00    +0.206 C 
ATOM     23  C   UNL     1      29.868 -25.164 -14.718  0.00  0.00    +0.051 C 
ENDBRANCH  21  22
ENDBRANCH   5  21
TORSDOF 11
ENDMDL
MODEL 2
REMARK VINA RESULT:      -7.8      3.075      6.890
REMARK  Name = 5536
REMARK  11 active torsions:
REMARK  status: ('A' for Active; 'I' for Inactive)
REMARK    1  A    between atoms: C_1  and  C_8
REMARK    2  A    between atoms: C_2  and  O_15
REMARK    3  A    between atoms: C_3  and  O_18
REMARK    4  A    between atoms: C_5  and  O_21
REMARK    5  A    between atoms: C_8  and  C_9
REMARK    6  A    between atoms: C_9  and  C_10
REMARK    7  A    between atoms: C_10  and  C_12
REMARK    8  A    between atoms: C_12  and  O_13
REMARK    9  A    between atoms: O_15  and  C_16
REMARK   10  A    between atoms: O_18  and  C_19
REMARK   11  A    between atoms: O_21  and  C_22
REMARK                            x       y       z     vdW  Elec       q    Type
REMARK                         _______ _______ _______ _____ _____    ______ ____
ROOT
ATOM      1  C   UNL     1      32.364 -23.121 -16.227  0.00  0.00    +0.072 C 
ATOM      2  C   UNL     1      33.667 -23.408 -15.818  0.00  0.00    +0.144 C 
ATOM      3  C   UNL     1      33.194 -22.432 -18.388  0.00  0.00    +0.172 C 
ATOM      4  C   UNL     1      32.129 -22.633 -17.511  0.00  0.00    +0.046 C 
ATOM      5  C   UNL     1      34.498 -22.719 -17.980  0.00  0.00    +0.175 C 
ATOM      6  C   UNL     1      34.733 -23.207 -16.694  0.00  0.00    +0.077 C 
ENDROOT
BRANCH   1   8
ATOM      7  O   UNL     1      31.110 -22.630 -14.299  0.00  0.00    -0.291 OA
ATOM      8  C   UNL     1      31.209 -23.329 -15.304  0.00  0.00    +0.177 C 
BRANCH   8   9
ATOM      9  C   UNL     1      30.188 -24.404 -15.645  0.00  0.00    +0.081 C 
BRANCH   9  10
ATOM     10  C   UNL     1      28.756 -23.895 -15.524  0.00  0.00    +0.117 C 
BRANCH  10  12
ATOM     11  O   UNL     1      27.683 -24.037 -17.682  0.00  0.00    -0.250 OA
ATOM     12  C   UNL     1      28.260 -23.360 -16.841  0.00  0.00    +0.314 C 
BRANCH  12  13
ATOM     13  O   UNL     1      28.536 -22.041 -17.005  0.00  0.00    -0.480 OA
ATOM     14  H   UNL     1      28.548 -21.470 -16.261  0.00  0.00    +0.295 HD
ENDBRANCH  12  13
ENDBRANCH  10  12
ENDBRANCH   9  10
ENDBRANCH   8   9
ENDBRANCH   1   8
BRANCH   2  15
ATOM     15  O   UNL     1      33.918 -23.886 -14.567  0.00  0.00    -0.475 OA
BRANCH  15  16
ATOM     16  C   UNL     1      35.228 -24.389 -14.317  0.00  0.00    +0.206 C 
ATOM     17  C   UNL     1      35.817 -23.663 -13.126  0.00  0.00    +0.051 C 
ENDBRANCH  15  16
ENDBRANCH   2  15
BRANCH   3  18
ATOM     18  O   UNL     1      32.951 -21.955 -19.641  0.00  0.00    -0.472 OA
BRANCH  18  19
ATOM     19  C   UNL     1      32.738 -20.550 -19.770  0.00  0.00    +0.206 C 
ATOM     20  C   UNL     1      33.490 -20.047 -20.983  0.00  0.00    +0.051 C 
ENDBRANCH  18  19
ENDBRANCH   3  18
BRANCH   5  21
ATOM     21  O   UNL     1      35.546 -22.527 -18.827  0.00  0.00    -0.472 OA
BRANCH  21  22
ATOM     22  C   UNL     1      36.435 -21.454 -18.523  0.00  0.00    +0.206 C 
ATOM     23  C   UNL     1      36.755 -20.703 -19.799  0.00  0.00    +0.051 C 
ENDBRANCH  21  22
ENDBRANCH   5  21
TORSDOF 11
ENDMDL
MODEL 3
REMARK VINA RESULT:      -7.7      2.442      4.800
REMARK  Name = 5536
REMARK  11 active torsions:
REMARK  status: ('A' for Active; 'I' for Inactive)
REMARK    1  A    between atoms: C_1  and  C_8
REMARK    2  A    between atoms: C_2  and  O_15
REMARK    3  A    between atoms: C_3  and  O_18
REMARK    4  A    between atoms: C_5  and  O_21
REMARK    5  A    between atoms: C_8  and  C_9
REMARK    6  A    between atoms: C_9  and  C_10
REMARK    7  A    between atoms: C_10  and  C_12
REMARK    8  A    between atoms: C_12  and  O_13
REMARK    9  A    between atoms: O_15  and  C_16
REMARK   10  A    between atoms: O_18  and  C_19
REMARK   11  A    between atoms: O_21  and  C_22
REMARK                            x       y       z     vdW  Elec       q    Type
REMARK                         _______ _______ _______ _____ _____    ______ ____
ROOT
ATOM      1  C   UNL     1      33.243 -23.702 -15.060  0.00  0.00    +0.072 C 
ATOM      2  C   UNL     1      34.301 -23.606 -15.965  0.00  0.00    +0.144 C 
ATOM      3  C   UNL     1      31.730 -22.850 -16.739  0.00  0.00    +0.172 C 
ATOM      4  C   UNL     1      31.958 -23.324 -15.447  0.00  0.00    +0.046 C 
ATOM      5  C   UNL     1      32.787 -22.754 -17.644  0.00  0.00    +0.175 C 
ATOM      6  C   UNL     1      34.072 -23.132 -17.256  0.00  0.00    +0.077 C 
ENDROOT
BRANCH   1   8
ATOM      7  O   UNL     1      32.714 -25.066 -13.219  0.00  0.00    -0.291 OA
ATOM      8  C   UNL     1      33.466 -24.207 -13.673  0.00  0.00    +0.177 C 
BRANCH   8   9
ATOM      9  C   UNL     1      34.626 -23.641 -12.868  0.00  0.00    +0.081 C 
BRANCH   9  10
ATOM     10  C   UNL     1      35.426 -24.732 -12.166  0.00  0.00    +0.117 C 
BRANCH  10  12
ATOM     11  O   UNL     1      35.345 -24.497  -9.765  0.00  0.00    -0.250 OA
ATOM     12  C   UNL     1      35.916 -24.262 -10.822  0.00  0.00    +0.314 C 
BRANCH  12  13
ATOM     13  O   UNL     1      37.058 -23.534 -10.909  0.00  0.00    -0.480 OA
ATOM     14  H   UNL     1      37.037 -22.671 -11.274  0.00  0.00    +0.295 HD
ENDBRANCH  12  13
ENDBRANCH  10  12
ENDBRANCH   9  10
ENDBRANCH   8   9
ENDBRANCH   1   8
BRANCH   2  15
ATOM     15  O   UNL     1      35.564 -23.971 -15.606  0.00  0.00    -0.475 OA
BRANCH  15  16
ATOM     16  C   UNL     1      36.604 -23.027 -15.847  0.00  0.00    +0.206 C 
ATOM     17  C   UNL     1      37.919 -23.608 -15.373  0.00  0.00    +0.051 C 
ENDBRANCH  15  16
ENDBRANCH   2  15
BRANCH   3  18
ATOM     18  O   UNL     1      30.470 -22.484 -17.105  0.00  0.00    -0.472 OA
BRANCH  18  19
ATOM     19  C   UNL     1      29.417 -22.781 -16.190  0.00  0.00    +0.206 C 
ATOM     20  C   UNL     1      28.363 -23.603 -16.899  0.00  0.00    +0.051 C 
ENDBRANCH  18  19
ENDBRANCH   3  18
BRANCH   5  21
ATOM     21  O   UNL     1      32.576 -22.293 -18.908  0.00  0.00    -0.472 OA
BRANCH  21  22
ATOM     22  C   UNL     1      33.655 -21.600 -19.533  0.00  0.00    +0.206 C 
ATOM     23  C   UNL     1      33.108 -20.390 -20.262  0.00  0.00    +0.051 C 
ENDBRANCH  21  22
ENDBRANCH   5  21
TORSDOF 11
ENDMDL
MODEL 4
REMARK VINA RESULT:      -7.5      7.941     12.263
REMARK  Name = 5536
REMARK  11 active torsions:
REMARK  status: ('A' for Active; 'I' for Inactive)
REMARK    1  A    between atoms: C_1  and  C_8
REMARK    2  A    between atoms: C_2  and  O_15
REMARK    3  A    between atoms: C_3  and  O_18
REMARK    4  A    between atoms: C_5  and  O_21
REMARK    5  A    between atoms: C_8  and  C_9
REMARK    6  A    between atoms: C_9  and  C_10
REMARK    7  A    between atoms: C_10  and  C_12
REMARK    8  A    between atoms: C_12  and  O_13
REMARK    9  A    between atoms: O_15  and  C_16
REMARK   10  A    between atoms: O_18  and  C_19
REMARK   11  A    between atoms: O_21  and  C_22
REMARK                            x       y       z     vdW  Elec       q    Type
REMARK                         _______ _______ _______ _____ _____    ______ ____
ROOT
ATOM      1  C   UNL     1      33.956 -15.863 -21.993  0.00  0.00    +0.072 C 
ATOM      2  C   UNL     1      34.425 -15.731 -23.300  0.00  0.00    +0.144 C 
ATOM      3  C   UNL     1      32.742 -13.787 -22.218  0.00  0.00    +0.172 C 
ATOM      4  C   UNL     1      33.116 -14.891 -21.452  0.00  0.00    +0.046 C 
ATOM      5  C   UNL     1      33.210 -13.654 -23.526  0.00  0.00    +0.175 C 
ATOM      6  C   UNL     1      34.051 -14.627 -24.066  0.00  0.00    +0.077 C 
ENDROOT
BRANCH   1   8
ATOM      7  O   UNL     1      35.328 -16.955 -20.425  0.00  0.00    -0.291 OA
ATOM      8  C   UNL     1      34.344 -17.037 -21.156  0.00  0.00    +0.177 C 
BRANCH   8   9
ATOM      9  C   UNL     1      33.500 -18.300 -21.235  0.00  0.00    +0.081 C 
BRANCH   9  10
ATOM     10  C   UNL     1      34.343 -19.564 -21.113  0.00  0.00    +0.117 C 
BRANCH  10  12
ATOM     11  O   UNL     1      32.568 -20.543 -19.802  0.00  0.00    -0.250 OA
ATOM     12  C   UNL     1      33.756 -20.509 -20.098  0.00  0.00    +0.314 C 
BRANCH  12  13
ATOM     13  O   UNL     1      34.690 -21.315 -19.534  0.00  0.00    -0.480 OA
ATOM     14  H   UNL     1      35.180 -21.909 -20.069  0.00  0.00    +0.295 HD
ENDBRANCH  12  13
ENDBRANCH  10  12
ENDBRANCH   9  10
ENDBRANCH   8   9
ENDBRANCH   1   8
BRANCH   2  15
ATOM     15  O   UNL     1      35.247 -16.670 -23.847  0.00  0.00    -0.475 OA
BRANCH  15  16
ATOM     16  C   UNL     1      34.812 -17.285 -25.058  0.00  0.00    +0.206 C 
ATOM     17  C   UNL     1      34.515 -18.745 -24.791  0.00  0.00    +0.051 C 
ENDBRANCH  15  16
ENDBRANCH   2  15
BRANCH   3  18
ATOM     18  O   UNL     1      31.920 -12.844 -21.678  0.00  0.00    -0.472 OA
BRANCH  18  19
ATOM     19  C   UNL     1      32.051 -12.593 -20.280  0.00  0.00    +0.206 C 
ATOM     20  C   UNL     1      31.407 -11.262 -19.956  0.00  0.00    +0.051 C 
ENDBRANCH  18  19
ENDBRANCH   3  18
BRANCH   5  21
ATOM     21  O   UNL     1      32.852 -12.581 -24.283  0.00  0.00    -0.472 OA
BRANCH  21  22
ATOM     22  C   UNL     1      33.839 -11.571 -24.483  0.00  0.00    +0.206 C 
ATOM     23  C   UNL     1      33.389 -10.299 -23.795  0.00  0.00    +0.051 C 
ENDBRANCH  21  22
ENDBRANCH   5  21
TORSDOF 11
ENDMDL
MODEL 5
REMARK VINA RESULT:      -7.5      1.626      7.577
REMARK  Name = 5536
REMARK  11 active torsions:
REMARK  status: ('A' for Active; 'I' for Inactive)
REMARK    1  A    between atoms: C_1  and  C_8
REMARK    2  A    between atoms: C_2  and  O_15
REMARK    3  A    between atoms: C_3  and  O_18
REMARK    4  A    between atoms: C_5  and  O_21
REMARK    5  A    between atoms: C_8  and  C_9
REMARK    6  A    between atoms: C_9  and  C_10
REMARK    7  A    between atoms: C_10  and  C_12
REMARK    8  A    between atoms: C_12  and  O_13
REMARK    9  A    between atoms: O_15  and  C_16
REMARK   10  A    between atoms: O_18  and  C_19
REMARK   11  A    between atoms: O_21  and  C_22
REMARK                            x       y       z     vdW  Elec       q    Type
REMARK                         _______ _______ _______ _____ _____    ______ ____
ROOT
ATOM      1  C   UNL     1      32.748 -23.599 -15.116  0.00  0.00    +0.072 C 
ATOM      2  C   UNL     1      33.515 -23.355 -16.256  0.00  0.00    +0.144 C 
ATOM      3  C   UNL     1      34.738 -24.261 -13.918  0.00  0.00    +0.172 C 
ATOM      4  C   UNL     1      33.359 -24.052 -13.948  0.00  0.00    +0.046 C 
ATOM      5  C   UNL     1      35.506 -24.017 -15.058  0.00  0.00    +0.175 C 
ATOM      6  C   UNL     1      34.893 -23.564 -16.226  0.00  0.00    +0.077 C 
ENDROOT
BRANCH   1   8
ATOM      7  O   UNL     1      30.816 -22.325 -14.695  0.00  0.00    -0.291 OA
ATOM      8  C   UNL     1      31.271 -23.381 -15.127  0.00  0.00    +0.177 C 
BRANCH   8   9
ATOM      9  C   UNL     1      30.375 -24.480 -15.678  0.00  0.00    +0.081 C 
BRANCH   9  10
ATOM     10  C   UNL     1      28.896 -24.130 -15.561  0.00  0.00    +0.117 C 
BRANCH  10  12
ATOM     11  O   UNL     1      27.650 -24.179 -17.628  0.00  0.00    -0.250 OA
ATOM     12  C   UNL     1      28.372 -23.563 -16.854  0.00  0.00    +0.314 C 
BRANCH  12  13
ATOM     13  O   UNL     1      28.798 -22.295 -17.079  0.00  0.00    -0.480 OA
ATOM     14  H   UNL     1      29.324 -22.104 -17.831  0.00  0.00    +0.295 HD
ENDBRANCH  12  13
ENDBRANCH  10  12
ENDBRANCH   9  10
ENDBRANCH   8   9
ENDBRANCH   1   8
BRANCH   2  15
ATOM     15  O   UNL     1      32.936 -22.911 -17.407  0.00  0.00    -0.475 OA
BRANCH  15  16
ATOM     16  C   UNL     1      33.776 -22.800 -18.553  0.00  0.00    +0.206 C 
ATOM     17  C   UNL     1      33.396 -21.555 -19.324  0.00  0.00    +0.051 C 
ENDBRANCH  15  16
ENDBRANCH   2  15
BRANCH   3  18
ATOM     18  O   UNL     1      35.324 -24.703 -12.771  0.00  0.00    -0.472 OA
BRANCH  18  19
ATOM     19  C   UNL     1      35.473 -23.758 -11.713  0.00  0.00    +0.206 C 
ATOM     20  C   UNL     1      36.886 -23.215 -11.732  0.00  0.00    +0.051 C 
ENDBRANCH  18  19
ENDBRANCH   3  18
BRANCH   5  21
ATOM     21  O   UNL     1      36.853 -24.217 -15.040  0.00  0.00    -0.472 OA
BRANCH  21  22
ATOM     22  C   UNL     1      37.307 -25.569 -15.079  0.00  0.00    +0.206 C 
ATOM     23  C   UNL     1      38.595 -25.679 -14.291  0.00  0.00    +0.051 C 
ENDBRANCH  21  22
ENDBRANCH   5  21
TORSDOF 11
ENDMDL
MODEL 6
REMARK VINA RESULT:      -7.4      3.230      5.766
REMARK  Name = 5536
REMARK  11 active torsions:
REMARK  status: ('A' for Active; 'I' for Inactive)
REMARK    1  A    between atoms: C_1  and  C_8
REMARK    2  A    between atoms: C_2  and  O_15
REMARK    3  A    between atoms: C_3  and  O_18
REMARK    4  A    between atoms: C_5  and  O_21
REMARK    5  A    between atoms: C_8  and  C_9
REMARK    6  A    between atoms: C_9  and  C_10
REMARK    7  A    between atoms: C_10  and  C_12
REMARK    8  A    between atoms: C_12  and  O_13
REMARK    9  A    between atoms: O_15  and  C_16
REMARK   10  A    between atoms: O_18  and  C_19
REMARK   11  A    between atoms: O_21  and  C_22
REMARK                            x       y       z     vdW  Elec       q    Type
REMARK                         _______ _______ _______ _____ _____    ______ ____
ROOT
ATOM      1  C   UNL     1      33.109 -22.896 -17.584  0.00  0.00    +0.072 C 
ATOM      2  C   UNL     1      33.924 -23.307 -16.529  0.00  0.00    +0.144 C 
ATOM      3  C   UNL     1      31.209 -22.837 -16.092  0.00  0.00    +0.172 C 
ATOM      4  C   UNL     1      31.752 -22.662 -17.365  0.00  0.00    +0.046 C 
ATOM      5  C   UNL     1      32.025 -23.249 -15.037  0.00  0.00    +0.175 C 
ATOM      6  C   UNL     1      33.382 -23.483 -15.257  0.00  0.00    +0.077 C 
ENDROOT
BRANCH   1   8
ATOM      7  O   UNL     1      34.043 -23.681 -19.594  0.00  0.00    -0.291 OA
ATOM      8  C   UNL     1      33.669 -22.701 -18.954  0.00  0.00    +0.177 C 
BRANCH   8   9
ATOM      9  C   UNL     1      33.755 -21.289 -19.513  0.00  0.00    +0.081 C 
BRANCH   9  10
ATOM     10  C   UNL     1      35.170 -20.929 -19.951  0.00  0.00    +0.117 C 
BRANCH  10  12
ATOM     11  O   UNL     1      35.954 -18.750 -20.635  0.00  0.00    -0.250 OA
ATOM     12  C   UNL     1      35.173 -19.680 -20.793  0.00  0.00    +0.314 C 
BRANCH  12  13
ATOM     13  O   UNL     1      34.204 -19.689 -21.742  0.00  0.00    -0.480 OA
ATOM     14  H   UNL     1      33.902 -18.882 -22.112  0.00  0.00    +0.295 HD
ENDBRANCH  12  13
ENDBRANCH  10  12
ENDBRANCH   9  10
ENDBRANCH   8   9
ENDBRANCH   1   8
BRANCH   2  15
ATOM     15  O   UNL     1      35.253 -23.541 -16.723  0.00  0.00    -0.475 OA
BRANCH  15  16
ATOM     16  C   UNL     1      36.165 -22.802 -15.913  0.00  0.00    +0.206 C 
ATOM     17  C   UNL     1      37.017 -21.925 -16.805  0.00  0.00    +0.051 C 
ENDBRANCH  15  16
ENDBRANCH   2  15
BRANCH   3  18
ATOM     18  O   UNL     1      29.882 -22.604 -15.891  0.00  0.00    -0.472 OA
BRANCH  18  19
ATOM     19  C   UNL     1      28.976 -23.156 -16.844  0.00  0.00    +0.206 C 
ATOM     20  C   UNL     1      27.641 -22.454 -16.719  0.00  0.00    +0.051 C 
ENDBRANCH  18  19
ENDBRANCH   3  18
BRANCH   5  21
ATOM     21  O   UNL     1      31.507 -23.423 -13.790  0.00  0.00    -0.472 OA
BRANCH  21  22
ATOM     22  C   UNL     1      31.313 -24.767 -13.352  0.00  0.00    +0.206 C 
ATOM     23  C   UNL     1      30.173 -25.382 -14.137  0.00  0.00    +0.051 C 
ENDBRANCH  21  22
ENDBRANCH   5  21
TORSDOF 11
ENDMDL
MODEL 7
REMARK VINA RESULT:      -7.4     10.571     13.749
REMARK  Name = 5536
REMARK  11 active torsions:
REMARK  status: ('A' for Active; 'I' for Inactive)
REMARK    1  A    between atoms: C_1  and  C_8
REMARK    2  A    between atoms: C_2  and  O_15
REMARK    3  A    between atoms: C_3  and  O_18
REMARK    4  A    between atoms: C_5  and  O_21
REMARK    5  A    between atoms: C_8  and  C_9
REMARK    6  A    between atoms: C_9  and  C_10
REMARK    7  A    between atoms: C_10  and  C_12
REMARK    8  A    between atoms: C_12  and  O_13
REMARK    9  A    between atoms: O_15  and  C_16
REMARK   10  A    between atoms: O_18  and  C_19
REMARK   11  A    between atoms: O_21  and  C_22
REMARK                            x       y       z     vdW  Elec       q    Type
REMARK                         _______ _______ _______ _____ _____    ______ ____
ROOT
ATOM      1  C   UNL     1      33.249 -13.813 -23.758  0.00  0.00    +0.072 C 
ATOM      2  C   UNL     1      32.581 -13.925 -22.538  0.00  0.00    +0.144 C 
ATOM      3  C   UNL     1      33.076 -11.407 -23.632  0.00  0.00    +0.172 C 
ATOM      4  C   UNL     1      33.495 -12.554 -24.305  0.00  0.00    +0.046 C 
ATOM      5  C   UNL     1      32.408 -11.518 -22.412  0.00  0.00    +0.175 C 
ATOM      6  C   UNL     1      32.162 -12.777 -21.865  0.00  0.00    +0.077 C 
ENDROOT
BRANCH   1   8
ATOM      7  O   UNL     1      33.179 -15.316 -25.565  0.00  0.00    -0.291 OA
ATOM      8  C   UNL     1      33.707 -15.029 -24.494  0.00  0.00    +0.177 C 
BRANCH   8   9
ATOM      9  C   UNL     1      34.819 -15.872 -23.890  0.00  0.00    +0.081 C 
BRANCH   9  10
ATOM     10  C   UNL     1      34.891 -17.261 -24.513  0.00  0.00    +0.117 C 
BRANCH  10  12
ATOM     11  O   UNL     1      34.719 -19.338 -23.296  0.00  0.00    -0.250 OA
ATOM     12  C   UNL     1      35.315 -18.288 -23.496  0.00  0.00    +0.314 C 
BRANCH  12  13
ATOM     13  O   UNL     1      36.426 -17.916 -22.812  0.00  0.00    -0.480 OA
ATOM     14  H   UNL     1      36.853 -18.528 -22.244  0.00  0.00    +0.295 HD
ENDBRANCH  12  13
ENDBRANCH  10  12
ENDBRANCH   9  10
ENDBRANCH   8   9
ENDBRANCH   1   8
BRANCH   2  15
ATOM     15  O   UNL     1      32.331 -15.146 -21.987  0.00  0.00    -0.475 OA
BRANCH  15  16
ATOM     16  C   UNL     1      32.683 -15.322 -20.617  0.00  0.00    +0.206 C 
ATOM     17  C   UNL     1      34.187 -15.449 -20.507  0.00  0.00    +0.051 C 
ENDBRANCH  15  16
ENDBRANCH   2  15
BRANCH   3  18
ATOM     18  O   UNL     1      33.324 -10.183 -24.176  0.00  0.00    -0.472 OA
BRANCH  18  19
ATOM     19  C   UNL     1      34.676  -9.729 -24.162  0.00  0.00    +0.206 C 
ATOM     20  C   UNL     1      34.702  -8.267 -23.774  0.00  0.00    +0.051 C 
ENDBRANCH  18  19
ENDBRANCH   3  18
BRANCH   5  21
ATOM     21  O   UNL     1      31.994 -10.405 -21.746  0.00  0.00    -0.472 OA
BRANCH  21  22
ATOM     22  C   UNL     1      31.187 -10.607 -20.587  0.00  0.00    +0.206 C 
ATOM     23  C   UNL     1      31.865  -9.963 -19.395  0.00  0.00    +0.051 C 
ENDBRANCH  21  22
ENDBRANCH   5  21
TORSDOF 11
ENDMDL
MODEL 8
REMARK VINA RESULT:      -7.4     10.439     14.145
REMARK  Name = 5536
REMARK  11 active torsions:
REMARK  status: ('A' for Active; 'I' for Inactive)
REMARK    1  A    between atoms: C_1  and  C_8
REMARK    2  A    between atoms: C_2  and  O_15
REMARK    3  A    between atoms: C_3  and  O_18
REMARK    4  A    between atoms: C_5  and  O_21
REMARK    5  A    between atoms: C_8  and  C_9
REMARK    6  A    between atoms: C_9  and  C_10
REMARK    7  A    between atoms: C_10  and  C_12
REMARK    8  A    between atoms: C_12  and  O_13
REMARK    9  A    between atoms: O_15  and  C_16
REMARK   10  A    between atoms: O_18  and  C_19
REMARK   11  A    between atoms: O_21  and  C_22
REMARK                            x       y       z     vdW  Elec       q    Type
REMARK                         _______ _______ _______ _____ _____    ______ ____
ROOT
ATOM      1  C   UNL     1      32.608 -13.746 -21.616  0.00  0.00    +0.072 C 
ATOM      2  C   UNL     1      32.930 -13.281 -22.892  0.00  0.00    +0.144 C 
ATOM      3  C   UNL     1      31.571 -11.625 -21.105  0.00  0.00    +0.172 C 
ATOM      4  C   UNL     1      31.929 -12.918 -20.723  0.00  0.00    +0.046 C 
ATOM      5  C   UNL     1      31.893 -11.160 -22.380  0.00  0.00    +0.175 C 
ATOM      6  C   UNL     1      32.572 -11.989 -23.273  0.00  0.00    +0.077 C 
ENDROOT
BRANCH   1   8
ATOM      7  O   UNL     1      32.102 -15.973 -21.055  0.00  0.00    -0.291 OA
ATOM      8  C   UNL     1      32.982 -15.127 -21.188  0.00  0.00    +0.177 C 
BRANCH   8   9
ATOM      9  C   UNL     1      34.449 -15.440 -20.933  0.00  0.00    +0.081 C 
BRANCH   9  10
ATOM     10  C   UNL     1      34.789 -16.893 -21.243  0.00  0.00    +0.117 C 
BRANCH  10  12
ATOM     11  O   UNL     1      34.628 -18.081 -23.339  0.00  0.00    -0.250 OA
ATOM     12  C   UNL     1      35.003 -17.093 -22.721  0.00  0.00    +0.314 C 
BRANCH  12  13
ATOM     13  O   UNL     1      35.672 -16.062 -23.295  0.00  0.00    -0.480 OA
ATOM     14  H   UNL     1      35.225 -15.482 -23.880  0.00  0.00    +0.295 HD
ENDBRANCH  12  13
ENDBRANCH  10  12
ENDBRANCH   9  10
ENDBRANCH   8   9
ENDBRANCH   1   8
BRANCH   2  15
ATOM     15  O   UNL     1      33.594 -14.075 -23.779  0.00  0.00    -0.475 OA
BRANCH  15  16
ATOM     16  C   UNL     1      33.188 -14.001 -25.143  0.00  0.00    +0.206 C 
ATOM     17  C   UNL     1      33.338 -15.366 -25.778  0.00  0.00    +0.051 C 
ENDBRANCH  15  16
ENDBRANCH   2  15
BRANCH   3  18
ATOM     18  O   UNL     1      30.907 -10.826 -20.224  0.00  0.00    -0.472 OA
BRANCH  18  19
ATOM     19  C   UNL     1      31.669 -10.266 -19.155  0.00  0.00    +0.206 C 
ATOM     20  C   UNL     1      32.097  -8.866 -19.536  0.00  0.00    +0.051 C 
ENDBRANCH  18  19
ENDBRANCH   3  18
BRANCH   5  21
ATOM     21  O   UNL     1      31.548  -9.900 -22.765  0.00  0.00    -0.472 OA
BRANCH  21  22
ATOM     22  C   UNL     1      32.412  -9.248 -23.694  0.00  0.00    +0.206 C 
ATOM     23  C   UNL     1      33.350  -8.331 -22.937  0.00  0.00    +0.051 C 
ENDBRANCH  21  22
ENDBRANCH   5  21
TORSDOF 11
ENDMDL
MODEL 9
REMARK VINA RESULT:      -7.4      1.949      4.234
REMARK  Name = 5536
REMARK  11 active torsions:
REMARK  status: ('A' for Active; 'I' for Inactive)
REMARK    1  A    between atoms: C_1  and  C_8
REMARK    2  A    between atoms: C_2  and  O_15
REMARK    3  A    between atoms: C_3  and  O_18
REMARK    4  A    between atoms: C_5  and  O_21
REMARK    5  A    between atoms: C_8  and  C_9
REMARK    6  A    between atoms: C_9  and  C_10
REMARK    7  A    between atoms: C_10  and  C_12
REMARK    8  A    between atoms: C_12  and  O_13
REMARK    9  A    between atoms: O_15  and  C_16
REMARK   10  A    between atoms: O_18  and  C_19
REMARK   11  A    between atoms: O_21  and  C_22
REMARK                            x       y       z     vdW  Elec       q    Type
REMARK                         _______ _______ _______ _____ _____    ______ ____
ROOT
ATOM      1  C   UNL     1      33.922 -23.420 -15.912  0.00  0.00    +0.072 C 
ATOM      2  C   UNL     1      33.592 -23.113 -17.232  0.00  0.00    +0.144 C 
ATOM      3  C   UNL     1      31.636 -23.015 -15.244  0.00  0.00    +0.172 C 
ATOM      4  C   UNL     1      32.945 -23.370 -14.918  0.00  0.00    +0.046 C 
ATOM      5  C   UNL     1      31.305 -22.708 -16.565  0.00  0.00    +0.175 C 
ATOM      6  C   UNL     1      32.283 -22.758 -17.558  0.00  0.00    +0.077 C 
ENDROOT
BRANCH   1   8
ATOM      7  O   UNL     1      36.224 -22.988 -15.691  0.00  0.00    -0.291 OA
ATOM      8  C   UNL     1      35.317 -23.803 -15.541  0.00  0.00    +0.177 C 
BRANCH   8   9
ATOM      9  C   UNL     1      35.567 -25.197 -14.985  0.00  0.00    +0.081 C 
BRANCH   9  10
ATOM     10  C   UNL     1      36.952 -25.327 -14.361  0.00  0.00    +0.117 C 
BRANCH  10  12
ATOM     11  O   UNL     1      38.783 -26.889 -14.543  0.00  0.00    -0.250 OA
ATOM     12  C   UNL     1      37.712 -26.476 -14.968  0.00  0.00    +0.314 C 
BRANCH  12  13
ATOM     13  O   UNL     1      37.086 -27.000 -16.052  0.00  0.00    -0.480 OA
ATOM     14  H   UNL     1      36.214 -27.336 -15.972  0.00  0.00    +0.295 HD
ENDBRANCH  12  13
ENDBRANCH  10  12
ENDBRANCH   9  10
ENDBRANCH   8   9
ENDBRANCH   1   8
BRANCH   2  15
ATOM     15  O   UNL     1      34.533 -23.156 -18.216  0.00  0.00    -0.475 OA
BRANCH  15  16
ATOM     16  C   UNL     1      34.559 -22.066 -19.134  0.00  0.00    +0.206 C 
ATOM     17  C   UNL     1      35.980 -21.558 -19.256  0.00  0.00    +0.051 C 
ENDBRANCH  15  16
ENDBRANCH   2  15
BRANCH   3  18
ATOM     18  O   UNL     1      30.690 -22.971 -14.266  0.00  0.00    -0.472 OA
BRANCH  18  19
ATOM     19  C   UNL     1      30.604 -24.098 -13.396  0.00  0.00    +0.206 C 
ATOM     20  C   UNL     1      30.141 -25.300 -14.191  0.00  0.00    +0.051 C 
ENDBRANCH  18  19
ENDBRANCH   3  18
BRANCH   5  21
ATOM     21  O   UNL     1      30.031 -22.360 -16.896  0.00  0.00    -0.472 OA
BRANCH  21  22
ATOM     22  C   UNL     1      29.060 -23.405 -16.921  0.00  0.00    +0.206 C 
ATOM     23  C   UNL     1      27.699 -22.807 -17.213  0.00  0.00    +0.051 C 
ENDBRANCH  21  22
ENDBRANCH   5  21
TORSDOF 11
ENDMDL
