MODEL 1
REMARK VINA RESULT:      -5.3      0.000      0.000
REMARK  Name = 447260
REMARK  0 active torsions:
REMARK  status: ('A' for Active; 'I' for Inactive)
REMARK                            x       y       z     vdW  Elec       q    Type
REMARK                         _______ _______ _______ _____ _____    ______ ____
ROOT
ATOM      1  N   UNL     1      36.272 -25.871 -14.231  0.00  0.00    +0.386 N 
ATOM      2  C   UNL     1      36.941 -24.373 -12.495  0.00  0.00    -0.018 C 
ATOM      3  C   UNL     1      36.674 -24.451 -14.018  0.00  0.00    -0.046 C 
ATOM      4  C   UNL     1      37.935 -25.553 -12.583  0.00  0.00    -0.023 C 
ATOM      5  C   UNL     1      38.085 -24.334 -14.647  0.00  0.00    -0.020 C 
ATOM      6  C   UNL     1      38.968 -25.083 -13.634  0.00  0.00    -0.004 C 
ATOM      7  C   UNL     1      37.092 -26.641 -13.268  0.00  0.00    -0.082 C 
ATOM      8  C   UNL     1      37.561 -23.055 -11.993  0.00  0.00    -0.002 C 
ATOM      9  C   UNL     1      35.710 -24.646 -11.604  0.00  0.00    -0.002 C 
ATOM     10  C   UNL     1      35.664 -23.482 -14.600  0.00  0.00    -0.022 C 
ATOM     11  H   UNL     1      36.472 -26.162 -15.188  0.00  0.00    -0.084 HD
ATOM     12  H   UNL     1      35.272 -26.016 -14.089  0.00  0.00    -0.084 HD
ENDROOT
TORSDOF 0
ENDMDL
MODEL 2
REMARK VINA RESULT:      -5.3      1.029      1.091
REMARK  Name = 447260
REMARK  0 active torsions:
REMARK  status: ('A' for Active; 'I' for Inactive)
REMARK                            x       y       z     vdW  Elec       q    Type
REMARK                         _______ _______ _______ _____ _____    ______ ____
ROOT
ATOM      1  N   UNL     1      37.055 -25.779 -15.286  0.00  0.00    +0.386 N 
ATOM      2  C   UNL     1      37.189 -24.580 -13.224  0.00  0.00    -0.018 C 
ATOM      3  C   UNL     1      37.588 -24.507 -14.719  0.00  0.00    -0.046 C 
ATOM      4  C   UNL     1      37.882 -25.953 -13.080  0.00  0.00    -0.023 C 
ATOM      5  C   UNL     1      39.127 -24.689 -14.700  0.00  0.00    -0.020 C 
ATOM      6  C   UNL     1      39.333 -25.682 -13.542  0.00  0.00    -0.004 C 
ATOM      7  C   UNL     1      37.223 -26.773 -14.201  0.00  0.00    -0.082 C 
ATOM      8  C   UNL     1      37.773 -23.475 -12.324  0.00  0.00    -0.002 C 
ATOM      9  C   UNL     1      35.669 -24.606 -12.957  0.00  0.00    -0.002 C 
ATOM     10  C   UNL     1      37.127 -23.296 -15.506  0.00  0.00    -0.022 C 
ATOM     11  H   UNL     1      37.584 -26.054 -16.113  0.00  0.00    -0.084 HD
ATOM     12  H   UNL     1      36.083 -25.692 -15.583  0.00  0.00    -0.084 HD
ENDROOT
TORSDOF 0
ENDMDL
MODEL 3
REMARK VINA RESULT:      -5.3      1.226      2.732
REMARK  Name = 447260
REMARK  0 active torsions:
REMARK  status: ('A' for Active; 'I' for Inactive)
REMARK                            x       y       z     vdW  Elec       q    Type
REMARK                         _______ _______ _______ _____ _____    ______ ____
ROOT
ATOM      1  N   UNL     1      35.466 -24.950 -13.647  0.00  0.00    +0.386 N 
ATOM      2  C   UNL     1      37.633 -24.351 -14.455  0.00  0.00    -0.018 C 
ATOM      3  C   UNL     1      36.738 -25.569 -14.118  0.00  0.00    -0.046 C 
ATOM      4  C   UNL     1      37.421 -23.771 -13.038  0.00  0.00    -0.023 C 
ATOM      5  C   UNL     1      37.390 -26.165 -12.844  0.00  0.00    -0.020 C 
ATOM      6  C   UNL     1      37.886 -24.912 -12.102  0.00  0.00    -0.004 C 
ATOM      7  C   UNL     1      35.889 -23.726 -12.928  0.00  0.00    -0.082 C 
ATOM      8  C   UNL     1      39.100 -24.676 -14.797  0.00  0.00    -0.002 C 
ATOM      9  C   UNL     1      37.105 -23.452 -15.593  0.00  0.00    -0.002 C 
ATOM     10  C   UNL     1      36.503 -26.587 -15.215  0.00  0.00    -0.022 C 
ATOM     11  H   UNL     1      34.968 -25.582 -13.020  0.00  0.00    -0.084 HD
ATOM     12  H   UNL     1      34.828 -24.745 -14.416  0.00  0.00    -0.084 HD
ENDROOT
TORSDOF 0
ENDMDL
MODEL 4
REMARK VINA RESULT:      -5.2      1.538      2.913
REMARK  Name = 447260
REMARK  0 active torsions:
REMARK  status: ('A' for Active; 'I' for Inactive)
REMARK                            x       y       z     vdW  Elec       q    Type
REMARK                         _______ _______ _______ _____ _____    ______ ____
ROOT
ATOM      1  N   UNL     1      38.306 -24.136 -15.383  0.00  0.00    +0.386 N 
ATOM      2  C   UNL     1      37.405 -24.895 -13.305  0.00  0.00    -0.018 C 
ATOM      3  C   UNL     1      38.422 -25.263 -14.413  0.00  0.00    -0.046 C 
ATOM      4  C   UNL     1      36.275 -24.761 -14.350  0.00  0.00    -0.023 C 
ATOM      5  C   UNL     1      37.769 -26.475 -15.125  0.00  0.00    -0.020 C 
ATOM      6  C   UNL     1      36.270 -26.135 -15.061  0.00  0.00    -0.004 C 
ATOM      7  C   UNL     1      36.873 -23.762 -15.354  0.00  0.00    -0.082 C 
ATOM      8  C   UNL     1      37.160 -25.979 -12.238  0.00  0.00    -0.002 C 
ATOM      9  C   UNL     1      37.720 -23.591 -12.541  0.00  0.00    -0.002 C 
ATOM     10  C   UNL     1      39.857 -25.505 -13.992  0.00  0.00    -0.022 C 
ATOM     11  H   UNL     1      38.581 -24.436 -16.318  0.00  0.00    -0.084 HD
ATOM     12  H   UNL     1      38.914 -23.354 -15.141  0.00  0.00    -0.084 HD
ENDROOT
TORSDOF 0
ENDMDL
MODEL 5
REMARK VINA RESULT:      -5.1      1.469      2.919
REMARK  Name = 447260
REMARK  0 active torsions:
REMARK  status: ('A' for Active; 'I' for Inactive)
REMARK                            x       y       z     vdW  Elec       q    Type
REMARK                         _______ _______ _______ _____ _____    ______ ____
ROOT
ATOM      1  N   UNL     1      39.189 -24.909 -13.408  0.00  0.00    +0.386 N 
ATOM      2  C   UNL     1      37.115 -24.549 -14.538  0.00  0.00    -0.018 C 
ATOM      3  C   UNL     1      37.746 -24.660 -13.128  0.00  0.00    -0.046 C 
ATOM      4  C   UNL     1      37.699 -25.924 -14.934  0.00  0.00    -0.023 C 
ATOM      5  C   UNL     1      37.204 -26.007 -12.585  0.00  0.00    -0.020 C 
ATOM      6  C   UNL     1      37.150 -26.882 -13.850  0.00  0.00    -0.004 C 
ATOM      7  C   UNL     1      39.195 -25.746 -14.630  0.00  0.00    -0.082 C 
ATOM      8  C   UNL     1      35.577 -24.476 -14.576  0.00  0.00    -0.002 C 
ATOM      9  C   UNL     1      37.632 -23.372 -15.390  0.00  0.00    -0.002 C 
ATOM     10  C   UNL     1      37.544 -23.495 -12.179  0.00  0.00    -0.022 C 
ATOM     11  H   UNL     1      39.627 -25.403 -12.630  0.00  0.00    -0.084 HD
ATOM     12  H   UNL     1      39.714 -24.043 -13.530  0.00  0.00    -0.084 HD
ENDROOT
TORSDOF 0
ENDMDL
MODEL 6
REMARK VINA RESULT:      -5.1     18.917     20.364
REMARK  Name = 447260
REMARK  0 active torsions:
REMARK  status: ('A' for Active; 'I' for Inactive)
REMARK                            x       y       z     vdW  Elec       q    Type
REMARK                         _______ _______ _______ _____ _____    ______ ____
ROOT
ATOM      1  N   UNL     1      30.868  -7.702 -23.155  0.00  0.00    +0.386 N 
ATOM      2  C   UNL     1      33.195  -7.169 -23.226  0.00  0.00    -0.018 C 
ATOM      3  C   UNL     1      32.207  -8.348 -23.048  0.00  0.00    -0.046 C 
ATOM      4  C   UNL     1      32.512  -6.390 -22.079  0.00  0.00    -0.023 C 
ATOM      5  C   UNL     1      32.352  -8.729 -21.553  0.00  0.00    -0.020 C 
ATOM      6  C   UNL     1      32.587  -7.365 -20.880  0.00  0.00    -0.004 C 
ATOM      7  C   UNL     1      31.041  -6.373 -22.525  0.00  0.00    -0.082 C 
ATOM      8  C   UNL     1      34.679  -7.498 -22.976  0.00  0.00    -0.002 C 
ATOM      9  C   UNL     1      33.127  -6.465 -24.598  0.00  0.00    -0.002 C 
ATOM     10  C   UNL     1      32.348  -9.525 -23.993  0.00  0.00    -0.022 C 
ATOM     11  H   UNL     1      30.164  -8.248 -22.657  0.00  0.00    -0.084 HD
ATOM     12  H   UNL     1      30.548  -7.633 -24.121  0.00  0.00    -0.084 HD
ENDROOT
TORSDOF 0
ENDMDL
MODEL 7
REMARK VINA RESULT:      -5.1     18.839     20.204
REMARK  Name = 447260
REMARK  0 active torsions:
REMARK  status: ('A' for Active; 'I' for Inactive)
REMARK                            x       y       z     vdW  Elec       q    Type
REMARK                         _______ _______ _______ _____ _____    ______ ____
ROOT
ATOM      1  N   UNL     1      33.122  -9.101 -23.660  0.00  0.00    +0.386 N 
ATOM      2  C   UNL     1      31.925  -7.103 -23.132  0.00  0.00    -0.018 C 
ATOM      3  C   UNL     1      33.353  -7.661 -23.346  0.00  0.00    -0.046 C 
ATOM      4  C   UNL     1      31.631  -8.188 -22.072  0.00  0.00    -0.023 C 
ATOM      5  C   UNL     1      33.969  -7.654 -21.924  0.00  0.00    -0.020 C 
ATOM      6  C   UNL     1      32.762  -8.000 -21.033  0.00  0.00    -0.004 C 
ATOM      7  C   UNL     1      31.958  -9.484 -22.830  0.00  0.00    -0.082 C 
ATOM      8  C   UNL     1      31.846  -5.658 -22.603  0.00  0.00    -0.002 C 
ATOM      9  C   UNL     1      31.009  -7.166 -24.374  0.00  0.00    -0.002 C 
ATOM     10  C   UNL     1      34.219  -6.983 -24.388  0.00  0.00    -0.022 C 
ATOM     11  H   UNL     1      33.940  -9.658 -23.414  0.00  0.00    -0.084 HD
ATOM     12  H   UNL     1      32.956  -9.257 -24.655  0.00  0.00    -0.084 HD
ENDROOT
TORSDOF 0
ENDMDL
MODEL 8
REMARK VINA RESULT:      -5.1     19.031     20.089
REMARK  Name = 447260
REMARK  0 active torsions:
REMARK  status: ('A' for Active; 'I' for Inactive)
REMARK                            x       y       z     vdW  Elec       q    Type
REMARK                         _______ _______ _______ _____ _____    ______ ____
ROOT
ATOM      1  N   UNL     1      32.524  -7.310 -24.406  0.00  0.00    +0.386 N 
ATOM      2  C   UNL     1      32.345  -7.445 -22.028  0.00  0.00    -0.018 C 
ATOM      3  C   UNL     1      33.234  -7.872 -23.222  0.00  0.00    -0.046 C 
ATOM      4  C   UNL     1      31.106  -8.092 -22.687  0.00  0.00    -0.023 C 
ATOM      5  C   UNL     1      33.019  -9.404 -23.314  0.00  0.00    -0.020 C 
ATOM      6  C   UNL     1      31.540  -9.559 -22.919  0.00  0.00    -0.004 C 
ATOM      7  C   UNL     1      31.086  -7.428 -24.073  0.00  0.00    -0.082 C 
ATOM      8  C   UNL     1      32.728  -8.047 -20.663  0.00  0.00    -0.002 C 
ATOM      9  C   UNL     1      32.227  -5.920 -21.818  0.00  0.00    -0.002 C 
ATOM     10  C   UNL     1      34.693  -7.463 -23.187  0.00  0.00    -0.022 C 
ATOM     11  H   UNL     1      32.745  -7.845 -25.246  0.00  0.00    -0.084 HD
ATOM     12  H   UNL     1      32.798  -6.346 -24.599  0.00  0.00    -0.084 HD
ENDROOT
TORSDOF 0
ENDMDL
MODEL 9
REMARK VINA RESULT:      -5.0      1.397      2.563
REMARK  Name = 447260
REMARK  0 active torsions:
REMARK  status: ('A' for Active; 'I' for Inactive)
REMARK                            x       y       z     vdW  Elec       q    Type
REMARK                         _______ _______ _______ _____ _____    ______ ____
ROOT
ATOM      1  N   UNL     1      38.650 -24.808 -13.780  0.00  0.00    +0.386 N 
ATOM      2  C   UNL     1      36.313 -25.135 -14.148  0.00  0.00    -0.018 C 
ATOM      3  C   UNL     1      37.426 -24.058 -14.181  0.00  0.00    -0.046 C 
ATOM      4  C   UNL     1      36.671 -25.496 -12.689  0.00  0.00    -0.023 C 
ATOM      5  C   UNL     1      37.096 -23.149 -12.971  0.00  0.00    -0.020 C 
ATOM      6  C   UNL     1      36.549 -24.149 -11.938  0.00  0.00    -0.004 C 
ATOM      7  C   UNL     1      38.175 -25.797 -12.785  0.00  0.00    -0.082 C 
ATOM      8  C   UNL     1      34.876 -24.614 -14.341  0.00  0.00    -0.002 C 
ATOM      9  C   UNL     1      36.498 -26.292 -15.152  0.00  0.00    -0.002 C 
ATOM     10  C   UNL     1      37.624 -23.299 -15.478  0.00  0.00    -0.022 C 
ATOM     11  H   UNL     1      39.337 -24.180 -13.363  0.00  0.00    -0.084 HD
ATOM     12  H   UNL     1      39.111 -25.251 -14.575  0.00  0.00    -0.084 HD
ENDROOT
TORSDOF 0
ENDMDL
