MODEL 1
REMARK VINA RESULT:      -5.7      0.000      0.000
REMARK  Name = 6992039
REMARK  8 active torsions:
REMARK  status: ('A' for Active; 'I' for Inactive)
REMARK    1  A    between atoms: C_1  and  N_2
REMARK    2  A    between atoms: C_1  and  C_8
REMARK    3  A    between atoms: C_1  and  C_10
REMARK    4  A    between atoms: C_1  and  C_13
REMARK    5  A    between atoms: C_10  and  O_11
REMARK    6  A    between atoms: C_13  and  C_14
REMARK    7  A    between atoms: C_14  and  C_15
REMARK    8  A    between atoms: C_15  and  N_16
REMARK                            x       y       z     vdW  Elec       q    Type
REMARK                         _______ _______ _______ _____ _____    ______ ____
ROOT
ATOM      1  C   UNL     1      38.520 -25.169 -14.582  0.00  0.00    +0.105 C 
ENDROOT
BRANCH   1   2
ATOM      2  N   UNL     1      37.869 -26.239 -15.351  0.00  0.00    +0.393 N 
ATOM      3  H   UNL     1      37.425 -25.841 -16.178  0.00  0.00    -0.088 HD
ATOM      4  H   UNL     1      37.162 -26.693 -14.771  0.00  0.00    -0.088 HD
ATOM      5  H   UNL     1      38.566 -26.926 -15.635  0.00  0.00    -0.088 HD
ENDBRANCH   1   2
BRANCH   1   8
ATOM      6  F   UNL     1      38.690 -23.275 -16.005  0.00  0.00    -0.200 F 
ATOM      7  F   UNL     1      36.696 -24.049 -15.605  0.00  0.00    -0.200 F 
ATOM      8  C   UNL     1      37.915 -23.841 -15.045  0.00  0.00    +0.311 C 
ENDBRANCH   1   8
BRANCH   1  10
ATOM      9  O   UNL     1      40.907 -24.715 -14.249  0.00  0.00    -0.252 OA
ATOM     10  C   UNL     1      40.017 -25.233 -14.916  0.00  0.00    +0.300 C 
BRANCH  10  11
ATOM     11  O   UNL     1      40.283 -25.915 -16.060  0.00  0.00    -0.481 OA
ATOM     12  H   UNL     1      39.814 -26.702 -16.255  0.00  0.00    +0.295 HD
ENDBRANCH  10  11
ENDBRANCH   1  10
BRANCH   1  13
ATOM     13  C   UNL     1      38.331 -25.432 -13.069  0.00  0.00    -0.006 C 
BRANCH  13  14
ATOM     14  C   UNL     1      37.940 -24.201 -12.236  0.00  0.00    -0.025 C 
BRANCH  14  15
ATOM     15  C   UNL     1      36.541 -24.306 -11.620  0.00  0.00    -0.086 C 
BRANCH  15  16
ATOM     16  N   UNL     1      35.601 -25.005 -12.488  0.00  0.00    +0.380 N 
ATOM     17  H   UNL     1      36.114 -25.619 -13.121  0.00  0.00    -0.089 HD
ATOM     18  H   UNL     1      35.069 -24.324 -13.031  0.00  0.00    -0.089 HD
ATOM     19  H   UNL     1      34.962 -25.560 -11.919  0.00  0.00    -0.089 HD
ENDBRANCH  15  16
ENDBRANCH  14  15
ENDBRANCH  13  14
ENDBRANCH   1  13
TORSDOF 8
ENDMDL
MODEL 2
REMARK VINA RESULT:      -5.5      1.875      2.308
REMARK  Name = 6992039
REMARK  8 active torsions:
REMARK  status: ('A' for Active; 'I' for Inactive)
REMARK    1  A    between atoms: C_1  and  N_2
REMARK    2  A    between atoms: C_1  and  C_8
REMARK    3  A    between atoms: C_1  and  C_10
REMARK    4  A    between atoms: C_1  and  C_13
REMARK    5  A    between atoms: C_10  and  O_11
REMARK    6  A    between atoms: C_13  and  C_14
REMARK    7  A    between atoms: C_14  and  C_15
REMARK    8  A    between atoms: C_15  and  N_16
REMARK                            x       y       z     vdW  Elec       q    Type
REMARK                         _______ _______ _______ _____ _____    ______ ____
ROOT
ATOM      1  C   UNL     1      38.577 -25.290 -14.389  0.00  0.00    +0.105 C 
ENDROOT
BRANCH   1   2
ATOM      2  N   UNL     1      38.628 -25.128 -12.929  0.00  0.00    +0.393 N 
ATOM      3  H   UNL     1      39.314 -24.413 -12.690  0.00  0.00    -0.088 HD
ATOM      4  H   UNL     1      38.893 -26.013 -12.497  0.00  0.00    -0.088 HD
ATOM      5  H   UNL     1      37.709 -24.847 -12.586  0.00  0.00    -0.088 HD
ENDBRANCH   1   2
BRANCH   1   8
ATOM      6  F   UNL     1      37.247 -27.087 -13.590  0.00  0.00    -0.200 F 
ATOM      7  F   UNL     1      37.031 -26.537 -15.685  0.00  0.00    -0.200 F 
ATOM      8  C   UNL     1      37.933 -26.649 -14.676  0.00  0.00    +0.311 C 
ENDBRANCH   1   8
BRANCH   1  10
ATOM      9  O   UNL     1      40.960 -24.715 -14.302  0.00  0.00    -0.252 OA
ATOM     10  C   UNL     1      40.029 -25.258 -14.888  0.00  0.00    +0.300 C 
BRANCH  10  11
ATOM     11  O   UNL     1      40.200 -25.883 -16.082  0.00  0.00    -0.481 OA
ATOM     12  H   UNL     1      41.064 -26.078 -16.388  0.00  0.00    +0.295 HD
ENDBRANCH  10  11
ENDBRANCH   1  10
BRANCH   1  13
ATOM     13  C   UNL     1      37.806 -24.103 -15.014  0.00  0.00    -0.006 C 
BRANCH  13  14
ATOM     14  C   UNL     1      36.810 -23.405 -14.074  0.00  0.00    -0.025 C 
BRANCH  14  15
ATOM     15  C   UNL     1      35.398 -23.996 -14.140  0.00  0.00    -0.086 C 
BRANCH  15  16
ATOM     16  N   UNL     1      35.061 -24.767 -12.950  0.00  0.00    +0.380 N 
ATOM     17  H   UNL     1      34.049 -24.775 -12.825  0.00  0.00    -0.089 HD
ATOM     18  H   UNL     1      35.501 -24.342 -12.133  0.00  0.00    -0.089 HD
ATOM     19  H   UNL     1      35.399 -25.723 -13.058  0.00  0.00    -0.089 HD
ENDBRANCH  15  16
ENDBRANCH  14  15
ENDBRANCH  13  14
ENDBRANCH   1  13
TORSDOF 8
ENDMDL
MODEL 3
REMARK VINA RESULT:      -5.4     10.495     11.369
REMARK  Name = 6992039
REMARK  8 active torsions:
REMARK  status: ('A' for Active; 'I' for Inactive)
REMARK    1  A    between atoms: C_1  and  N_2
REMARK    2  A    between atoms: C_1  and  C_8
REMARK    3  A    between atoms: C_1  and  C_10
REMARK    4  A    between atoms: C_1  and  C_13
REMARK    5  A    between atoms: C_10  and  O_11
REMARK    6  A    between atoms: C_13  and  C_14
REMARK    7  A    between atoms: C_14  and  C_15
REMARK    8  A    between atoms: C_15  and  N_16
REMARK                            x       y       z     vdW  Elec       q    Type
REMARK                         _______ _______ _______ _____ _____    ______ ____
ROOT
ATOM      1  C   UNL     1      34.994 -18.022 -22.694  0.00  0.00    +0.105 C 
ENDROOT
BRANCH   1   2
ATOM      2  N   UNL     1      36.449 -18.223 -22.749  0.00  0.00    +0.393 N 
ATOM      3  H   UNL     1      36.878 -17.461 -23.273  0.00  0.00    -0.088 HD
ATOM      4  H   UNL     1      36.653 -19.110 -23.210  0.00  0.00    -0.088 HD
ATOM      5  H   UNL     1      36.826 -18.240 -21.801  0.00  0.00    -0.088 HD
ENDBRANCH   1   2
BRANCH   1   8
ATOM      6  F   UNL     1      34.070 -18.156 -24.877  0.00  0.00    -0.200 F 
ATOM      7  F   UNL     1      35.256 -19.845 -24.188  0.00  0.00    -0.200 F 
ATOM      8  C   UNL     1      34.371 -18.899 -23.782  0.00  0.00    +0.311 C 
ENDBRANCH   1   8
BRANCH   1  10
ATOM      9  O   UNL     1      33.759 -15.906 -22.603  0.00  0.00    -0.252 OA
ATOM     10  C   UNL     1      34.742 -16.535 -22.980  0.00  0.00    +0.300 C 
BRANCH  10  11
ATOM     11  O   UNL     1      35.720 -15.959 -23.727  0.00  0.00    -0.481 OA
ATOM     12  H   UNL     1      35.836 -15.029 -23.708  0.00  0.00    +0.295 HD
ENDBRANCH  10  11
ENDBRANCH   1  10
BRANCH   1  13
ATOM     13  C   UNL     1      34.481 -18.354 -21.272  0.00  0.00    -0.006 C 
BRANCH  13  14
ATOM     14  C   UNL     1      34.312 -19.852 -20.973  0.00  0.00    -0.025 C 
BRANCH  14  15
ATOM     15  C   UNL     1      32.933 -20.206 -20.408  0.00  0.00    -0.086 C 
BRANCH  15  16
ATOM     16  N   UNL     1      32.865 -21.578 -19.919  0.00  0.00    +0.380 N 
ATOM     17  H   UNL     1      32.687 -21.573 -18.915  0.00  0.00    -0.089 HD
ATOM     18  H   UNL     1      33.751 -22.049 -20.105  0.00  0.00    -0.089 HD
ATOM     19  H   UNL     1      32.112 -22.072 -20.397  0.00  0.00    -0.089 HD
ENDBRANCH  15  16
ENDBRANCH  14  15
ENDBRANCH  13  14
ENDBRANCH   1  13
TORSDOF 8
ENDMDL
MODEL 4
REMARK VINA RESULT:      -5.3      2.595      3.083
REMARK  Name = 6992039
REMARK  8 active torsions:
REMARK  status: ('A' for Active; 'I' for Inactive)
REMARK    1  A    between atoms: C_1  and  N_2
REMARK    2  A    between atoms: C_1  and  C_8
REMARK    3  A    between atoms: C_1  and  C_10
REMARK    4  A    between atoms: C_1  and  C_13
REMARK    5  A    between atoms: C_10  and  O_11
REMARK    6  A    between atoms: C_13  and  C_14
REMARK    7  A    between atoms: C_14  and  C_15
REMARK    8  A    between atoms: C_15  and  N_16
REMARK                            x       y       z     vdW  Elec       q    Type
REMARK                         _______ _______ _______ _____ _____    ______ ____
ROOT
ATOM      1  C   UNL     1      37.690 -25.014 -14.480  0.00  0.00    +0.105 C 
ENDROOT
BRANCH   1   2
ATOM      2  N   UNL     1      38.694 -24.564 -15.455  0.00  0.00    +0.393 N 
ATOM      3  H   UNL     1      38.936 -23.591 -15.269  0.00  0.00    -0.088 HD
ATOM      4  H   UNL     1      38.312 -24.645 -16.398  0.00  0.00    -0.088 HD
ATOM      5  H   UNL     1      39.528 -25.144 -15.377  0.00  0.00    -0.088 HD
ENDBRANCH   1   2
BRANCH   1   8
ATOM      6  F   UNL     1      37.909 -25.879 -12.280  0.00  0.00    -0.200 F 
ATOM      7  F   UNL     1      39.662 -24.939 -13.163  0.00  0.00    -0.200 F 
ATOM      8  C   UNL     1      38.308 -24.864 -13.088  0.00  0.00    +0.311 C 
ENDBRANCH   1   8
BRANCH   1  10
ATOM      9  O   UNL     1      38.249 -27.372 -14.855  0.00  0.00    -0.252 OA
ATOM     10  C   UNL     1      37.400 -26.489 -14.793  0.00  0.00    +0.300 C 
BRANCH  10  11
ATOM     11  O   UNL     1      36.085 -26.739 -15.026  0.00  0.00    -0.481 OA
ATOM     12  H   UNL     1      35.609 -26.211 -15.636  0.00  0.00    +0.295 HD
ENDBRANCH  10  11
ENDBRANCH   1  10
BRANCH   1  13
ATOM     13  C   UNL     1      36.389 -24.196 -14.664  0.00  0.00    -0.006 C 
BRANCH  13  14
ATOM     14  C   UNL     1      35.835 -23.555 -13.381  0.00  0.00    -0.025 C 
BRANCH  14  15
ATOM     15  C   UNL     1      34.440 -24.063 -13.003  0.00  0.00    -0.086 C 
BRANCH  15  16
ATOM     16  N   UNL     1      33.873 -24.942 -14.019  0.00  0.00    +0.380 N 
ATOM     17  H   UNL     1      32.865 -24.797 -14.070  0.00  0.00    -0.089 HD
ATOM     18  H   UNL     1      34.064 -25.914 -13.772  0.00  0.00    -0.089 HD
ATOM     19  H   UNL     1      34.294 -24.733 -14.923  0.00  0.00    -0.089 HD
ENDBRANCH  15  16
ENDBRANCH  14  15
ENDBRANCH  13  14
ENDBRANCH   1  13
TORSDOF 8
ENDMDL
MODEL 5
REMARK VINA RESULT:      -5.3     10.334     11.563
REMARK  Name = 6992039
REMARK  8 active torsions:
REMARK  status: ('A' for Active; 'I' for Inactive)
REMARK    1  A    between atoms: C_1  and  N_2
REMARK    2  A    between atoms: C_1  and  C_8
REMARK    3  A    between atoms: C_1  and  C_10
REMARK    4  A    between atoms: C_1  and  C_13
REMARK    5  A    between atoms: C_10  and  O_11
REMARK    6  A    between atoms: C_13  and  C_14
REMARK    7  A    between atoms: C_14  and  C_15
REMARK    8  A    between atoms: C_15  and  N_16
REMARK                            x       y       z     vdW  Elec       q    Type
REMARK                         _______ _______ _______ _____ _____    ______ ____
ROOT
ATOM      1  C   UNL     1      35.199 -18.518 -21.773  0.00  0.00    +0.105 C 
ENDROOT
BRANCH   1   2
ATOM      2  N   UNL     1      34.004 -19.370 -21.691  0.00  0.00    +0.393 N 
ATOM      3  H   UNL     1      33.659 -19.380 -20.732  0.00  0.00    -0.088 HD
ATOM      4  H   UNL     1      34.244 -20.320 -21.977  0.00  0.00    -0.088 HD
ATOM      5  H   UNL     1      33.281 -19.003 -22.309  0.00  0.00    -0.088 HD
ENDBRANCH   1   2
BRANCH   1   8
ATOM      6  F   UNL     1      35.962 -20.353 -20.473  0.00  0.00    -0.200 F 
ATOM      7  F   UNL     1      37.466 -18.992 -21.262  0.00  0.00    -0.200 F 
ATOM      8  C   UNL     1      36.209 -19.048 -20.752  0.00  0.00    +0.311 C 
ENDBRANCH   1   8
BRANCH   1  10
ATOM      9  O   UNL     1      34.011 -16.397 -22.095  0.00  0.00    -0.252 OA
ATOM     10  C   UNL     1      34.752 -17.094 -21.411  0.00  0.00    +0.300 C 
BRANCH  10  11
ATOM     11  O   UNL     1      35.280 -16.647 -20.242  0.00  0.00    -0.481 OA
ATOM     12  H   UNL     1      36.032 -16.088 -20.252  0.00  0.00    +0.295 HD
ENDBRANCH  10  11
ENDBRANCH   1  10
BRANCH   1  13
ATOM     13  C   UNL     1      35.737 -18.521 -23.224  0.00  0.00    -0.006 C 
BRANCH  13  14
ATOM     14  C   UNL     1      34.737 -18.999 -24.289  0.00  0.00    -0.025 C 
BRANCH  14  15
ATOM     15  C   UNL     1      34.294 -17.889 -25.247  0.00  0.00    -0.086 C 
BRANCH  15  16
ATOM     16  N   UNL     1      35.030 -16.647 -25.039  0.00  0.00    +0.380 N 
ATOM     17  H   UNL     1      34.527 -15.876 -25.477  0.00  0.00    -0.089 HD
ATOM     18  H   UNL     1      35.958 -16.728 -25.456  0.00  0.00    -0.089 HD
ATOM     19  H   UNL     1      35.121 -16.470 -24.039  0.00  0.00    -0.089 HD
ENDBRANCH  15  16
ENDBRANCH  14  15
ENDBRANCH  13  14
ENDBRANCH   1  13
TORSDOF 8
ENDMDL
MODEL 6
REMARK VINA RESULT:      -5.3      3.789      4.492
REMARK  Name = 6992039
REMARK  8 active torsions:
REMARK  status: ('A' for Active; 'I' for Inactive)
REMARK    1  A    between atoms: C_1  and  N_2
REMARK    2  A    between atoms: C_1  and  C_8
REMARK    3  A    between atoms: C_1  and  C_10
REMARK    4  A    between atoms: C_1  and  C_13
REMARK    5  A    between atoms: C_10  and  O_11
REMARK    6  A    between atoms: C_13  and  C_14
REMARK    7  A    between atoms: C_14  and  C_15
REMARK    8  A    between atoms: C_15  and  N_16
REMARK                            x       y       z     vdW  Elec       q    Type
REMARK                         _______ _______ _______ _____ _____    ______ ____
ROOT
ATOM      1  C   UNL     1      36.582 -24.750 -12.657  0.00  0.00    +0.105 C 
ENDROOT
BRANCH   1   2
ATOM      2  N   UNL     1      37.210 -26.031 -12.306  0.00  0.00    +0.393 N 
ATOM      3  H   UNL     1      36.965 -26.279 -11.348  0.00  0.00    -0.088 HD
ATOM      4  H   UNL     1      38.224 -25.947 -12.387  0.00  0.00    -0.088 HD
ATOM      5  H   UNL     1      36.879 -26.757 -12.941  0.00  0.00    -0.088 HD
ENDBRANCH   1   2
BRANCH   1   8
ATOM      6  F   UNL     1      37.157 -22.619 -11.779  0.00  0.00    -0.200 F 
ATOM      7  F   UNL     1      38.711 -24.142 -11.805  0.00  0.00    -0.200 F 
ATOM      8  C   UNL     1      37.647 -23.661 -12.498  0.00  0.00    +0.311 C 
ENDBRANCH   1   8
BRANCH   1  10
ATOM      9  O   UNL     1      35.354 -25.054 -10.556  0.00  0.00    -0.252 OA
ATOM     10  C   UNL     1      35.430 -24.536 -11.665  0.00  0.00    +0.300 C 
BRANCH  10  11
ATOM     11  O   UNL     1      34.458 -23.714 -12.141  0.00  0.00    -0.481 OA
ATOM     12  H   UNL     1      33.876 -24.017 -12.810  0.00  0.00    +0.295 HD
ENDBRANCH  10  11
ENDBRANCH   1  10
BRANCH   1  13
ATOM     13  C   UNL     1      36.003 -24.834 -14.089  0.00  0.00    -0.006 C 
BRANCH  13  14
ATOM     14  C   UNL     1      36.692 -23.933 -15.126  0.00  0.00    -0.025 C 
BRANCH  14  15
ATOM     15  C   UNL     1      35.782 -22.826 -15.668  0.00  0.00    -0.086 C 
BRANCH  15  16
ATOM     16  N   UNL     1      34.566 -22.668 -14.879  0.00  0.00    +0.380 N 
ATOM     17  H   UNL     1      34.682 -21.895 -14.225  0.00  0.00    -0.089 HD
ATOM     18  H   UNL     1      34.384 -23.528 -14.360  0.00  0.00    -0.089 HD
ATOM     19  H   UNL     1      33.781 -22.474 -15.501  0.00  0.00    -0.089 HD
ENDBRANCH  15  16
ENDBRANCH  14  15
ENDBRANCH  13  14
ENDBRANCH   1  13
TORSDOF 8
ENDMDL
MODEL 7
REMARK VINA RESULT:      -5.3     10.210     11.239
REMARK  Name = 6992039
REMARK  8 active torsions:
REMARK  status: ('A' for Active; 'I' for Inactive)
REMARK    1  A    between atoms: C_1  and  N_2
REMARK    2  A    between atoms: C_1  and  C_8
REMARK    3  A    between atoms: C_1  and  C_10
REMARK    4  A    between atoms: C_1  and  C_13
REMARK    5  A    between atoms: C_10  and  O_11
REMARK    6  A    between atoms: C_13  and  C_14
REMARK    7  A    between atoms: C_14  and  C_15
REMARK    8  A    between atoms: C_15  and  N_16
REMARK                            x       y       z     vdW  Elec       q    Type
REMARK                         _______ _______ _______ _____ _____    ______ ____
ROOT
ATOM      1  C   UNL     1      34.671 -18.482 -21.494  0.00  0.00    +0.105 C 
ENDROOT
BRANCH   1   2
ATOM      2  N   UNL     1      35.887 -18.401 -20.672  0.00  0.00    +0.393 N 
ATOM      3  H   UNL     1      36.662 -18.068 -21.244  0.00  0.00    -0.088 HD
ATOM      4  H   UNL     1      36.110 -19.326 -20.303  0.00  0.00    -0.088 HD
ATOM      5  H   UNL     1      35.732 -17.755 -19.898  0.00  0.00    -0.088 HD
ENDBRANCH   1   2
BRANCH   1   8
ATOM      6  F   UNL     1      34.552 -20.351 -20.034  0.00  0.00    -0.200 F 
ATOM      7  F   UNL     1      32.679 -19.385 -20.576  0.00  0.00    -0.200 F 
ATOM      8  C   UNL     1      33.903 -19.730 -21.051  0.00  0.00    +0.311 C 
ENDBRANCH   1   8
BRANCH   1  10
ATOM      9  O   UNL     1      34.780 -19.501 -23.722  0.00  0.00    -0.252 OA
ATOM     10  C   UNL     1      35.131 -18.613 -22.953  0.00  0.00    +0.300 C 
BRANCH  10  11
ATOM     11  O   UNL     1      36.006 -17.644 -23.329  0.00  0.00    -0.481 OA
ATOM     12  H   UNL     1      36.096 -17.421 -24.235  0.00  0.00    +0.295 HD
ENDBRANCH  10  11
ENDBRANCH   1  10
BRANCH   1  13
ATOM     13  C   UNL     1      33.856 -17.176 -21.340  0.00  0.00    -0.006 C 
BRANCH  13  14
ATOM     14  C   UNL     1      34.630 -15.992 -20.738  0.00  0.00    -0.025 C 
BRANCH  14  15
ATOM     15  C   UNL     1      34.499 -14.703 -21.557  0.00  0.00    -0.086 C 
BRANCH  15  16
ATOM     16  N   UNL     1      34.607 -14.941 -22.991  0.00  0.00    +0.380 N 
ATOM     17  H   UNL     1      33.764 -15.411 -23.322  0.00  0.00    -0.089 HD
ATOM     18  H   UNL     1      35.419 -15.530 -23.178  0.00  0.00    -0.089 HD
ATOM     19  H   UNL     1      34.714 -14.051 -23.476  0.00  0.00    -0.089 HD
ENDBRANCH  15  16
ENDBRANCH  14  15
ENDBRANCH  13  14
ENDBRANCH   1  13
TORSDOF 8
ENDMDL
MODEL 8
REMARK VINA RESULT:      -5.3      2.369      2.817
REMARK  Name = 6992039
REMARK  8 active torsions:
REMARK  status: ('A' for Active; 'I' for Inactive)
REMARK    1  A    between atoms: C_1  and  N_2
REMARK    2  A    between atoms: C_1  and  C_8
REMARK    3  A    between atoms: C_1  and  C_10
REMARK    4  A    between atoms: C_1  and  C_13
REMARK    5  A    between atoms: C_10  and  O_11
REMARK    6  A    between atoms: C_13  and  C_14
REMARK    7  A    between atoms: C_14  and  C_15
REMARK    8  A    between atoms: C_15  and  N_16
REMARK                            x       y       z     vdW  Elec       q    Type
REMARK                         _______ _______ _______ _____ _____    ______ ____
ROOT
ATOM      1  C   UNL     1      38.348 -25.394 -14.255  0.00  0.00    +0.105 C 
ENDROOT
BRANCH   1   2
ATOM      2  N   UNL     1      38.041 -24.306 -15.193  0.00  0.00    +0.393 N 
ATOM      3  H   UNL     1      37.695 -23.499 -14.676  0.00  0.00    -0.088 HD
ATOM      4  H   UNL     1      37.329 -24.617 -15.854  0.00  0.00    -0.088 HD
ATOM      5  H   UNL     1      38.885 -24.047 -15.702  0.00  0.00    -0.088 HD
ENDBRANCH   1   2
BRANCH   1   8
ATOM      6  F   UNL     1      40.160 -25.542 -15.782  0.00  0.00    -0.200 F 
ATOM      7  F   UNL     1      40.637 -25.109 -13.703  0.00  0.00    -0.200 F 
ATOM      8  C   UNL     1      39.798 -25.816 -14.503  0.00  0.00    +0.311 C 
ENDBRANCH   1   8
BRANCH   1  10
ATOM      9  O   UNL     1      37.134 -26.954 -15.708  0.00  0.00    -0.252 OA
ATOM     10  C   UNL     1      37.382 -26.543 -14.579  0.00  0.00    +0.300 C 
BRANCH  10  11
ATOM     11  O   UNL     1      36.788 -27.072 -13.477  0.00  0.00    -0.481 OA
ATOM     12  H   UNL     1      37.292 -27.580 -12.873  0.00  0.00    +0.295 HD
ENDBRANCH  10  11
ENDBRANCH   1  10
BRANCH   1  13
ATOM     13  C   UNL     1      38.090 -24.915 -12.806  0.00  0.00    -0.006 C 
BRANCH  13  14
ATOM     14  C   UNL     1      37.447 -23.525 -12.683  0.00  0.00    -0.025 C 
BRANCH  14  15
ATOM     15  C   UNL     1      36.004 -23.567 -12.171  0.00  0.00    -0.086 C 
BRANCH  15  16
ATOM     16  N   UNL     1      35.027 -23.533 -13.253  0.00  0.00    +0.380 N 
ATOM     17  H   UNL     1      34.087 -23.620 -12.866  0.00  0.00    -0.089 HD
ATOM     18  H   UNL     1      35.203 -24.306 -13.895  0.00  0.00    -0.089 HD
ATOM     19  H   UNL     1      35.108 -22.649 -13.756  0.00  0.00    -0.089 HD
ENDBRANCH  15  16
ENDBRANCH  14  15
ENDBRANCH  13  14
ENDBRANCH   1  13
TORSDOF 8
ENDMDL
MODEL 9
REMARK VINA RESULT:      -5.1      2.939      3.807
REMARK  Name = 6992039
REMARK  8 active torsions:
REMARK  status: ('A' for Active; 'I' for Inactive)
REMARK    1  A    between atoms: C_1  and  N_2
REMARK    2  A    between atoms: C_1  and  C_8
REMARK    3  A    between atoms: C_1  and  C_10
REMARK    4  A    between atoms: C_1  and  C_13
REMARK    5  A    between atoms: C_10  and  O_11
REMARK    6  A    between atoms: C_13  and  C_14
REMARK    7  A    between atoms: C_14  and  C_15
REMARK    8  A    between atoms: C_15  and  N_16
REMARK                            x       y       z     vdW  Elec       q    Type
REMARK                         _______ _______ _______ _____ _____    ______ ____
ROOT
ATOM      1  C   UNL     1      37.475 -25.049 -14.586  0.00  0.00    +0.105 C 
ENDROOT
BRANCH   1   2
ATOM      2  N   UNL     1      38.667 -24.600 -15.319  0.00  0.00    +0.393 N 
ATOM      3  H   UNL     1      38.846 -23.619 -15.107  0.00  0.00    -0.088 HD
ATOM      4  H   UNL     1      38.511 -24.709 -16.321  0.00  0.00    -0.088 HD
ATOM      5  H   UNL     1      39.471 -25.161 -15.038  0.00  0.00    -0.088 HD
ENDBRANCH   1   2
BRANCH   1   8
ATOM      6  F   UNL     1      37.013 -25.558 -12.313  0.00  0.00    -0.200 F 
ATOM      7  F   UNL     1      38.996 -24.795 -12.783  0.00  0.00    -0.200 F 
ATOM      8  C   UNL     1      37.683 -24.690 -13.112  0.00  0.00    +0.311 C 
ENDBRANCH   1   8
BRANCH   1  10
ATOM      9  O   UNL     1      38.342 -27.341 -14.693  0.00  0.00    -0.252 OA
ATOM     10  C   UNL     1      37.390 -26.571 -14.770  0.00  0.00    +0.300 C 
BRANCH  10  11
ATOM     11  O   UNL     1      36.136 -27.008 -15.057  0.00  0.00    -0.481 OA
ATOM     12  H   UNL     1      35.993 -27.909 -15.271  0.00  0.00    +0.295 HD
ENDBRANCH  10  11
ENDBRANCH   1  10
BRANCH   1  13
ATOM     13  C   UNL     1      36.214 -24.398 -15.202  0.00  0.00    -0.006 C 
BRANCH  13  14
ATOM     14  C   UNL     1      36.212 -22.861 -15.211  0.00  0.00    -0.025 C 
BRANCH  14  15
ATOM     15  C   UNL     1      36.396 -22.263 -16.609  0.00  0.00    -0.086 C 
BRANCH  15  16
ATOM     16  N   UNL     1      37.365 -21.173 -16.626  0.00  0.00    +0.380 N 
ATOM     17  H   UNL     1      37.649 -20.956 -15.671  0.00  0.00    -0.089 HD
ATOM     18  H   UNL     1      36.940 -20.347 -17.051  0.00  0.00    -0.089 HD
ATOM     19  H   UNL     1      38.181 -21.452 -17.170  0.00  0.00    -0.089 HD
ENDBRANCH  15  16
ENDBRANCH  14  15
ENDBRANCH  13  14
ENDBRANCH   1  13
TORSDOF 8
ENDMDL
