MODEL 1
REMARK VINA RESULT:      -8.1      0.000      0.000
REMARK  Name = 40467053
REMARK  4 active torsions:
REMARK  status: ('A' for Active; 'I' for Inactive)
REMARK    1  A    between atoms: CA_6  and  C_23
REMARK    2  A    between atoms: CA_7  and  N_11
REMARK    3  A    between atoms: N_11  and  C_13
REMARK    4  A    between atoms: N_12  and  C_13
REMARK                            x       y       z     vdW  Elec       q    Type
REMARK                         _______ _______ _______ _____ _____    ______ ____
ROOT
ATOM      1  S   UNL     1      36.533 -23.338 -13.149  0.00  0.00    -0.119 S 
ATOM      2  O   UNL     1      35.912 -26.949 -15.552  0.00  0.00    -0.273 OA
ATOM      3  N   UNL     1      37.038 -24.911 -15.183  0.00  0.00    -0.260 N 
ATOM      4  C   UNL     1      36.224 -23.726 -14.912  0.00  0.00    +0.147 C 
ATOM      5  C   UNL     1      37.789 -24.695 -12.926  0.00  0.00    +0.068 C 
ATOM      6  CA  UNL     1      38.196 -25.158 -14.347  0.00  0.00    +0.189 C 
ATOM      7  CA  UNL     1      34.989 -24.593 -15.206  0.00  0.00    +0.162 C 
ATOM      8  C   UNL     1      35.988 -25.751 -15.400  0.00  0.00    +0.244 C 
ATOM      9  C   UNL     1      38.953 -24.157 -12.086  0.00  0.00    +0.013 C 
ATOM     10  C   UNL     1      37.104 -25.833 -12.150  0.00  0.00    +0.013 C 
ENDROOT
BRANCH   6  13
ATOM     11  O   UNL     1      40.524 -24.856 -14.529  0.00  0.00    -0.244 OA
ATOM     12  OXT UNL     1      39.123 -23.473 -15.694  0.00  0.00    -0.244 OA
ATOM     13  C   UNL     1      39.401 -24.424 -14.912  0.00  0.00    +0.383 C 
ENDBRANCH   6  13
BRANCH   7  14
ATOM     14  N   UNL     1      34.071 -24.760 -14.092  0.00  0.00    -0.275 NA
ATOM     15  H   UNL     1      34.416 -24.663 -13.175  0.00  0.00    +0.125 HD
BRANCH  14  16
ATOM     16  C   UNL     1      32.776 -25.040 -14.267  0.00  0.00    +0.146 C 
BRANCH  16  17
ATOM     17  N   UNL     1      31.733 -24.240 -14.090  0.00  0.00    -0.259 NA
ATOM     18  C   UNL     1      30.510 -24.716 -13.421  0.00  0.00    +0.073 C 
ATOM     19  C   UNL     1      31.767 -22.843 -14.550  0.00  0.00    +0.073 C 
ATOM     20  C   UNL     1      29.449 -25.064 -14.455  0.00  0.00    +0.017 C 
ATOM     21  C   UNL     1      31.360 -22.756 -16.013  0.00  0.00    +0.017 C 
ATOM     22  C   UNL     1      29.112 -23.924 -15.424  0.00  0.00    +0.001 C 
ATOM     23  C   UNL     1      30.210 -23.666 -16.458  0.00  0.00    +0.001 C 
ENDBRANCH  16  17
ENDBRANCH  14  16
ENDBRANCH   7  14
TORSDOF 4
ENDMDL
MODEL 2
REMARK VINA RESULT:      -7.9      1.796      2.261
REMARK  Name = 40467053
REMARK  4 active torsions:
REMARK  status: ('A' for Active; 'I' for Inactive)
REMARK    1  A    between atoms: CA_6  and  C_23
REMARK    2  A    between atoms: CA_7  and  N_11
REMARK    3  A    between atoms: N_11  and  C_13
REMARK    4  A    between atoms: N_12  and  C_13
REMARK                            x       y       z     vdW  Elec       q    Type
REMARK                         _______ _______ _______ _____ _____    ______ ____
ROOT
ATOM      1  S   UNL     1      34.993 -24.869 -13.374  0.00  0.00    -0.119 S 
ATOM      2  O   UNL     1      36.626 -22.859 -16.909  0.00  0.00    -0.273 OA
ATOM      3  N   UNL     1      36.573 -23.154 -14.570  0.00  0.00    -0.260 N 
ATOM      4  C   UNL     1      35.265 -23.140 -13.915  0.00  0.00    +0.147 C 
ATOM      5  C   UNL     1      36.661 -25.461 -13.953  0.00  0.00    +0.068 C 
ATOM      6  CA  UNL     1      37.515 -24.193 -14.206  0.00  0.00    +0.189 C 
ATOM      7  CA  UNL     1      34.664 -22.757 -15.278  0.00  0.00    +0.162 C 
ATOM      8  C   UNL     1      36.103 -22.873 -15.818  0.00  0.00    +0.244 C 
ATOM      9  C   UNL     1      37.243 -26.407 -12.897  0.00  0.00    +0.013 C 
ATOM     10  C   UNL     1      36.443 -26.247 -15.256  0.00  0.00    +0.013 C 
ENDROOT
BRANCH   6  13
ATOM     11  O   UNL     1      39.457 -24.296 -12.878  0.00  0.00    -0.244 OA
ATOM     12  OXT UNL     1      37.763 -22.883 -12.273  0.00  0.00    -0.244 OA
ATOM     13  C   UNL     1      38.327 -23.748 -13.000  0.00  0.00    +0.383 C 
ENDBRANCH   6  13
BRANCH   7  14
ATOM     14  N   UNL     1      33.725 -23.717 -15.832  0.00  0.00    -0.275 NA
ATOM     15  H   UNL     1      34.051 -24.615 -16.070  0.00  0.00    +0.125 HD
BRANCH  14  16
ATOM     16  C   UNL     1      32.435 -23.426 -16.029  0.00  0.00    +0.146 C 
BRANCH  16  17
ATOM     17  N   UNL     1      31.443 -23.461 -15.149  0.00  0.00    -0.259 NA
ATOM     18  C   UNL     1      31.333 -24.554 -14.167  0.00  0.00    +0.073 C 
ATOM     19  C   UNL     1      30.425 -22.401 -15.117  0.00  0.00    +0.073 C 
ATOM     20  C   UNL     1      30.303 -25.574 -14.634  0.00  0.00    +0.017 C 
ATOM     21  C   UNL     1      29.314 -22.703 -16.112  0.00  0.00    +0.017 C 
ATOM     22  C   UNL     1      28.918 -24.984 -14.929  0.00  0.00    +0.001 C 
ATOM     23  C   UNL     1      28.873 -24.166 -16.221  0.00  0.00    +0.001 C 
ENDBRANCH  16  17
ENDBRANCH  14  16
ENDBRANCH   7  14
TORSDOF 4
ENDMDL
MODEL 3
REMARK VINA RESULT:      -7.3      3.727      5.240
REMARK  Name = 40467053
REMARK  4 active torsions:
REMARK  status: ('A' for Active; 'I' for Inactive)
REMARK    1  A    between atoms: CA_6  and  C_23
REMARK    2  A    between atoms: CA_7  and  N_11
REMARK    3  A    between atoms: N_11  and  C_13
REMARK    4  A    between atoms: N_12  and  C_13
REMARK                            x       y       z     vdW  Elec       q    Type
REMARK                         _______ _______ _______ _____ _____    ______ ____
ROOT
ATOM      1  S   UNL     1      35.146 -22.817 -14.628  0.00  0.00    -0.119 S 
ATOM      2  O   UNL     1      39.126 -24.306 -15.694  0.00  0.00    -0.273 OA
ATOM      3  N   UNL     1      37.695 -23.213 -14.172  0.00  0.00    -0.260 N 
ATOM      4  C   UNL     1      36.846 -22.141 -14.691  0.00  0.00    +0.147 C 
ATOM      5  C   UNL     1      35.661 -24.417 -13.826  0.00  0.00    +0.068 C 
ATOM      6  CA  UNL     1      37.100 -24.200 -13.294  0.00  0.00    +0.189 C 
ATOM      7  CA  UNL     1      37.586 -22.298 -16.030  0.00  0.00    +0.162 C 
ATOM      8  C   UNL     1      38.352 -23.446 -15.343  0.00  0.00    +0.244 C 
ATOM      9  C   UNL     1      34.640 -24.777 -12.742  0.00  0.00    +0.013 C 
ATOM     10  C   UNL     1      35.634 -25.506 -14.913  0.00  0.00    +0.013 C 
ENDROOT
BRANCH   6  13
ATOM     11  O   UNL     1      37.211 -22.454 -11.718  0.00  0.00    -0.244 OA
ATOM     12  OXT UNL     1      37.141 -24.619 -10.983  0.00  0.00    -0.244 OA
ATOM     13  C   UNL     1      37.156 -23.707 -11.857  0.00  0.00    +0.383 C 
ENDBRANCH   6  13
BRANCH   7  14
ATOM     14  N   UNL     1      36.756 -22.704 -17.151  0.00  0.00    -0.275 NA
ATOM     15  H   UNL     1      36.691 -23.661 -17.370  0.00  0.00    +0.125 HD
BRANCH  14  16
ATOM     16  C   UNL     1      36.077 -21.825 -17.895  0.00  0.00    +0.146 C 
BRANCH  16  17
ATOM     17  N   UNL     1      35.671 -21.956 -19.151  0.00  0.00    -0.259 NA
ATOM     18  C   UNL     1      36.392 -21.304 -20.258  0.00  0.00    +0.073 C 
ATOM     19  C   UNL     1      34.489 -22.766 -19.482  0.00  0.00    +0.073 C 
ATOM     20  C   UNL     1      35.673 -20.028 -20.672  0.00  0.00    +0.017 C 
ATOM     21  C   UNL     1      33.221 -21.936 -19.346  0.00  0.00    +0.017 C 
ATOM     22  C   UNL     1      34.198 -20.226 -21.045  0.00  0.00    +0.001 C 
ATOM     23  C   UNL     1      33.299 -20.486 -19.835  0.00  0.00    +0.001 C 
ENDBRANCH  16  17
ENDBRANCH  14  16
ENDBRANCH   7  14
TORSDOF 4
ENDMDL
MODEL 4
REMARK VINA RESULT:      -7.2      1.806      2.600
REMARK  Name = 40467053
REMARK  4 active torsions:
REMARK  status: ('A' for Active; 'I' for Inactive)
REMARK    1  A    between atoms: CA_6  and  C_23
REMARK    2  A    between atoms: CA_7  and  N_11
REMARK    3  A    between atoms: N_11  and  C_13
REMARK    4  A    between atoms: N_12  and  C_13
REMARK                            x       y       z     vdW  Elec       q    Type
REMARK                         _______ _______ _______ _____ _____    ______ ____
ROOT
ATOM      1  S   UNL     1      36.798 -25.235 -13.068  0.00  0.00    -0.119 S 
ATOM      2  O   UNL     1      36.699 -22.781 -16.696  0.00  0.00    -0.273 OA
ATOM      3  N   UNL     1      37.907 -23.741 -14.913  0.00  0.00    -0.260 N 
ATOM      4  C   UNL     1      37.373 -23.568 -13.563  0.00  0.00    +0.147 C 
ATOM      5  C   UNL     1      37.397 -26.058 -14.627  0.00  0.00    +0.068 C 
ATOM      6  CA  UNL     1      38.364 -25.058 -15.310  0.00  0.00    +0.189 C 
ATOM      7  CA  UNL     1      36.310 -22.642 -14.177  0.00  0.00    +0.162 C 
ATOM      8  C   UNL     1      36.961 -22.980 -15.532  0.00  0.00    +0.244 C 
ATOM      9  C   UNL     1      38.041 -27.399 -14.261  0.00  0.00    +0.013 C 
ATOM     10  C   UNL     1      36.166 -26.324 -15.509  0.00  0.00    +0.013 C 
ENDROOT
BRANCH   6  13
ATOM     11  O   UNL     1      40.135 -24.741 -13.792  0.00  0.00    -0.244 OA
ATOM     12  OXT UNL     1      40.527 -25.861 -15.748  0.00  0.00    -0.244 OA
ATOM     13  C   UNL     1      39.819 -25.237 -14.908  0.00  0.00    +0.383 C 
ENDBRANCH   6  13
BRANCH   7  14
ATOM     14  N   UNL     1      34.937 -23.095 -14.031  0.00  0.00    -0.275 NA
ATOM     15  H   UNL     1      34.690 -23.611 -13.230  0.00  0.00    +0.125 HD
BRANCH  14  16
ATOM     16  C   UNL     1      33.996 -22.834 -14.944  0.00  0.00    +0.146 C 
BRANCH  16  17
ATOM     17  N   UNL     1      33.018 -23.627 -15.363  0.00  0.00    -0.259 NA
ATOM     18  C   UNL     1      32.515 -23.552 -16.746  0.00  0.00    +0.073 C 
ATOM     19  C   UNL     1      32.410 -24.616 -14.460  0.00  0.00    +0.073 C 
ATOM     20  C   UNL     1      31.222 -22.750 -16.789  0.00  0.00    +0.017 C 
ATOM     21  C   UNL     1      31.299 -23.976 -13.643  0.00  0.00    +0.017 C 
ATOM     22  C   UNL     1      30.124 -23.269 -15.852  0.00  0.00    +0.001 C 
ATOM     23  C   UNL     1      30.400 -22.975 -14.377  0.00  0.00    +0.001 C 
ENDBRANCH  16  17
ENDBRANCH  14  16
ENDBRANCH   7  14
TORSDOF 4
ENDMDL
MODEL 5
REMARK VINA RESULT:      -7.1      1.884      2.850
REMARK  Name = 40467053
REMARK  4 active torsions:
REMARK  status: ('A' for Active; 'I' for Inactive)
REMARK    1  A    between atoms: CA_6  and  C_23
REMARK    2  A    between atoms: CA_7  and  N_11
REMARK    3  A    between atoms: N_11  and  C_13
REMARK    4  A    between atoms: N_12  and  C_13
REMARK                            x       y       z     vdW  Elec       q    Type
REMARK                         _______ _______ _______ _____ _____    ______ ____
ROOT
ATOM      1  S   UNL     1      35.731 -24.321 -15.303  0.00  0.00    -0.119 S 
ATOM      2  O   UNL     1      35.776 -23.986 -10.935  0.00  0.00    -0.273 OA
ATOM      3  N   UNL     1      36.307 -25.182 -12.897  0.00  0.00    -0.260 N 
ATOM      4  C   UNL     1      35.245 -25.371 -13.884  0.00  0.00    +0.147 C 
ATOM      5  C   UNL     1      37.346 -23.795 -14.541  0.00  0.00    +0.068 C 
ATOM      6  CA  UNL     1      37.614 -24.763 -13.363  0.00  0.00    +0.189 C 
ATOM      7  CA  UNL     1      34.283 -24.730 -12.869  0.00  0.00    +0.162 C 
ATOM      8  C   UNL     1      35.526 -24.554 -11.973  0.00  0.00    +0.244 C 
ATOM      9  C   UNL     1      38.431 -23.810 -15.623  0.00  0.00    +0.013 C 
ATOM     10  C   UNL     1      37.168 -22.352 -14.039  0.00  0.00    +0.013 C 
ENDROOT
BRANCH   6  13
ATOM     11  O   UNL     1      37.786 -26.928 -14.275  0.00  0.00    -0.244 OA
ATOM     12  OXT UNL     1      39.668 -25.897 -13.481  0.00  0.00    -0.244 OA
ATOM     13  C   UNL     1      38.436 -25.984 -13.745  0.00  0.00    +0.383 C 
ENDBRANCH   6  13
BRANCH   7  14
ATOM     14  N   UNL     1      33.664 -23.489 -13.302  0.00  0.00    -0.275 NA
ATOM     15  H   UNL     1      34.200 -22.664 -13.294  0.00  0.00    +0.125 HD
BRANCH  14  16
ATOM     16  C   UNL     1      32.393 -23.428 -13.711  0.00  0.00    +0.146 C 
BRANCH  16  17
ATOM     17  N   UNL     1      31.845 -24.005 -14.773  0.00  0.00    -0.259 NA
ATOM     18  C   UNL     1      32.113 -23.510 -16.134  0.00  0.00    +0.073 C 
ATOM     19  C   UNL     1      30.956 -25.167 -14.625  0.00  0.00    +0.073 C 
ATOM     20  C   UNL     1      30.955 -22.646 -16.614  0.00  0.00    +0.017 C 
ATOM     21  C   UNL     1      29.529 -24.714 -14.357  0.00  0.00    +0.017 C 
ATOM     22  C   UNL     1      29.587 -23.336 -16.562  0.00  0.00    +0.001 C 
ATOM     23  C   UNL     1      29.042 -23.491 -15.141  0.00  0.00    +0.001 C 
ENDBRANCH  16  17
ENDBRANCH  14  16
ENDBRANCH   7  14
TORSDOF 4
ENDMDL
MODEL 6
REMARK VINA RESULT:      -7.1      3.759      7.774
REMARK  Name = 40467053
REMARK  4 active torsions:
REMARK  status: ('A' for Active; 'I' for Inactive)
REMARK    1  A    between atoms: CA_6  and  C_23
REMARK    2  A    between atoms: CA_7  and  N_11
REMARK    3  A    between atoms: N_11  and  C_13
REMARK    4  A    between atoms: N_12  and  C_13
REMARK                            x       y       z     vdW  Elec       q    Type
REMARK                         _______ _______ _______ _____ _____    ______ ____
ROOT
ATOM      1  S   UNL     1      31.159 -24.216 -16.564  0.00  0.00    -0.119 S 
ATOM      2  O   UNL     1      30.741 -23.262 -12.308  0.00  0.00    -0.273 OA
ATOM      3  N   UNL     1      30.360 -22.716 -14.570  0.00  0.00    -0.260 N 
ATOM      4  C   UNL     1      31.501 -22.778 -15.484  0.00  0.00    +0.147 C 
ATOM      5  C   UNL     1      29.494 -24.566 -15.808  0.00  0.00    +0.068 C 
ATOM      6  CA  UNL     1      29.107 -23.308 -14.992  0.00  0.00    +0.189 C 
ATOM      7  CA  UNL     1      32.382 -23.052 -14.254  0.00  0.00    +0.162 C 
ATOM      8  C   UNL     1      31.070 -23.012 -13.445  0.00  0.00    +0.244 C 
ATOM      9  C   UNL     1      28.507 -24.914 -16.927  0.00  0.00    +0.013 C 
ATOM     10  C   UNL     1      29.653 -25.790 -14.891  0.00  0.00    +0.013 C 
ENDROOT
BRANCH   6  13
ATOM     11  O   UNL     1      27.190 -21.969 -15.269  0.00  0.00    -0.244 OA
ATOM     12  OXT UNL     1      28.845 -21.892 -16.848  0.00  0.00    -0.244 OA
ATOM     13  C   UNL     1      28.299 -22.288 -15.780  0.00  0.00    +0.383 C 
ENDBRANCH   6  13
BRANCH   7  14
ATOM     14  N   UNL     1      33.060 -24.338 -14.252  0.00  0.00    -0.275 NA
ATOM     15  H   UNL     1      32.689 -25.070 -14.796  0.00  0.00    +0.125 HD
BRANCH  14  16
ATOM     16  C   UNL     1      34.169 -24.562 -13.541  0.00  0.00    +0.146 C 
BRANCH  16  17
ATOM     17  N   UNL     1      35.431 -24.390 -13.913  0.00  0.00    -0.259 NA
ATOM     18  C   UNL     1      35.920 -24.901 -15.205  0.00  0.00    +0.073 C 
ATOM     19  C   UNL     1      36.381 -23.674 -13.050  0.00  0.00    +0.073 C 
ATOM     20  C   UNL     1      36.671 -26.209 -15.000  0.00  0.00    +0.017 C 
ATOM     21  C   UNL     1      36.998 -24.625 -12.036  0.00  0.00    +0.017 C 
ATOM     22  C   UNL     1      37.824 -26.126 -13.992  0.00  0.00    +0.001 C 
ATOM     23  C   UNL     1      37.351 -26.028 -12.541  0.00  0.00    +0.001 C 
ENDBRANCH  16  17
ENDBRANCH  14  16
ENDBRANCH   7  14
TORSDOF 4
ENDMDL
MODEL 7
REMARK VINA RESULT:      -7.0      1.815      2.543
REMARK  Name = 40467053
REMARK  4 active torsions:
REMARK  status: ('A' for Active; 'I' for Inactive)
REMARK    1  A    between atoms: CA_6  and  C_23
REMARK    2  A    between atoms: CA_7  and  N_11
REMARK    3  A    between atoms: N_11  and  C_13
REMARK    4  A    between atoms: N_12  and  C_13
REMARK                            x       y       z     vdW  Elec       q    Type
REMARK                         _______ _______ _______ _____ _____    ______ ____
ROOT
ATOM      1  S   UNL     1      36.217 -24.940 -14.976  0.00  0.00    -0.119 S 
ATOM      2  O   UNL     1      36.580 -22.936 -11.097  0.00  0.00    -0.273 OA
ATOM      3  N   UNL     1      37.260 -24.627 -12.593  0.00  0.00    -0.260 N 
ATOM      4  C   UNL     1      36.216 -25.441 -13.215  0.00  0.00    +0.147 C 
ATOM      5  C   UNL     1      37.659 -23.776 -14.789  0.00  0.00    +0.068 C 
ATOM      6  CA  UNL     1      38.324 -24.113 -13.431  0.00  0.00    +0.189 C 
ATOM      7  CA  UNL     1      35.207 -24.717 -12.308  0.00  0.00    +0.162 C 
ATOM      8  C   UNL     1      36.416 -23.905 -11.802  0.00  0.00    +0.244 C 
ATOM      9  C   UNL     1      38.586 -23.941 -15.998  0.00  0.00    +0.013 C 
ATOM     10  C   UNL     1      37.097 -22.345 -14.788  0.00  0.00    +0.013 C 
ENDROOT
BRANCH   6  13
ATOM     11  O   UNL     1      40.593 -24.669 -13.728  0.00  0.00    -0.244 OA
ATOM     12  OXT UNL     1      39.065 -26.341 -13.404  0.00  0.00    -0.244 OA
ATOM     13  C   UNL     1      39.439 -25.141 -13.531  0.00  0.00    +0.383 C 
ENDBRANCH   6  13
BRANCH   7  14
ATOM     14  N   UNL     1      34.198 -23.936 -13.004  0.00  0.00    -0.275 NA
ATOM     15  H   UNL     1      34.333 -22.966 -13.102  0.00  0.00    +0.125 HD
BRANCH  14  16
ATOM     16  C   UNL     1      33.095 -24.488 -13.518  0.00  0.00    +0.146 C 
BRANCH  16  17
ATOM     17  N   UNL     1      31.886 -23.952 -13.630  0.00  0.00    -0.259 NA
ATOM     18  C   UNL     1      30.688 -24.665 -13.154  0.00  0.00    +0.073 C 
ATOM     19  C   UNL     1      31.704 -22.619 -14.226  0.00  0.00    +0.073 C 
ATOM     20  C   UNL     1      29.971 -25.322 -14.326  0.00  0.00    +0.017 C 
ATOM     21  C   UNL     1      31.602 -22.725 -15.740  0.00  0.00    +0.017 C 
ATOM     22  C   UNL     1      29.598 -24.359 -15.460  0.00  0.00    +0.001 C 
ATOM     23  C   UNL     1      30.802 -23.910 -16.290  0.00  0.00    +0.001 C 
ENDBRANCH  16  17
ENDBRANCH  14  16
ENDBRANCH   7  14
TORSDOF 4
ENDMDL
MODEL 8
REMARK VINA RESULT:      -7.0      3.510      4.909
REMARK  Name = 40467053
REMARK  4 active torsions:
REMARK  status: ('A' for Active; 'I' for Inactive)
REMARK    1  A    between atoms: CA_6  and  C_23
REMARK    2  A    between atoms: CA_7  and  N_11
REMARK    3  A    between atoms: N_11  and  C_13
REMARK    4  A    between atoms: N_12  and  C_13
REMARK                            x       y       z     vdW  Elec       q    Type
REMARK                         _______ _______ _______ _____ _____    ______ ____
ROOT
ATOM      1  S   UNL     1      38.020 -23.997 -15.007  0.00  0.00    -0.119 S 
ATOM      2  O   UNL     1      33.751 -24.022 -14.023  0.00  0.00    -0.273 OA
ATOM      3  N   UNL     1      35.792 -25.172 -14.288  0.00  0.00    -0.260 N 
ATOM      4  C   UNL     1      36.542 -24.946 -15.523  0.00  0.00    +0.147 C 
ATOM      5  C   UNL     1      37.600 -24.058 -13.194  0.00  0.00    +0.068 C 
ATOM      6  CA  UNL     1      36.512 -25.148 -13.030  0.00  0.00    +0.189 C 
ATOM      7  CA  UNL     1      35.345 -24.116 -16.016  0.00  0.00    +0.162 C 
ATOM      8  C   UNL     1      34.721 -24.404 -14.635  0.00  0.00    +0.244 C 
ATOM      9  C   UNL     1      38.882 -24.329 -12.399  0.00  0.00    +0.013 C 
ATOM     10  C   UNL     1      37.057 -22.673 -12.801  0.00  0.00    +0.013 C 
ENDROOT
BRANCH   6  13
ATOM     11  O   UNL     1      37.408 -27.205 -13.743  0.00  0.00    -0.244 OA
ATOM     12  OXT UNL     1      37.114 -26.830 -11.505  0.00  0.00    -0.244 OA
ATOM     13  C   UNL     1      37.067 -26.531 -12.732  0.00  0.00    +0.383 C 
ENDBRANCH   6  13
BRANCH   7  14
ATOM     14  N   UNL     1      35.628 -22.715 -16.276  0.00  0.00    -0.275 NA
ATOM     15  H   UNL     1      36.270 -22.246 -15.696  0.00  0.00    +0.125 HD
BRANCH  14  16
ATOM     16  C   UNL     1      35.051 -22.041 -17.275  0.00  0.00    +0.146 C 
BRANCH  16  17
ATOM     17  N   UNL     1      35.260 -22.168 -18.579  0.00  0.00    -0.259 NA
ATOM     18  C   UNL     1      36.547 -21.787 -19.185  0.00  0.00    +0.073 C 
ATOM     19  C   UNL     1      34.214 -22.704 -19.462  0.00  0.00    +0.073 C 
ATOM     20  C   UNL     1      36.435 -20.414 -19.833  0.00  0.00    +0.017 C 
ATOM     21  C   UNL     1      33.272 -21.595 -19.903  0.00  0.00    +0.017 C 
ATOM     22  C   UNL     1      35.306 -20.292 -20.865  0.00  0.00    +0.001 C 
ATOM     23  C   UNL     1      33.914 -20.244 -20.234  0.00  0.00    +0.001 C 
ENDBRANCH  16  17
ENDBRANCH  14  16
ENDBRANCH   7  14
TORSDOF 4
ENDMDL
MODEL 9
REMARK VINA RESULT:      -6.9     16.468     18.549
REMARK  Name = 40467053
REMARK  4 active torsions:
REMARK  status: ('A' for Active; 'I' for Inactive)
REMARK    1  A    between atoms: CA_6  and  C_23
REMARK    2  A    between atoms: CA_7  and  N_11
REMARK    3  A    between atoms: N_11  and  C_13
REMARK    4  A    between atoms: N_12  and  C_13
REMARK                            x       y       z     vdW  Elec       q    Type
REMARK                         _______ _______ _______ _____ _____    ______ ____
ROOT
ATOM      1  S   UNL     1      30.799  -8.048 -23.006  0.00  0.00    -0.119 S 
ATOM      2  O   UNL     1      35.144  -7.513 -23.180  0.00  0.00    -0.273 OA
ATOM      3  N   UNL     1      32.984  -6.931 -23.923  0.00  0.00    -0.260 N 
ATOM      4  C   UNL     1      32.084  -8.017 -24.309  0.00  0.00    +0.147 C 
ATOM      5  C   UNL     1      31.477  -6.564 -22.107  0.00  0.00    +0.068 C 
ATOM      6  CA  UNL     1      32.465  -5.873 -23.079  0.00  0.00    +0.189 C 
ATOM      7  CA  UNL     1      33.270  -8.976 -24.111  0.00  0.00    +0.162 C 
ATOM      8  C   UNL     1      34.061  -7.728 -23.673  0.00  0.00    +0.244 C 
ATOM      9  C   UNL     1      30.307  -5.676 -21.668  0.00  0.00    +0.013 C 
ATOM     10  C   UNL     1      32.204  -7.079 -20.853  0.00  0.00    +0.013 C 
ENDROOT
BRANCH   6  13
ATOM     11  O   UNL     1      31.342  -5.197 -25.034  0.00  0.00    -0.244 OA
ATOM     12  OXT UNL     1      31.870  -3.632 -23.451  0.00  0.00    -0.244 OA
ATOM     13  C   UNL     1      31.828  -4.796 -23.941  0.00  0.00    +0.383 C 
ENDBRANCH   6  13
BRANCH   7  14
ATOM     14  N   UNL     1      33.089  -9.978 -23.074  0.00  0.00    -0.275 NA
ATOM     15  H   UNL     1      32.703  -9.703 -22.212  0.00  0.00    +0.125 HD
BRANCH  14  16
ATOM     16  C   UNL     1      33.426 -11.259 -23.250  0.00  0.00    +0.146 C 
BRANCH  16  17
ATOM     17  N   UNL     1      32.701 -12.340 -22.991  0.00  0.00    -0.259 NA
ATOM     18  C   UNL     1      31.713 -12.353 -21.899  0.00  0.00    +0.073 C 
ATOM     19  C   UNL     1      32.854 -13.562 -23.796  0.00  0.00    +0.073 C 
ATOM     20  C   UNL     1      32.295 -13.048 -20.675  0.00  0.00    +0.017 C 
ATOM     21  C   UNL     1      33.992 -14.414 -23.255  0.00  0.00    +0.017 C 
ATOM     22  C   UNL     1      32.810 -14.468 -20.940  0.00  0.00    +0.001 C 
ATOM     23  C   UNL     1      34.119 -14.498 -21.731  0.00  0.00    +0.001 C 
ENDBRANCH  16  17
ENDBRANCH  14  16
ENDBRANCH   7  14
TORSDOF 4
ENDMDL
