MODEL 1
REMARK VINA RESULT:     -12.8      0.000      0.000
REMARK  Name = 16659285
REMARK  3 active torsions:
REMARK  status: ('A' for Active; 'I' for Inactive)
REMARK    1  A    between atoms: C_3  and  C_14
REMARK    2  A    between atoms: C_9  and  C_30
REMARK    3  A    between atoms: C_20  and  C_24
REMARK                            x       y       z     vdW  Elec       q    Type
REMARK                         _______ _______ _______ _____ _____    ______ ____
ROOT
ATOM      1  N   UNL     1      34.317 -17.795 -21.048  0.00  0.00    -0.315 N 
ATOM      2  N   UNL     1      34.719 -19.109 -22.794  0.00  0.00    -0.315 N 
ATOM      3  C   UNL     1      34.018 -15.095 -23.584  0.00  0.00    +0.001 C 
ATOM      4  C   UNL     1      34.253 -16.975 -22.146  0.00  0.00    +0.059 C 
ATOM      5  C   UNL     1      34.509 -17.818 -23.223  0.00  0.00    +0.059 C 
ATOM      6  C   UNL     1      34.003 -15.608 -22.284  0.00  0.00    +0.016 C 
ATOM      7  C   UNL     1      34.271 -15.916 -24.686  0.00  0.00    +0.001 C 
ATOM      8  C   UNL     1      34.519 -17.285 -24.523  0.00  0.00    +0.016 C 
ATOM      9  C   UNL     1      34.597 -19.058 -21.487  0.00  0.00    +0.168 C 
ATOM     10  H   UNL     1      34.183 -17.521 -20.111  0.00  0.00    +0.149 HD
ATOM     11  H   UNL     1      34.920 -19.898 -23.347  0.00  0.00    +0.149 HD
ENDROOT
BRANCH   3  14
ATOM     12  N   UNL     1      32.437 -10.571 -22.254  0.00  0.00    -0.315 N 
ATOM     13  N   UNL     1      32.965  -9.631 -24.197  0.00  0.00    -0.315 N 
ATOM     14  C   UNL     1      33.764 -13.684 -23.791  0.00  0.00    +0.001 C 
ATOM     15  C   UNL     1      32.970 -11.580 -23.016  0.00  0.00    +0.059 C 
ATOM     16  C   UNL     1      33.291 -10.968 -24.225  0.00  0.00    +0.059 C 
ATOM     17  C   UNL     1      33.190 -12.934 -22.760  0.00  0.00    +0.016 C 
ATOM     18  C   UNL     1      34.097 -13.099 -25.015  0.00  0.00    +0.001 C 
ATOM     19  C   UNL     1      33.866 -11.737 -25.249  0.00  0.00    +0.016 C 
ATOM     20  C   UNL     1      32.457  -9.428 -23.003  0.00  0.00    +0.168 C 
ATOM     21  H   UNL     1      32.102 -10.656 -21.332  0.00  0.00    +0.149 HD
ATOM     22  H   UNL     1      33.086  -8.971 -24.917  0.00  0.00    +0.149 HD
BRANCH  20  24
ATOM     23  N   UNL     1      31.018  -5.734 -21.505  0.00  0.00    -0.242 NA
ATOM     24  C   UNL     1      31.965  -8.172 -22.492  0.00  0.00    +0.017 C 
ATOM     25  C   UNL     1      32.324  -7.748 -21.218  0.00  0.00    +0.020 C 
ATOM     26  C   UNL     1      31.133  -7.377 -23.274  0.00  0.00    +0.020 C 
ATOM     27  C   UNL     1      31.828  -6.533 -20.774  0.00  0.00    +0.099 C 
ATOM     28  C   UNL     1      30.691  -6.178 -22.739  0.00  0.00    +0.099 C 
ENDBRANCH  20  24
ENDBRANCH   3  14
BRANCH   9  30
ATOM     29  N   UNL     1      34.989 -22.330 -18.823  0.00  0.00    -0.242 NA
ATOM     30  C   UNL     1      34.731 -20.171 -20.578  0.00  0.00    +0.017 C 
ATOM     31  C   UNL     1      33.599 -20.816 -20.094  0.00  0.00    +0.020 C 
ATOM     32  C   UNL     1      35.993 -20.604 -20.185  0.00  0.00    +0.020 C 
ATOM     33  C   UNL     1      33.780 -21.881 -19.227  0.00  0.00    +0.099 C 
ATOM     34  C   UNL     1      36.067 -21.679 -19.314  0.00  0.00    +0.099 C 
ENDBRANCH   9  30
TORSDOF 3
ENDMDL
MODEL 2
REMARK VINA RESULT:     -12.7      0.106     10.755
REMARK  Name = 16659285
REMARK  3 active torsions:
REMARK  status: ('A' for Active; 'I' for Inactive)
REMARK    1  A    between atoms: C_3  and  C_14
REMARK    2  A    between atoms: C_9  and  C_30
REMARK    3  A    between atoms: C_20  and  C_24
REMARK                            x       y       z     vdW  Elec       q    Type
REMARK                         _______ _______ _______ _____ _____    ______ ____
ROOT
ATOM      1  N   UNL     1      32.510 -10.605 -22.321  0.00  0.00    -0.315 N 
ATOM      2  N   UNL     1      32.952  -9.701 -24.302  0.00  0.00    -0.315 N 
ATOM      3  C   UNL     1      33.770 -13.746 -23.858  0.00  0.00    +0.001 C 
ATOM      4  C   UNL     1      33.009 -11.628 -23.087  0.00  0.00    +0.059 C 
ATOM      5  C   UNL     1      33.277 -11.037 -24.319  0.00  0.00    +0.059 C 
ATOM      6  C   UNL     1      33.242 -12.977 -22.817  0.00  0.00    +0.016 C 
ATOM      7  C   UNL     1      34.049 -13.182 -25.106  0.00  0.00    +0.001 C 
ATOM      8  C   UNL     1      33.808 -11.825 -25.355  0.00  0.00    +0.016 C 
ATOM      9  C   UNL     1      32.496  -9.476 -23.090  0.00  0.00    +0.168 C 
ATOM     10  H   UNL     1      32.216 -10.674 -21.384  0.00  0.00    +0.149 HD
ATOM     11  H   UNL     1      33.041  -9.053 -25.038  0.00  0.00    +0.149 HD
ENDROOT
BRANCH   3  14
ATOM     12  N   UNL     1      34.386 -17.818 -21.071  0.00  0.00    -0.315 N 
ATOM     13  N   UNL     1      34.765 -19.153 -22.807  0.00  0.00    -0.315 N 
ATOM     14  C   UNL     1      34.033 -15.152 -23.637  0.00  0.00    +0.001 C 
ATOM     15  C   UNL     1      34.301 -17.012 -22.179  0.00  0.00    +0.059 C 
ATOM     16  C   UNL     1      34.542 -17.869 -23.249  0.00  0.00    +0.059 C 
ATOM     17  C   UNL     1      34.043 -15.649 -22.330  0.00  0.00    +0.016 C 
ATOM     18  C   UNL     1      34.271 -15.987 -24.732  0.00  0.00    +0.001 C 
ATOM     19  C   UNL     1      34.528 -17.352 -24.555  0.00  0.00    +0.016 C 
ATOM     20  C   UNL     1      34.665 -19.086 -21.499  0.00  0.00    +0.168 C 
ATOM     21  H   UNL     1      34.267 -17.533 -20.137  0.00  0.00    +0.149 HD
ATOM     22  H   UNL     1      34.959 -19.948 -23.353  0.00  0.00    +0.149 HD
BRANCH  20  24
ATOM     23  N   UNL     1      35.116 -22.312 -18.788  0.00  0.00    -0.242 NA
ATOM     24  C   UNL     1      34.818 -20.186 -20.578  0.00  0.00    +0.017 C 
ATOM     25  C   UNL     1      36.087 -20.598 -20.189  0.00  0.00    +0.020 C 
ATOM     26  C   UNL     1      33.697 -20.835 -20.073  0.00  0.00    +0.020 C 
ATOM     27  C   UNL     1      36.181 -21.656 -19.299  0.00  0.00    +0.099 C 
ATOM     28  C   UNL     1      33.898 -21.883 -19.189  0.00  0.00    +0.099 C 
ENDBRANCH  20  24
ENDBRANCH   3  14
BRANCH   9  30
ATOM     29  N   UNL     1      31.123  -5.755 -21.596  0.00  0.00    -0.242 NA
ATOM     30  C   UNL     1      32.027  -8.210 -22.581  0.00  0.00    +0.017 C 
ATOM     31  C   UNL     1      32.396  -7.790 -21.309  0.00  0.00    +0.020 C 
ATOM     32  C   UNL     1      31.206  -7.404 -23.362  0.00  0.00    +0.020 C 
ATOM     33  C   UNL     1      31.923  -6.565 -20.867  0.00  0.00    +0.099 C 
ATOM     34  C   UNL     1      30.785  -6.197 -22.828  0.00  0.00    +0.099 C 
ENDBRANCH   9  30
TORSDOF 3
ENDMDL
MODEL 3
REMARK VINA RESULT:     -12.6      3.975      8.150
REMARK  Name = 16659285
REMARK  3 active torsions:
REMARK  status: ('A' for Active; 'I' for Inactive)
REMARK    1  A    between atoms: C_3  and  C_14
REMARK    2  A    between atoms: C_9  and  C_30
REMARK    3  A    between atoms: C_20  and  C_24
REMARK                            x       y       z     vdW  Elec       q    Type
REMARK                         _______ _______ _______ _____ _____    ______ ____
ROOT
ATOM      1  N   UNL     1      36.475 -22.994 -16.117  0.00  0.00    -0.315 N 
ATOM      2  N   UNL     1      34.546 -24.096 -16.142  0.00  0.00    -0.315 N 
ATOM      3  C   UNL     1      35.127 -21.260 -19.115  0.00  0.00    +0.001 C 
ATOM      4  C   UNL     1      35.782 -22.495 -17.190  0.00  0.00    +0.059 C 
ATOM      5  C   UNL     1      34.581 -23.199 -17.184  0.00  0.00    +0.059 C 
ATOM      6  C   UNL     1      36.093 -21.518 -18.137  0.00  0.00    +0.016 C 
ATOM      7  C   UNL     1      33.913 -21.950 -19.136  0.00  0.00    +0.001 C 
ATOM      8  C   UNL     1      33.622 -22.926 -18.175  0.00  0.00    +0.016 C 
ATOM      9  C   UNL     1      35.695 -23.946 -15.524  0.00  0.00    +0.168 C 
ATOM     10  H   UNL     1      37.373 -22.714 -15.827  0.00  0.00    +0.149 HD
ATOM     11  H   UNL     1      33.817 -24.716 -15.910  0.00  0.00    +0.149 HD
ENDROOT
BRANCH   3  14
ATOM     12  N   UNL     1      33.876 -17.664 -22.315  0.00  0.00    -0.315 N 
ATOM     13  N   UNL     1      35.958 -17.335 -23.019  0.00  0.00    -0.315 N 
ATOM     14  C   UNL     1      35.393 -20.256 -20.125  0.00  0.00    +0.001 C 
ATOM     15  C   UNL     1      34.647 -18.553 -21.609  0.00  0.00    +0.059 C 
ATOM     16  C   UNL     1      35.942 -18.328 -22.067  0.00  0.00    +0.059 C 
ATOM     17  C   UNL     1      34.331 -19.507 -20.640  0.00  0.00    +0.016 C 
ATOM     18  C   UNL     1      36.704 -20.053 -20.564  0.00  0.00    +0.001 C 
ATOM     19  C   UNL     1      36.996 -19.090 -21.538  0.00  0.00    +0.016 C 
ATOM     20  C   UNL     1      34.705 -16.960 -23.142  0.00  0.00    +0.168 C 
ATOM     21  H   UNL     1      32.901 -17.554 -22.238  0.00  0.00    +0.149 HD
ATOM     22  H   UNL     1      36.739 -16.982 -23.503  0.00  0.00    +0.149 HD
BRANCH  20  24
ATOM     23  N   UNL     1      33.241 -13.948 -25.739  0.00  0.00    -0.242 NA
ATOM     24  C   UNL     1      34.209 -15.934 -24.027  0.00  0.00    +0.017 C 
ATOM     25  C   UNL     1      33.894 -16.241 -25.345  0.00  0.00    +0.020 C 
ATOM     26  C   UNL     1      34.041 -14.633 -23.563  0.00  0.00    +0.020 C 
ATOM     27  C   UNL     1      33.417 -15.222 -26.154  0.00  0.00    +0.099 C 
ATOM     28  C   UNL     1      33.558 -13.686 -24.452  0.00  0.00    +0.099 C 
ENDBRANCH  20  24
ENDBRANCH   3  14
BRANCH   9  30
ATOM     29  N   UNL     1      36.972 -26.080 -12.092  0.00  0.00    -0.242 NA
ATOM     30  C   UNL     1      36.132 -24.672 -14.355  0.00  0.00    +0.017 C 
ATOM     31  C   UNL     1      35.869 -24.172 -13.085  0.00  0.00    +0.020 C 
ATOM     32  C   UNL     1      36.814 -25.876 -14.495  0.00  0.00    +0.020 C 
ATOM     33  C   UNL     1      36.306 -24.908 -11.995  0.00  0.00    +0.099 C 
ATOM     34  C   UNL     1      37.209 -26.535 -13.342  0.00  0.00    +0.099 C 
ENDBRANCH   9  30
TORSDOF 3
ENDMDL
MODEL 4
REMARK VINA RESULT:     -12.5      3.986     12.704
REMARK  Name = 16659285
REMARK  3 active torsions:
REMARK  status: ('A' for Active; 'I' for Inactive)
REMARK    1  A    between atoms: C_3  and  C_14
REMARK    2  A    between atoms: C_9  and  C_30
REMARK    3  A    between atoms: C_20  and  C_24
REMARK                            x       y       z     vdW  Elec       q    Type
REMARK                         _______ _______ _______ _____ _____    ______ ____
ROOT
ATOM      1  N   UNL     1      33.836 -17.681 -22.336  0.00  0.00    -0.315 N 
ATOM      2  N   UNL     1      35.920 -17.328 -23.020  0.00  0.00    -0.315 N 
ATOM      3  C   UNL     1      35.361 -20.252 -20.128  0.00  0.00    +0.001 C 
ATOM      4  C   UNL     1      34.609 -18.560 -21.622  0.00  0.00    +0.059 C 
ATOM      5  C   UNL     1      35.906 -18.321 -22.068  0.00  0.00    +0.059 C 
ATOM      6  C   UNL     1      34.295 -19.516 -20.654  0.00  0.00    +0.016 C 
ATOM      7  C   UNL     1      36.674 -20.035 -20.555  0.00  0.00    +0.001 C 
ATOM      8  C   UNL     1      36.965 -19.070 -21.527  0.00  0.00    +0.016 C 
ATOM      9  C   UNL     1      34.664 -16.968 -23.156  0.00  0.00    +0.168 C 
ATOM     10  H   UNL     1      32.858 -17.582 -22.268  0.00  0.00    +0.149 HD
ATOM     11  H   UNL     1      36.702 -16.967 -23.497  0.00  0.00    +0.149 HD
ENDROOT
BRANCH   3  14
ATOM     12  N   UNL     1      36.442 -22.983 -16.115  0.00  0.00    -0.315 N 
ATOM     13  N   UNL     1      34.521 -24.099 -16.149  0.00  0.00    -0.315 N 
ATOM     14  C   UNL     1      35.098 -21.258 -19.120  0.00  0.00    +0.001 C 
ATOM     15  C   UNL     1      35.751 -22.489 -17.192  0.00  0.00    +0.059 C 
ATOM     16  C   UNL     1      34.556 -23.202 -17.192  0.00  0.00    +0.059 C 
ATOM     17  C   UNL     1      36.060 -21.510 -18.137  0.00  0.00    +0.016 C 
ATOM     18  C   UNL     1      33.889 -21.958 -19.147  0.00  0.00    +0.001 C 
ATOM     19  C   UNL     1      33.601 -22.936 -18.187  0.00  0.00    +0.016 C 
ATOM     20  C   UNL     1      35.666 -23.941 -15.525  0.00  0.00    +0.168 C 
ATOM     21  H   UNL     1      37.337 -22.697 -15.820  0.00  0.00    +0.149 HD
ATOM     22  H   UNL     1      33.796 -24.724 -15.921  0.00  0.00    +0.149 HD
BRANCH  20  24
ATOM     23  N   UNL     1      36.941 -26.065 -12.087  0.00  0.00    -0.242 NA
ATOM     24  C   UNL     1      36.102 -24.663 -14.355  0.00  0.00    +0.017 C 
ATOM     25  C   UNL     1      35.838 -24.161 -13.086  0.00  0.00    +0.020 C 
ATOM     26  C   UNL     1      36.785 -25.867 -14.491  0.00  0.00    +0.020 C 
ATOM     27  C   UNL     1      36.274 -24.893 -11.994  0.00  0.00    +0.099 C 
ATOM     28  C   UNL     1      37.179 -26.523 -13.336  0.00  0.00    +0.099 C 
ENDBRANCH  20  24
ENDBRANCH   3  14
BRANCH   9  30
ATOM     29  N   UNL     1      33.190 -13.976 -25.770  0.00  0.00    -0.242 NA
ATOM     30  C   UNL     1      34.164 -15.949 -24.047  0.00  0.00    +0.017 C 
ATOM     31  C   UNL     1      33.891 -16.255 -25.374  0.00  0.00    +0.020 C 
ATOM     32  C   UNL     1      33.951 -14.656 -23.579  0.00  0.00    +0.020 C 
ATOM     33  C   UNL     1      33.410 -15.242 -26.189  0.00  0.00    +0.099 C 
ATOM     34  C   UNL     1      33.467 -13.715 -24.473  0.00  0.00    +0.099 C 
ENDBRANCH   9  30
TORSDOF 3
ENDMDL
MODEL 5
REMARK VINA RESULT:     -12.5      3.007      6.514
REMARK  Name = 16659285
REMARK  3 active torsions:
REMARK  status: ('A' for Active; 'I' for Inactive)
REMARK    1  A    between atoms: C_3  and  C_14
REMARK    2  A    between atoms: C_9  and  C_30
REMARK    3  A    between atoms: C_20  and  C_24
REMARK                            x       y       z     vdW  Elec       q    Type
REMARK                         _______ _______ _______ _____ _____    ______ ____
ROOT
ATOM      1  N   UNL     1      32.298 -22.054 -18.150  0.00  0.00    -0.315 N 
ATOM      2  N   UNL     1      34.193 -22.972 -17.441  0.00  0.00    -0.315 N 
ATOM      3  C   UNL     1      34.471 -20.286 -20.593  0.00  0.00    +0.001 C 
ATOM      4  C   UNL     1      33.282 -21.524 -18.945  0.00  0.00    +0.059 C 
ATOM      5  C   UNL     1      34.455 -22.112 -18.482  0.00  0.00    +0.059 C 
ATOM      6  C   UNL     1      33.247 -20.607 -19.997  0.00  0.00    +0.016 C 
ATOM      7  C   UNL     1      35.665 -20.860 -20.150  0.00  0.00    +0.001 C 
ATOM      8  C   UNL     1      35.676 -21.778 -19.093  0.00  0.00    +0.016 C 
ATOM      9  C   UNL     1      32.892 -22.913 -17.268  0.00  0.00    +0.168 C 
ATOM     10  H   UNL     1      31.336 -21.852 -18.206  0.00  0.00    +0.149 HD
ATOM     11  H   UNL     1      34.840 -23.514 -16.934  0.00  0.00    +0.149 HD
ENDROOT
BRANCH   3  14
ATOM     12  N   UNL     1      33.875 -15.817 -22.689  0.00  0.00    -0.315 N 
ATOM     13  N   UNL     1      34.515 -16.491 -24.707  0.00  0.00    -0.315 N 
ATOM     14  C   UNL     1      34.498 -19.341 -21.690  0.00  0.00    +0.001 C 
ATOM     15  C   UNL     1      34.168 -17.150 -22.554  0.00  0.00    +0.059 C 
ATOM     16  C   UNL     1      34.565 -17.548 -23.827  0.00  0.00    +0.059 C 
ATOM     17  C   UNL     1      34.121 -18.015 -21.459  0.00  0.00    +0.016 C 
ATOM     18  C   UNL     1      34.901 -19.771 -22.957  0.00  0.00    +0.001 C 
ATOM     19  C   UNL     1      34.940 -18.885 -24.040  0.00  0.00    +0.016 C 
ATOM     20  C   UNL     1      34.098 -15.471 -23.993  0.00  0.00    +0.168 C 
ATOM     21  H   UNL     1      33.560 -15.217 -21.975  0.00  0.00    +0.149 HD
ATOM     22  H   UNL     1      34.742 -16.499 -25.665  0.00  0.00    +0.149 HD
BRANCH  20  24
ATOM     23  N   UNL     1      33.481 -11.524 -25.407  0.00  0.00    -0.242 NA
ATOM     24  C   UNL     1      33.885 -14.127 -24.474  0.00  0.00    +0.017 C 
ATOM     25  C   UNL     1      33.957 -13.053 -23.596  0.00  0.00    +0.020 C 
ATOM     26  C   UNL     1      33.611 -13.903 -25.819  0.00  0.00    +0.020 C 
ATOM     27  C   UNL     1      33.749 -11.782 -24.108  0.00  0.00    +0.099 C 
ATOM     28  C   UNL     1      33.419 -12.594 -26.231  0.00  0.00    +0.099 C 
ENDBRANCH  20  24
ENDBRANCH   3  14
BRANCH   9  30
ATOM     29  N   UNL     1      30.656 -25.056 -14.376  0.00  0.00    -0.242 NA
ATOM     30  C   UNL     1      32.131 -23.645 -16.285  0.00  0.00    +0.017 C 
ATOM     31  C   UNL     1      32.734 -24.060 -15.104  0.00  0.00    +0.020 C 
ATOM     32  C   UNL     1      30.790 -23.934 -16.513  0.00  0.00    +0.020 C 
ATOM     33  C   UNL     1      31.960 -24.756 -14.189  0.00  0.00    +0.099 C 
ATOM     34  C   UNL     1      30.103 -24.636 -15.536  0.00  0.00    +0.099 C 
ENDBRANCH   9  30
TORSDOF 3
ENDMDL
MODEL 6
REMARK VINA RESULT:     -12.5      3.095     11.575
REMARK  Name = 16659285
REMARK  3 active torsions:
REMARK  status: ('A' for Active; 'I' for Inactive)
REMARK    1  A    between atoms: C_3  and  C_14
REMARK    2  A    between atoms: C_9  and  C_30
REMARK    3  A    between atoms: C_20  and  C_24
REMARK                            x       y       z     vdW  Elec       q    Type
REMARK                         _______ _______ _______ _____ _____    ______ ____
ROOT
ATOM      1  N   UNL     1      33.891 -15.830 -22.892  0.00  0.00    -0.315 N 
ATOM      2  N   UNL     1      34.476 -16.549 -24.911  0.00  0.00    -0.315 N 
ATOM      3  C   UNL     1      34.504 -19.341 -21.841  0.00  0.00    +0.001 C 
ATOM      4  C   UNL     1      34.175 -17.163 -22.738  0.00  0.00    +0.059 C 
ATOM      5  C   UNL     1      34.537 -17.589 -24.013  0.00  0.00    +0.059 C 
ATOM      6  C   UNL     1      34.146 -18.007 -21.626  0.00  0.00    +0.016 C 
ATOM      7  C   UNL     1      34.872 -19.799 -23.108  0.00  0.00    +0.001 C 
ATOM      8  C   UNL     1      34.894 -18.934 -24.209  0.00  0.00    +0.016 C 
ATOM      9  C   UNL     1      34.086 -15.511 -24.206  0.00  0.00    +0.168 C 
ATOM     10  H   UNL     1      33.600 -15.213 -22.181  0.00  0.00    +0.149 HD
ATOM     11  H   UNL     1      34.679 -16.577 -25.874  0.00  0.00    +0.149 HD
ENDROOT
BRANCH   3  14
ATOM     12  N   UNL     1      32.356 -22.004 -18.231  0.00  0.00    -0.315 N 
ATOM     13  N   UNL     1      34.265 -22.892 -17.520  0.00  0.00    -0.315 N 
ATOM     14  C   UNL     1      34.494 -20.265 -20.725  0.00  0.00    +0.001 C 
ATOM     15  C   UNL     1      33.329 -21.481 -19.045  0.00  0.00    +0.059 C 
ATOM     16  C   UNL     1      34.512 -22.050 -18.580  0.00  0.00    +0.059 C 
ATOM     17  C   UNL     1      33.278 -20.585 -20.114  0.00  0.00    +0.016 C 
ATOM     18  C   UNL     1      35.697 -20.819 -20.281  0.00  0.00    +0.001 C 
ATOM     19  C   UNL     1      35.724 -21.717 -19.207  0.00  0.00    +0.016 C 
ATOM     20  C   UNL     1      32.965 -22.841 -17.338  0.00  0.00    +0.168 C 
ATOM     21  H   UNL     1      31.392 -21.812 -18.283  0.00  0.00    +0.149 HD
ATOM     22  H   UNL     1      34.921 -23.418 -17.008  0.00  0.00    +0.149 HD
BRANCH  20  24
ATOM     23  N   UNL     1      30.774 -24.960 -14.394  0.00  0.00    -0.242 NA
ATOM     24  C   UNL     1      32.219 -23.560 -16.335  0.00  0.00    +0.017 C 
ATOM     25  C   UNL     1      30.860 -23.794 -16.509  0.00  0.00    +0.020 C 
ATOM     26  C   UNL     1      32.857 -24.027 -15.190  0.00  0.00    +0.020 C 
ATOM     27  C   UNL     1      30.189 -24.492 -15.519  0.00  0.00    +0.099 C 
ATOM     28  C   UNL     1      32.097 -24.715 -14.259  0.00  0.00    +0.099 C 
ENDBRANCH  20  24
ENDBRANCH   3  14
BRANCH   9  30
ATOM     29  N   UNL     1      33.474 -11.585 -25.681  0.00  0.00    -0.242 NA
ATOM     30  C   UNL     1      33.875 -14.175 -24.708  0.00  0.00    +0.017 C 
ATOM     31  C   UNL     1      33.962 -13.086 -23.850  0.00  0.00    +0.020 C 
ATOM     32  C   UNL     1      33.587 -13.971 -26.054  0.00  0.00    +0.020 C 
ATOM     33  C   UNL     1      33.755 -11.822 -24.380  0.00  0.00    +0.099 C 
ATOM     34  C   UNL     1      33.397 -12.669 -26.486  0.00  0.00    +0.099 C 
ENDBRANCH   9  30
TORSDOF 3
ENDMDL
MODEL 7
REMARK VINA RESULT:     -12.4      1.462      2.255
REMARK  Name = 16659285
REMARK  3 active torsions:
REMARK  status: ('A' for Active; 'I' for Inactive)
REMARK    1  A    between atoms: C_3  and  C_14
REMARK    2  A    between atoms: C_9  and  C_30
REMARK    3  A    between atoms: C_20  and  C_24
REMARK                            x       y       z     vdW  Elec       q    Type
REMARK                         _______ _______ _______ _____ _____    ______ ____
ROOT
ATOM      1  N   UNL     1      33.741 -17.589 -20.705  0.00  0.00    -0.315 N 
ATOM      2  N   UNL     1      35.006 -18.213 -22.422  0.00  0.00    -0.315 N 
ATOM      3  C   UNL     1      33.479 -14.355 -22.517  0.00  0.00    +0.001 C 
ATOM      4  C   UNL     1      33.786 -16.502 -21.541  0.00  0.00    +0.059 C 
ATOM      5  C   UNL     1      34.582 -16.917 -22.605  0.00  0.00    +0.059 C 
ATOM      6  C   UNL     1      33.216 -15.231 -21.459  0.00  0.00    +0.016 C 
ATOM      7  C   UNL     1      34.274 -14.742 -23.599  0.00  0.00    +0.001 C 
ATOM      8  C   UNL     1      34.835 -16.024 -23.659  0.00  0.00    +0.016 C 
ATOM      9  C   UNL     1      34.484 -18.584 -21.275  0.00  0.00    +0.168 C 
ATOM     10  H   UNL     1      33.258 -17.642 -19.848  0.00  0.00    +0.149 HD
ATOM     11  H   UNL     1      35.578 -18.746 -23.020  0.00  0.00    +0.149 HD
ENDROOT
BRANCH   3  14
ATOM     12  N   UNL     1      33.035  -9.632 -24.009  0.00  0.00    -0.315 N 
ATOM     13  N   UNL     1      31.419  -9.150 -22.561  0.00  0.00    -0.315 N 
ATOM     14  C   UNL     1      32.914 -13.022 -22.490  0.00  0.00    +0.001 C 
ATOM     15  C   UNL     1      32.814 -10.790 -23.308  0.00  0.00    +0.059 C 
ATOM     16  C   UNL     1      31.802 -10.463 -22.410  0.00  0.00    +0.059 C 
ATOM     17  C   UNL     1      33.396 -12.057 -23.379  0.00  0.00    +0.016 C 
ATOM     18  C   UNL     1      31.899 -12.724 -21.577  0.00  0.00    +0.001 C 
ATOM     19  C   UNL     1      31.330 -11.446 -21.524  0.00  0.00    +0.016 C 
ATOM     20  C   UNL     1      32.178  -8.683 -23.526  0.00  0.00    +0.168 C 
ATOM     21  H   UNL     1      33.693  -9.508 -24.731  0.00  0.00    +0.149 HD
ATOM     22  H   UNL     1      30.728  -8.666 -22.054  0.00  0.00    +0.149 HD
BRANCH  20  24
ATOM     23  N   UNL     1      32.094  -4.741 -25.081  0.00  0.00    -0.242 NA
ATOM     24  C   UNL     1      32.150  -7.340 -24.053  0.00  0.00    +0.017 C 
ATOM     25  C   UNL     1      33.280  -6.804 -24.658  0.00  0.00    +0.020 C 
ATOM     26  C   UNL     1      30.990  -6.577 -23.961  0.00  0.00    +0.020 C 
ATOM     27  C   UNL     1      33.202  -5.512 -25.152  0.00  0.00    +0.099 C 
ATOM     28  C   UNL     1      31.014  -5.295 -24.486  0.00  0.00    +0.099 C 
ENDBRANCH  20  24
ENDBRANCH   3  14
BRANCH   9  30
ATOM     29  N   UNL     1      34.950 -22.369 -19.425  0.00  0.00    -0.242 NA
ATOM     30  C   UNL     1      34.643 -19.874 -20.647  0.00  0.00    +0.017 C 
ATOM     31  C   UNL     1      35.912 -20.404 -20.452  0.00  0.00    +0.020 C 
ATOM     32  C   UNL     1      33.525 -20.590 -20.230  0.00  0.00    +0.020 C 
ATOM     33  C   UNL     1      36.012 -21.644 -19.842  0.00  0.00    +0.099 C 
ATOM     34  C   UNL     1      33.732 -21.821 -19.630  0.00  0.00    +0.099 C 
ENDBRANCH   9  30
TORSDOF 3
ENDMDL
MODEL 8
REMARK VINA RESULT:     -12.4      1.477     11.212
REMARK  Name = 16659285
REMARK  3 active torsions:
REMARK  status: ('A' for Active; 'I' for Inactive)
REMARK    1  A    between atoms: C_3  and  C_14
REMARK    2  A    between atoms: C_9  and  C_30
REMARK    3  A    between atoms: C_20  and  C_24
REMARK                            x       y       z     vdW  Elec       q    Type
REMARK                         _______ _______ _______ _____ _____    ______ ____
ROOT
ATOM      1  N   UNL     1      33.034  -9.617 -24.017  0.00  0.00    -0.315 N 
ATOM      2  N   UNL     1      31.389  -9.141 -22.602  0.00  0.00    -0.315 N 
ATOM      3  C   UNL     1      32.892 -13.009 -22.505  0.00  0.00    +0.001 C 
ATOM      4  C   UNL     1      32.802 -10.777 -23.322  0.00  0.00    +0.059 C 
ATOM      5  C   UNL     1      31.771 -10.453 -22.445  0.00  0.00    +0.059 C 
ATOM      6  C   UNL     1      33.389 -12.042 -23.383  0.00  0.00    +0.016 C 
ATOM      7  C   UNL     1      31.858 -12.715 -21.612  0.00  0.00    +0.001 C 
ATOM      8  C   UNL     1      31.283 -11.438 -21.569  0.00  0.00    +0.016 C 
ATOM      9  C   UNL     1      32.165  -8.671 -23.551  0.00  0.00    +0.168 C 
ATOM     10  H   UNL     1      33.706  -9.490 -24.725  0.00  0.00    +0.149 HD
ATOM     11  H   UNL     1      30.686  -8.659 -22.109  0.00  0.00    +0.149 HD
ENDROOT
BRANCH   3  14
ATOM     12  N   UNL     1      33.675 -17.584 -20.720  0.00  0.00    -0.315 N 
ATOM     13  N   UNL     1      34.993 -18.196 -22.401  0.00  0.00    -0.315 N 
ATOM     14  C   UNL     1      33.460 -14.341 -22.522  0.00  0.00    +0.001 C 
ATOM     15  C   UNL     1      33.742 -16.493 -21.549  0.00  0.00    +0.059 C 
ATOM     16  C   UNL     1      34.571 -16.900 -22.590  0.00  0.00    +0.059 C 
ATOM     17  C   UNL     1      33.167 -15.223 -21.478  0.00  0.00    +0.016 C 
ATOM     18  C   UNL     1      34.289 -14.720 -23.581  0.00  0.00    +0.001 C 
ATOM     19  C   UNL     1      34.854 -16.000 -23.631  0.00  0.00    +0.016 C 
ATOM     20  C   UNL     1      34.437 -18.574 -21.272  0.00  0.00    +0.168 C 
ATOM     21  H   UNL     1      33.167 -17.642 -19.879  0.00  0.00    +0.149 HD
ATOM     22  H   UNL     1      35.583 -18.725 -22.985  0.00  0.00    +0.149 HD
BRANCH  20  24
ATOM     23  N   UNL     1      34.857 -22.368 -19.430  0.00  0.00    -0.242 NA
ATOM     24  C   UNL     1      34.580 -19.867 -20.647  0.00  0.00    +0.017 C 
ATOM     25  C   UNL     1      35.841 -20.428 -20.484  0.00  0.00    +0.020 C 
ATOM     26  C   UNL     1      33.456 -20.555 -20.202  0.00  0.00    +0.020 C 
ATOM     27  C   UNL     1      35.925 -21.669 -19.874  0.00  0.00    +0.099 C 
ATOM     28  C   UNL     1      33.647 -21.791 -19.605  0.00  0.00    +0.099 C 
ENDBRANCH  20  24
ENDBRANCH   3  14
BRANCH   9  30
ATOM     29  N   UNL     1      32.103  -4.727 -25.102  0.00  0.00    -0.242 NA
ATOM     30  C   UNL     1      32.145  -7.327 -24.077  0.00  0.00    +0.017 C 
ATOM     31  C   UNL     1      33.268  -6.809 -24.711  0.00  0.00    +0.020 C 
ATOM     32  C   UNL     1      31.000  -6.547 -23.956  0.00  0.00    +0.020 C 
ATOM     33  C   UNL     1      33.197  -5.515 -25.202  0.00  0.00    +0.099 C 
ATOM     34  C   UNL     1      31.030  -5.265 -24.480  0.00  0.00    +0.099 C 
ENDBRANCH   9  30
TORSDOF 3
ENDMDL
MODEL 9
REMARK VINA RESULT:     -12.4      1.464      2.240
REMARK  Name = 16659285
REMARK  3 active torsions:
REMARK  status: ('A' for Active; 'I' for Inactive)
REMARK    1  A    between atoms: C_3  and  C_14
REMARK    2  A    between atoms: C_9  and  C_30
REMARK    3  A    between atoms: C_20  and  C_24
REMARK                            x       y       z     vdW  Elec       q    Type
REMARK                         _______ _______ _______ _____ _____    ______ ____
ROOT
ATOM      1  N   UNL     1      34.653 -18.796 -20.629  0.00  0.00    -0.315 N 
ATOM      2  N   UNL     1      35.062 -20.435 -22.073  0.00  0.00    -0.315 N 
ATOM      3  C   UNL     1      34.310 -16.676 -23.663  0.00  0.00    +0.001 C 
ATOM      4  C   UNL     1      34.574 -18.219 -21.871  0.00  0.00    +0.059 C 
ATOM      5  C   UNL     1      34.835 -19.262 -22.755  0.00  0.00    +0.059 C 
ATOM      6  C   UNL     1      34.308 -16.912 -22.285  0.00  0.00    +0.016 C 
ATOM      7  C   UNL     1      34.568 -17.703 -24.574  0.00  0.00    +0.001 C 
ATOM      8  C   UNL     1      34.833 -19.006 -24.137  0.00  0.00    +0.016 C 
ATOM      9  C   UNL     1      34.946 -20.119 -20.803  0.00  0.00    +0.168 C 
ATOM     10  H   UNL     1      34.520 -18.338 -19.768  0.00  0.00    +0.149 HD
ATOM     11  H   UNL     1      35.269 -21.319 -22.453  0.00  0.00    +0.149 HD
ENDROOT
BRANCH   3  14
ATOM     12  N   UNL     1      33.996 -11.728 -23.280  0.00  0.00    -0.315 N 
ATOM     13  N   UNL     1      33.315 -11.441 -25.376  0.00  0.00    -0.315 N 
ATOM     14  C   UNL     1      34.039 -15.340 -24.152  0.00  0.00    +0.001 C 
ATOM     15  C   UNL     1      33.937 -12.987 -23.822  0.00  0.00    +0.059 C 
ATOM     16  C   UNL     1      33.509 -12.780 -25.130  0.00  0.00    +0.059 C 
ATOM     17  C   UNL     1      34.213 -14.249 -23.295  0.00  0.00    +0.016 C 
ATOM     18  C   UNL     1      33.611 -15.165 -25.471  0.00  0.00    +0.001 C 
ATOM     19  C   UNL     1      33.340 -13.888 -25.977  0.00  0.00    +0.016 C 
ATOM     20  C   UNL     1      33.615 -10.840 -24.247  0.00  0.00    +0.168 C 
ATOM     21  H   UNL     1      34.264 -11.505 -22.360  0.00  0.00    +0.149 HD
ATOM     22  H   UNL     1      33.015 -11.023 -26.215  0.00  0.00    +0.149 HD
BRANCH  20  24
ATOM     23  N   UNL     1      33.477  -6.664 -23.537  0.00  0.00    -0.242 NA
ATOM     24  C   UNL     1      33.569  -9.418 -24.003  0.00  0.00    +0.017 C 
ATOM     25  C   UNL     1      34.719  -8.650 -24.131  0.00  0.00    +0.020 C 
ATOM     26  C   UNL     1      32.370  -8.811 -23.642  0.00  0.00    +0.020 C 
ATOM     27  C   UNL     1      34.622  -7.289 -23.890  0.00  0.00    +0.099 C 
ATOM     28  C   UNL     1      32.378  -7.443 -23.423  0.00  0.00    +0.099 C 
ENDBRANCH  20  24
ENDBRANCH   3  14
BRANCH   9  30
ATOM     29  N   UNL     1      35.386 -22.761 -17.519  0.00  0.00    -0.242 NA
ATOM     30  C   UNL     1      35.096 -21.021 -19.686  0.00  0.00    +0.017 C 
ATOM     31  C   UNL     1      36.311 -21.105 -19.016  0.00  0.00    +0.020 C 
ATOM     32  C   UNL     1      34.025 -21.806 -19.273  0.00  0.00    +0.020 C 
ATOM     33  C   UNL     1      36.404 -21.983 -17.948  0.00  0.00    +0.099 C 
ATOM     34  C   UNL     1      34.220 -22.653 -18.194  0.00  0.00    +0.099 C 
ENDBRANCH   9  30
TORSDOF 3
ENDMDL
