MODEL 1
REMARK VINA RESULT:     -11.0      0.000      0.000
REMARK  Name = 46937116
REMARK  4 active torsions:
REMARK  status: ('A' for Active; 'I' for Inactive)
REMARK    1  A    between atoms: N_3  and  C_15
REMARK    2  A    between atoms: N_4  and  C_8
REMARK    3  A    between atoms: N_4  and  O_13
REMARK    4  A    between atoms: C_15  and  C_19
REMARK                            x       y       z     vdW  Elec       q    Type
REMARK                         _______ _______ _______ _____ _____    ______ ____
ROOT
ATOM      1  F   UNL     1      35.575 -17.390 -20.693  0.00  0.00    -0.204 F 
ATOM      2  O   UNL     1      32.604 -13.755 -26.071  0.00  0.00    -0.273 OA
ATOM      3  N   UNL     1      32.981 -13.608 -23.729  0.00  0.00    -0.253 N 
ATOM      4  C   UNL     1      33.612 -14.460 -22.801  0.00  0.00    +0.052 C 
ATOM      5  C   UNL     1      34.095 -15.602 -23.438  0.00  0.00    +0.021 C 
ATOM      6  C   UNL     1      33.020 -14.149 -25.003  0.00  0.00    +0.252 C 
ATOM      7  C   UNL     1      33.748 -15.462 -24.839  0.00  0.00    +0.202 C 
ATOM      8  C   UNL     1      33.785 -14.289 -21.439  0.00  0.00    +0.017 C 
ATOM      9  C   UNL     1      34.758 -16.610 -22.771  0.00  0.00    +0.029 C 
ATOM     10  C   UNL     1      34.455 -15.297 -20.738  0.00  0.00    +0.031 C 
ATOM     11  C   UNL     1      34.937 -16.445 -21.397  0.00  0.00    +0.140 C 
ENDROOT
BRANCH   7  12
ATOM     12  N   UNL     1      33.994 -16.278 -25.801  0.00  0.00    -0.075 NA
BRANCH  12  13
ATOM     13  O   UNL     1      32.840 -16.407 -26.580  0.00  0.00    -0.294 OA
ATOM     14  H   UNL     1      32.897 -16.352 -27.514  0.00  0.00    +0.238 HD
ENDBRANCH  12  13
ENDBRANCH   7  12
BRANCH   3  15
ATOM     15  C   UNL     1      32.381 -12.345 -23.368  0.00  0.00    +0.128 C 
BRANCH  15  19
ATOM     16  F   UNL     1      35.965 -10.428 -26.037  0.00  0.00    -0.204 F 
ATOM     17  O   UNL     1      32.173  -9.863 -22.098  0.00  0.00    -0.448 OA
ATOM     18  O   UNL     1      33.150  -7.767 -21.452  0.00  0.00    -0.311 OA
ATOM     19  C   UNL     1      33.263 -11.183 -23.721  0.00  0.00    +0.034 C 
ATOM     20  C   UNL     1      33.135  -9.955 -23.072  0.00  0.00    +0.138 C 
ATOM     21  C   UNL     1      33.976  -8.887 -23.402  0.00  0.00    +0.043 C 
ATOM     22  C   UNL     1      34.221 -11.341 -24.723  0.00  0.00    +0.030 C 
ATOM     23  C   UNL     1      33.825  -7.575 -22.693  0.00  0.00    +0.176 C 
ATOM     24  C   UNL     1      34.926  -9.050 -24.416  0.00  0.00    +0.031 C 
ATOM     25  C   UNL     1      35.049 -10.275 -25.071  0.00  0.00    +0.140 C 
ATOM     26  C   UNL     1      31.955  -8.521 -21.650  0.00  0.00    +0.361 C 
ENDBRANCH  15  19
ENDBRANCH   3  15
TORSDOF 4
ENDMDL
MODEL 2
REMARK VINA RESULT:     -10.5      2.570      6.600
REMARK  Name = 46937116
REMARK  4 active torsions:
REMARK  status: ('A' for Active; 'I' for Inactive)
REMARK    1  A    between atoms: N_3  and  C_15
REMARK    2  A    between atoms: N_4  and  C_8
REMARK    3  A    between atoms: N_4  and  O_13
REMARK    4  A    between atoms: C_15  and  C_19
REMARK                            x       y       z     vdW  Elec       q    Type
REMARK                         _______ _______ _______ _____ _____    ______ ____
ROOT
ATOM      1  F   UNL     1      31.942  -7.579 -19.627  0.00  0.00    -0.204 F 
ATOM      2  O   UNL     1      33.863 -11.834 -25.027  0.00  0.00    -0.273 OA
ATOM      3  N   UNL     1      32.521 -11.832 -23.065  0.00  0.00    -0.253 N 
ATOM      4  C   UNL     1      32.255 -10.858 -22.083  0.00  0.00    +0.052 C 
ATOM      5  C   UNL     1      32.941  -9.678 -22.368  0.00  0.00    +0.021 C 
ATOM      6  C   UNL     1      33.385 -11.340 -24.029  0.00  0.00    +0.252 C 
ATOM      7  C   UNL     1      33.678  -9.924 -23.593  0.00  0.00    +0.202 C 
ATOM      8  C   UNL     1      31.451 -10.948 -20.962  0.00  0.00    +0.017 C 
ATOM      9  C   UNL     1      32.866  -8.555 -21.573  0.00  0.00    +0.029 C 
ATOM     10  C   UNL     1      31.356  -9.822 -20.137  0.00  0.00    +0.031 C 
ATOM     11  C   UNL     1      32.057  -8.638 -20.440  0.00  0.00    +0.140 C 
ENDROOT
BRANCH   7  12
ATOM     12  N   UNL     1      34.449  -9.116 -24.229  0.00  0.00    -0.075 NA
BRANCH  12  13
ATOM     13  O   UNL     1      35.712  -9.705 -24.344  0.00  0.00    -0.294 OA
ATOM     14  H   UNL     1      35.793 -10.578 -24.677  0.00  0.00    +0.238 HD
ENDBRANCH  12  13
ENDBRANCH   7  12
BRANCH   3  15
ATOM     15  C   UNL     1      31.952 -13.159 -23.043  0.00  0.00    +0.128 C 
BRANCH  15  19
ATOM     16  F   UNL     1      34.835 -15.438 -19.857  0.00  0.00    -0.204 F 
ATOM     17  O   UNL     1      32.985 -14.866 -25.002  0.00  0.00    -0.448 OA
ATOM     18  O   UNL     1      34.734 -16.307 -25.796  0.00  0.00    -0.311 OA
ATOM     19  C   UNL     1      32.984 -14.207 -22.737  0.00  0.00    +0.034 C 
ATOM     20  C   UNL     1      33.479 -15.046 -23.735  0.00  0.00    +0.138 C 
ATOM     21  C   UNL     1      34.452 -16.007 -23.435  0.00  0.00    +0.043 C 
ATOM     22  C   UNL     1      33.444 -14.341 -21.427  0.00  0.00    +0.030 C 
ATOM     23  C   UNL     1      34.974 -16.899 -24.521  0.00  0.00    +0.176 C 
ATOM     24  C   UNL     1      34.899 -16.143 -22.117  0.00  0.00    +0.031 C 
ATOM     25  C   UNL     1      34.398 -15.309 -21.117  0.00  0.00    +0.140 C 
ATOM     26  C   UNL     1      33.369 -15.907 -25.907  0.00  0.00    +0.361 C 
ENDBRANCH  15  19
ENDBRANCH   3  15
TORSDOF 4
ENDMDL
MODEL 3
REMARK VINA RESULT:     -10.3      2.245      2.903
REMARK  Name = 46937116
REMARK  4 active torsions:
REMARK  status: ('A' for Active; 'I' for Inactive)
REMARK    1  A    between atoms: N_3  and  C_15
REMARK    2  A    between atoms: N_4  and  C_8
REMARK    3  A    between atoms: N_4  and  O_13
REMARK    4  A    between atoms: C_15  and  C_19
REMARK                            x       y       z     vdW  Elec       q    Type
REMARK                         _______ _______ _______ _____ _____    ______ ____
ROOT
ATOM      1  F   UNL     1      34.928 -17.881 -25.651  0.00  0.00    -0.204 F 
ATOM      2  O   UNL     1      32.783 -13.200 -20.706  0.00  0.00    -0.273 OA
ATOM      3  N   UNL     1      32.786 -13.528 -23.060  0.00  0.00    -0.253 N 
ATOM      4  C   UNL     1      33.277 -14.557 -23.887  0.00  0.00    +0.052 C 
ATOM      5  C   UNL     1      33.869 -15.559 -23.119  0.00  0.00    +0.021 C 
ATOM      6  C   UNL     1      33.032 -13.806 -21.726  0.00  0.00    +0.252 C 
ATOM      7  C   UNL     1      33.745 -15.137 -21.737  0.00  0.00    +0.202 C 
ATOM      8  C   UNL     1      33.233 -14.663 -25.265  0.00  0.00    +0.017 C 
ATOM      9  C   UNL     1      34.435 -16.690 -23.667  0.00  0.00    +0.029 C 
ATOM     10  C   UNL     1      33.800 -15.801 -25.848  0.00  0.00    +0.031 C 
ATOM     11  C   UNL     1      34.395 -16.804 -25.057  0.00  0.00    +0.140 C 
ENDROOT
BRANCH   7  12
ATOM     12  N   UNL     1      34.150 -15.750 -20.683  0.00  0.00    -0.075 NA
BRANCH  12  13
ATOM     13  O   UNL     1      35.068 -14.931 -20.018  0.00  0.00    -0.294 OA
ATOM     14  H   UNL     1      35.945 -15.230 -19.876  0.00  0.00    +0.238 HD
ENDBRANCH  12  13
ENDBRANCH   7  12
BRANCH   3  15
ATOM     15  C   UNL     1      32.119 -12.352 -23.566  0.00  0.00    +0.128 C 
BRANCH  15  19
ATOM     16  F   UNL     1      35.904 -10.517 -26.005  0.00  0.00    -0.204 F 
ATOM     17  O   UNL     1      32.013  -9.933 -22.167  0.00  0.00    -0.448 OA
ATOM     18  O   UNL     1      33.088  -7.939 -21.374  0.00  0.00    -0.311 OA
ATOM     19  C   UNL     1      33.081 -11.228 -23.825  0.00  0.00    +0.034 C 
ATOM     20  C   UNL     1      33.002 -10.031 -23.113  0.00  0.00    +0.138 C 
ATOM     21  C   UNL     1      33.916  -9.000 -23.355  0.00  0.00    +0.043 C 
ATOM     22  C   UNL     1      34.063 -11.391 -24.801  0.00  0.00    +0.030 C 
ATOM     23  C   UNL     1      33.818  -7.721 -22.579  0.00  0.00    +0.176 C 
ATOM     24  C   UNL     1      34.891  -9.166 -24.345  0.00  0.00    +0.031 C 
ATOM     25  C   UNL     1      34.965 -10.360 -25.063  0.00  0.00    +0.140 C 
ATOM     26  C   UNL     1      31.858  -8.606 -21.653  0.00  0.00    +0.361 C 
ENDBRANCH  15  19
ENDBRANCH   3  15
TORSDOF 4
ENDMDL
MODEL 4
REMARK VINA RESULT:     -10.1      4.241      8.189
REMARK  Name = 46937116
REMARK  4 active torsions:
REMARK  status: ('A' for Active; 'I' for Inactive)
REMARK    1  A    between atoms: N_3  and  C_15
REMARK    2  A    between atoms: N_4  and  C_8
REMARK    3  A    between atoms: N_4  and  O_13
REMARK    4  A    between atoms: C_15  and  C_19
REMARK                            x       y       z     vdW  Elec       q    Type
REMARK                         _______ _______ _______ _____ _____    ______ ____
ROOT
ATOM      1  F   UNL     1      31.933 -12.769 -20.812  0.00  0.00    -0.204 F 
ATOM      2  O   UNL     1      35.151 -17.398 -25.191  0.00  0.00    -0.273 OA
ATOM      3  N   UNL     1      34.948 -16.877 -22.881  0.00  0.00    -0.253 N 
ATOM      4  C   UNL     1      34.238 -15.884 -22.178  0.00  0.00    +0.052 C 
ATOM      5  C   UNL     1      33.528 -15.073 -23.063  0.00  0.00    +0.021 C 
ATOM      6  C   UNL     1      34.739 -16.762 -24.245  0.00  0.00    +0.252 C 
ATOM      7  C   UNL     1      33.808 -15.582 -24.392  0.00  0.00    +0.202 C 
ATOM      8  C   UNL     1      34.179 -15.655 -20.815  0.00  0.00    +0.017 C 
ATOM      9  C   UNL     1      32.744 -14.018 -22.650  0.00  0.00    +0.029 C 
ATOM     10  C   UNL     1      33.390 -14.590 -20.368  0.00  0.00    +0.031 C 
ATOM     11  C   UNL     1      32.680 -13.780 -21.276  0.00  0.00    +0.140 C 
ENDROOT
BRANCH   7  12
ATOM     12  N   UNL     1      33.368 -15.144 -25.516  0.00  0.00    -0.075 NA
BRANCH  12  13
ATOM     13  O   UNL     1      32.981 -16.235 -26.299  0.00  0.00    -0.294 OA
ATOM     14  H   UNL     1      32.090 -16.526 -26.290  0.00  0.00    +0.238 HD
ENDBRANCH  12  13
ENDBRANCH   7  12
BRANCH   3  15
ATOM     15  C   UNL     1      35.776 -17.869 -22.236  0.00  0.00    +0.128 C 
BRANCH  15  19
ATOM     16  F   UNL     1      31.511 -20.072 -21.461  0.00  0.00    -0.204 F 
ATOM     17  O   UNL     1      36.880 -19.632 -20.368  0.00  0.00    -0.448 OA
ATOM     18  O   UNL     1      36.622 -21.100 -18.486  0.00  0.00    -0.311 OA
ATOM     19  C   UNL     1      34.958 -18.911 -21.531  0.00  0.00    +0.034 C 
ATOM     20  C   UNL     1      35.537 -19.780 -20.605  0.00  0.00    +0.138 C 
ATOM     21  C   UNL     1      34.757 -20.736 -19.945  0.00  0.00    +0.043 C 
ATOM     22  C   UNL     1      33.597 -19.011 -21.818  0.00  0.00    +0.030 C 
ATOM     23  C   UNL     1      35.395 -21.659 -18.951  0.00  0.00    +0.176 C 
ATOM     24  C   UNL     1      33.395 -20.837 -20.248  0.00  0.00    +0.031 C 
ATOM     25  C   UNL     1      32.817 -19.975 -21.180  0.00  0.00    +0.140 C 
ATOM     26  C   UNL     1      37.433 -20.699 -19.589  0.00  0.00    +0.361 C 
ENDBRANCH  15  19
ENDBRANCH   3  15
TORSDOF 4
ENDMDL
MODEL 5
REMARK VINA RESULT:      -9.8     12.834     15.214
REMARK  Name = 46937116
REMARK  4 active torsions:
REMARK  status: ('A' for Active; 'I' for Inactive)
REMARK    1  A    between atoms: N_3  and  C_15
REMARK    2  A    between atoms: N_4  and  C_8
REMARK    3  A    between atoms: N_4  and  O_13
REMARK    4  A    between atoms: C_15  and  C_19
REMARK                            x       y       z     vdW  Elec       q    Type
REMARK                         _______ _______ _______ _____ _____    ______ ____
ROOT
ATOM      1  F   UNL     1      28.093 -23.911 -16.284  0.00  0.00    -0.204 F 
ATOM      2  O   UNL     1      35.167 -22.982 -16.534  0.00  0.00    -0.273 OA
ATOM      3  N   UNL     1      33.443 -23.650 -15.039  0.00  0.00    -0.253 N 
ATOM      4  C   UNL     1      32.047 -23.776 -15.175  0.00  0.00    +0.052 C 
ATOM      5  C   UNL     1      31.650 -23.427 -16.466  0.00  0.00    +0.021 C 
ATOM      6  C   UNL     1      34.019 -23.217 -16.222  0.00  0.00    +0.252 C 
ATOM      7  C   UNL     1      32.860 -23.062 -17.178  0.00  0.00    +0.202 C 
ATOM      8  C   UNL     1      31.113 -24.177 -14.238  0.00  0.00    +0.017 C 
ATOM      9  C   UNL     1      30.336 -23.458 -16.881  0.00  0.00    +0.029 C 
ATOM     10  C   UNL     1      29.771 -24.217 -14.633  0.00  0.00    +0.031 C 
ATOM     11  C   UNL     1      29.387 -23.860 -15.941  0.00  0.00    +0.140 C 
ENDROOT
BRANCH   7  12
ATOM     12  N   UNL     1      32.975 -22.673 -18.397  0.00  0.00    -0.075 NA
BRANCH  12  13
ATOM     13  O   UNL     1      33.806 -23.571 -19.074  0.00  0.00    -0.294 OA
ATOM     14  H   UNL     1      34.671 -23.310 -19.325  0.00  0.00    +0.238 HD
ENDBRANCH  12  13
ENDBRANCH   7  12
BRANCH   3  15
ATOM     15  C   UNL     1      34.152 -23.941 -13.815  0.00  0.00    +0.128 C 
BRANCH  15  19
ATOM     16  F   UNL     1      36.667 -27.380 -16.159  0.00  0.00    -0.204 F 
ATOM     17  O   UNL     1      36.529 -23.279 -12.501  0.00  0.00    -0.448 OA
ATOM     18  O   UNL     1      38.720 -23.887 -11.731  0.00  0.00    -0.311 OA
ATOM     19  C   UNL     1      35.442 -24.665 -14.071  0.00  0.00    +0.034 C 
ATOM     20  C   UNL     1      36.614 -24.310 -13.402  0.00  0.00    +0.138 C 
ATOM     21  C   UNL     1      37.805 -25.005 -13.642  0.00  0.00    +0.043 C 
ATOM     22  C   UNL     1      35.462 -25.703 -15.002  0.00  0.00    +0.030 C 
ATOM     23  C   UNL     1      39.055 -24.612 -12.912  0.00  0.00    +0.176 C 
ATOM     24  C   UNL     1      37.819 -26.037 -14.586  0.00  0.00    +0.031 C 
ATOM     25  C   UNL     1      36.649 -26.386 -15.261  0.00  0.00    +0.140 C 
ATOM     26  C   UNL     1      37.809 -22.834 -12.037  0.00  0.00    +0.361 C 
ENDBRANCH  15  19
ENDBRANCH   3  15
TORSDOF 4
ENDMDL
MODEL 6
REMARK VINA RESULT:      -9.8     11.974     14.910
REMARK  Name = 46937116
REMARK  4 active torsions:
REMARK  status: ('A' for Active; 'I' for Inactive)
REMARK    1  A    between atoms: N_3  and  C_15
REMARK    2  A    between atoms: N_4  and  C_8
REMARK    3  A    between atoms: N_4  and  O_13
REMARK    4  A    between atoms: C_15  and  C_19
REMARK                            x       y       z     vdW  Elec       q    Type
REMARK                         _______ _______ _______ _____ _____    ______ ____
ROOT
ATOM      1  F   UNL     1      29.756 -24.136 -15.083  0.00  0.00    -0.204 F 
ATOM      2  O   UNL     1      35.763 -22.172 -18.404  0.00  0.00    -0.273 OA
ATOM      3  N   UNL     1      34.956 -22.780 -16.252  0.00  0.00    -0.253 N 
ATOM      4  C   UNL     1      33.686 -23.151 -15.770  0.00  0.00    +0.052 C 
ATOM      5  C   UNL     1      32.751 -23.144 -16.805  0.00  0.00    +0.021 C 
ATOM      6  C   UNL     1      34.913 -22.515 -17.611  0.00  0.00    +0.252 C 
ATOM      7  C   UNL     1      33.472 -22.747 -18.000  0.00  0.00    +0.202 C 
ATOM      8  C   UNL     1      33.306 -23.492 -14.485  0.00  0.00    +0.017 C 
ATOM      9  C   UNL     1      31.424 -23.467 -16.621  0.00  0.00    +0.029 C 
ATOM     10  C   UNL     1      31.965 -23.825 -14.270  0.00  0.00    +0.031 C 
ATOM     11  C   UNL     1      31.033 -23.811 -15.326  0.00  0.00    +0.140 C 
ENDROOT
BRANCH   7  12
ATOM     12  N   UNL     1      33.013 -22.605 -19.191  0.00  0.00    -0.075 NA
BRANCH  12  13
ATOM     13  O   UNL     1      32.994 -21.242 -19.501  0.00  0.00    -0.294 OA
ATOM     14  H   UNL     1      33.666 -20.677 -19.172  0.00  0.00    +0.238 HD
ENDBRANCH  12  13
ENDBRANCH   7  12
BRANCH   3  15
ATOM     15  C   UNL     1      36.130 -22.697 -15.415  0.00  0.00    +0.128 C 
BRANCH  15  19
ATOM     16  F   UNL     1      36.874 -27.484 -15.838  0.00  0.00    -0.204 F 
ATOM     17  O   UNL     1      36.710 -22.977 -12.694  0.00  0.00    -0.448 OA
ATOM     18  O   UNL     1      36.839 -24.342 -10.723  0.00  0.00    -0.311 OA
ATOM     19  C   UNL     1      36.474 -24.021 -14.797  0.00  0.00    +0.034 C 
ATOM     20  C   UNL     1      36.762 -24.130 -13.436  0.00  0.00    +0.138 C 
ATOM     21  C   UNL     1      37.066 -25.375 -12.873  0.00  0.00    +0.043 C 
ATOM     22  C   UNL     1      36.512 -25.156 -15.606  0.00  0.00    +0.030 C 
ATOM     23  C   UNL     1      37.371 -25.474 -11.408  0.00  0.00    +0.176 C 
ATOM     24  C   UNL     1      37.114 -26.506 -13.694  0.00  0.00    +0.031 C 
ATOM     25  C   UNL     1      36.834 -26.396 -15.057  0.00  0.00    +0.140 C 
ATOM     26  C   UNL     1      37.238 -23.137 -11.373  0.00  0.00    +0.361 C 
ENDBRANCH  15  19
ENDBRANCH   3  15
TORSDOF 4
ENDMDL
MODEL 7
REMARK VINA RESULT:      -9.3     10.923     14.622
REMARK  Name = 46937116
REMARK  4 active torsions:
REMARK  status: ('A' for Active; 'I' for Inactive)
REMARK    1  A    between atoms: N_3  and  C_15
REMARK    2  A    between atoms: N_4  and  C_8
REMARK    3  A    between atoms: N_4  and  O_13
REMARK    4  A    between atoms: C_15  and  C_19
REMARK                            x       y       z     vdW  Elec       q    Type
REMARK                         _______ _______ _______ _____ _____    ______ ____
ROOT
ATOM      1  F   UNL     1      35.417 -21.061 -21.338  0.00  0.00    -0.204 F 
ATOM      2  O   UNL     1      34.070 -23.722 -14.852  0.00  0.00    -0.273 OA
ATOM      3  N   UNL     1      35.713 -22.472 -16.031  0.00  0.00    -0.253 N 
ATOM      4  C   UNL     1      35.809 -22.025 -17.363  0.00  0.00    +0.052 C 
ATOM      5  C   UNL     1      34.688 -22.422 -18.092  0.00  0.00    +0.021 C 
ATOM      6  C   UNL     1      34.537 -23.176 -15.828  0.00  0.00    +0.252 C 
ATOM      7  C   UNL     1      33.845 -23.158 -17.170  0.00  0.00    +0.202 C 
ATOM      8  C   UNL     1      36.816 -21.295 -17.967  0.00  0.00    +0.017 C 
ATOM      9  C   UNL     1      34.515 -22.122 -19.426  0.00  0.00    +0.029 C 
ATOM     10  C   UNL     1      36.666 -20.976 -19.320  0.00  0.00    +0.031 C 
ATOM     11  C   UNL     1      35.528 -21.385 -20.043  0.00  0.00    +0.140 C 
ENDROOT
BRANCH   7  12
ATOM     12  N   UNL     1      32.709 -23.711 -17.405  0.00  0.00    -0.075 NA
BRANCH  12  13
ATOM     13  O   UNL     1      31.754 -23.146 -16.554  0.00  0.00    -0.294 OA
ATOM     14  H   UNL     1      32.023 -22.736 -15.756  0.00  0.00    +0.238 HD
ENDBRANCH  12  13
ENDBRANCH   7  12
BRANCH   3  15
ATOM     15  C   UNL     1      36.723 -22.215 -15.032  0.00  0.00    +0.128 C 
BRANCH  15  19
ATOM     16  F   UNL     1      40.146 -25.553 -15.919  0.00  0.00    -0.204 F 
ATOM     17  O   UNL     1      36.137 -23.625 -12.690  0.00  0.00    -0.448 OA
ATOM     18  O   UNL     1      36.167 -25.667 -11.427  0.00  0.00    -0.311 OA
ATOM     19  C   UNL     1      37.456 -23.466 -14.639  0.00  0.00    +0.034 C 
ATOM     20  C   UNL     1      37.144 -24.147 -13.463  0.00  0.00    +0.138 C 
ATOM     21  C   UNL     1      37.826 -25.319 -13.120  0.00  0.00    +0.043 C 
ATOM     22  C   UNL     1      38.471 -23.943 -15.468  0.00  0.00    +0.030 C 
ATOM     23  C   UNL     1      37.476 -26.040 -11.852  0.00  0.00    +0.176 C 
ATOM     24  C   UNL     1      38.851 -25.785 -13.951  0.00  0.00    +0.031 C 
ATOM     25  C   UNL     1      39.169 -25.099 -15.123  0.00  0.00    +0.140 C 
ATOM     26  C   UNL     1      36.040 -24.247 -11.403  0.00  0.00    +0.361 C 
ENDBRANCH  15  19
ENDBRANCH   3  15
TORSDOF 4
ENDMDL
MODEL 8
REMARK VINA RESULT:      -9.3      3.607      5.038
REMARK  Name = 46937116
REMARK  4 active torsions:
REMARK  status: ('A' for Active; 'I' for Inactive)
REMARK    1  A    between atoms: N_3  and  C_15
REMARK    2  A    between atoms: N_4  and  C_8
REMARK    3  A    between atoms: N_4  and  O_13
REMARK    4  A    between atoms: C_15  and  C_19
REMARK                            x       y       z     vdW  Elec       q    Type
REMARK                         _______ _______ _______ _____ _____    ______ ____
ROOT
ATOM      1  F   UNL     1      30.266 -11.882 -20.820  0.00  0.00    -0.204 F 
ATOM      2  O   UNL     1      35.409  -9.734 -25.281  0.00  0.00    -0.273 OA
ATOM      3  N   UNL     1      34.105  -8.953 -23.453  0.00  0.00    -0.253 N 
ATOM      4  C   UNL     1      33.096  -9.546 -22.669  0.00  0.00    +0.052 C 
ATOM      5  C   UNL     1      32.855 -10.853 -23.092  0.00  0.00    +0.021 C 
ATOM      6  C   UNL     1      34.565  -9.836 -24.416  0.00  0.00    +0.252 C 
ATOM      7  C   UNL     1      33.758 -11.094 -24.200  0.00  0.00    +0.202 C 
ATOM      8  C   UNL     1      32.384  -9.008 -21.612  0.00  0.00    +0.017 C 
ATOM      9  C   UNL     1      31.916 -11.671 -22.502  0.00  0.00    +0.029 C 
ATOM     10  C   UNL     1      31.425  -9.817 -20.995  0.00  0.00    +0.031 C 
ATOM     11  C   UNL     1      31.193 -11.135 -21.436  0.00  0.00    +0.140 C 
ENDROOT
BRANCH   7  12
ATOM     12  N   UNL     1      33.885 -12.163 -24.901  0.00  0.00    -0.075 NA
BRANCH  12  13
ATOM     13  O   UNL     1      33.825 -11.819 -26.254  0.00  0.00    -0.294 OA
ATOM     14  H   UNL     1      33.062 -11.394 -26.596  0.00  0.00    +0.238 HD
ENDBRANCH  12  13
ENDBRANCH   7  12
BRANCH   3  15
ATOM     15  C   UNL     1      34.575  -7.603 -23.255  0.00  0.00    +0.128 C 
BRANCH  15  19
ATOM     16  F   UNL     1      34.836  -5.265 -27.511  0.00  0.00    -0.204 F 
ATOM     17  O   UNL     1      32.114  -6.337 -22.857  0.00  0.00    -0.448 OA
ATOM     18  O   UNL     1      30.607  -4.526 -23.317  0.00  0.00    -0.311 OA
ATOM     19  C   UNL     1      33.987  -6.651 -24.256  0.00  0.00    +0.034 C 
ATOM     20  C   UNL     1      32.755  -6.036 -24.032  0.00  0.00    +0.138 C 
ATOM     21  C   UNL     1      32.229  -5.139 -24.969  0.00  0.00    +0.043 C 
ATOM     22  C   UNL     1      34.689  -6.388 -25.432  0.00  0.00    +0.030 C 
ATOM     23  C   UNL     1      30.905  -4.486 -24.711  0.00  0.00    +0.176 C 
ATOM     24  C   UNL     1      32.934  -4.891 -26.151  0.00  0.00    +0.031 C 
ATOM     25  C   UNL     1      34.162  -5.512 -26.379  0.00  0.00    +0.140 C 
ATOM     26  C   UNL     1      30.768  -5.851 -22.813  0.00  0.00    +0.361 C 
ENDBRANCH  15  19
ENDBRANCH   3  15
TORSDOF 4
ENDMDL
MODEL 9
REMARK VINA RESULT:      -9.2      2.803      4.029
REMARK  Name = 46937116
REMARK  4 active torsions:
REMARK  status: ('A' for Active; 'I' for Inactive)
REMARK    1  A    between atoms: N_3  and  C_15
REMARK    2  A    between atoms: N_4  and  C_8
REMARK    3  A    between atoms: N_4  and  O_13
REMARK    4  A    between atoms: C_15  and  C_19
REMARK                            x       y       z     vdW  Elec       q    Type
REMARK                         _______ _______ _______ _____ _____    ______ ____
ROOT
ATOM      1  F   UNL     1      34.691 -16.610 -25.472  0.00  0.00    -0.204 F 
ATOM      2  O   UNL     1      32.060 -12.677 -20.127  0.00  0.00    -0.273 OA
ATOM      3  N   UNL     1      32.157 -12.737 -22.501  0.00  0.00    -0.253 N 
ATOM      4  C   UNL     1      32.747 -13.630 -23.417  0.00  0.00    +0.052 C 
ATOM      5  C   UNL     1      33.389 -14.668 -22.742  0.00  0.00    +0.021 C 
ATOM      6  C   UNL     1      32.383 -13.145 -21.197  0.00  0.00    +0.252 C 
ATOM      7  C   UNL     1      33.192 -14.414 -21.328  0.00  0.00    +0.202 C 
ATOM      8  C   UNL     1      32.753 -13.583 -24.799  0.00  0.00    +0.017 C 
ATOM      9  C   UNL     1      34.053 -15.687 -23.390  0.00  0.00    +0.029 C 
ATOM     10  C   UNL     1      33.419 -14.606 -25.482  0.00  0.00    +0.031 C 
ATOM     11  C   UNL     1      34.063 -15.647 -24.784  0.00  0.00    +0.140 C 
ENDROOT
BRANCH   7  12
ATOM     12  N   UNL     1      33.610 -15.111 -20.333  0.00  0.00    -0.075 NA
BRANCH  12  13
ATOM     13  O   UNL     1      34.995 -14.952 -20.228  0.00  0.00    -0.294 OA
ATOM     14  H   UNL     1      35.354 -14.125 -19.973  0.00  0.00    +0.238 HD
ENDBRANCH  12  13
ENDBRANCH   7  12
BRANCH   3  15
ATOM     15  C   UNL     1      31.421 -11.561 -22.900  0.00  0.00    +0.128 C 
BRANCH  15  19
ATOM     16  F   UNL     1      31.720  -8.074 -19.524  0.00  0.00    -0.204 F 
ATOM     17  O   UNL     1      33.500 -10.260 -24.242  0.00  0.00    -0.448 OA
ATOM     18  O   UNL     1      34.759  -8.267 -24.696  0.00  0.00    -0.311 OA
ATOM     19  C   UNL     1      32.051 -10.301 -22.381  0.00  0.00    +0.034 C 
ATOM     20  C   UNL     1      33.090  -9.676 -23.071  0.00  0.00    +0.138 C 
ATOM     21  C   UNL     1      33.656  -8.493 -22.581  0.00  0.00    +0.043 C 
ATOM     22  C   UNL     1      31.589  -9.757 -21.182  0.00  0.00    +0.030 C 
ATOM     23  C   UNL     1      34.769  -7.833 -23.338  0.00  0.00    +0.176 C 
ATOM     24  C   UNL     1      33.195  -7.961 -21.373  0.00  0.00    +0.031 C 
ATOM     25  C   UNL     1      32.162  -8.591 -20.678  0.00  0.00    +0.140 C 
ATOM     26  C   UNL     1      34.708  -9.691 -24.760  0.00  0.00    +0.361 C 
ENDBRANCH  15  19
ENDBRANCH   3  15
TORSDOF 4
ENDMDL
