MODEL 1
REMARK VINA RESULT:      -7.9      0.000      0.000
REMARK  Name = 4121
REMARK  3 active torsions:
REMARK  status: ('A' for Active; 'I' for Inactive)
REMARK    1  A    between atoms: C_7  and  C_23
REMARK    2  A    between atoms: C_13  and  S_16
REMARK    3  A    between atoms: S_16  and  N_19
REMARK                            x       y       z     vdW  Elec       q    Type
REMARK                         _______ _______ _______ _____ _____    ______ ____
ROOT
ATOM      1 CL   UNL     1      36.250 -22.671 -17.042  0.00  0.00    -0.081 Cl
ATOM      2  S   UNL     1      31.284 -24.301 -13.592  0.00  0.00    +0.066 S 
ATOM      3  O   UNL     1      31.533 -25.625 -13.058  0.00  0.00    -0.153 OA
ATOM      4  O   UNL     1      31.020 -23.175 -12.717  0.00  0.00    -0.153 OA
ATOM      5  N   UNL     1      30.052 -24.389 -14.816  0.00  0.00    -0.136 NA
ATOM      6  N   UNL     1      31.225 -22.806 -16.299  0.00  0.00    -0.318 N 
ATOM      7  C   UNL     1      29.982 -23.108 -15.605  0.00  0.00    +0.167 C 
ATOM      8  C   UNL     1      32.673 -23.830 -14.579  0.00  0.00    +0.137 C 
ATOM      9  C   UNL     1      32.472 -23.128 -15.780  0.00  0.00    +0.065 C 
ATOM     10  C   UNL     1      33.946 -24.179 -14.121  0.00  0.00    +0.042 C 
ATOM     11  C   UNL     1      30.049 -25.625 -15.654  0.00  0.00    +0.117 C 
ATOM     12  C   UNL     1      33.619 -22.792 -16.518  0.00  0.00    +0.028 C 
ATOM     13  C   UNL     1      35.062 -23.823 -14.873  0.00  0.00    +0.134 C 
ATOM     14  C   UNL     1      34.900 -23.130 -16.069  0.00  0.00    +0.078 C 
ATOM     15  H   UNL     1      31.180 -22.355 -17.172  0.00  0.00    +0.148 HD
ENDROOT
BRANCH  13  16
ATOM     16  S   UNL     1      36.641 -24.276 -14.264  0.00  0.00    +0.058 S 
ATOM     17  O   UNL     1      37.424 -23.043 -14.212  0.00  0.00    -0.153 OA
ATOM     18  O   UNL     1      36.381 -25.036 -13.047  0.00  0.00    -0.153 OA
BRANCH  16  19
ATOM     19  N   UNL     1      37.396 -25.320 -15.401  0.00  0.00    -0.203 NA
ATOM     20  H   UNL     1      37.919 -26.043 -14.905  0.00  0.00    +0.144 HD
ATOM     21  H   UNL     1      38.034 -24.782 -15.988  0.00  0.00    +0.144 HD
ENDBRANCH  16  19
ENDBRANCH  13  16
BRANCH   7  23
ATOM     22 CL   UNL     1      27.368 -22.438 -15.836  0.00  0.00    -0.110 Cl
ATOM     23  C   UNL     1      28.820 -23.112 -16.595  0.00  0.00    +0.133 C 
ENDBRANCH   7  23
TORSDOF 3
ENDMDL
MODEL 2
REMARK VINA RESULT:      -7.3      3.030      6.838
REMARK  Name = 4121
REMARK  3 active torsions:
REMARK  status: ('A' for Active; 'I' for Inactive)
REMARK    1  A    between atoms: C_7  and  C_23
REMARK    2  A    between atoms: C_13  and  S_16
REMARK    3  A    between atoms: S_16  and  N_19
REMARK                            x       y       z     vdW  Elec       q    Type
REMARK                         _______ _______ _______ _____ _____    ______ ____
ROOT
ATOM      1 CL   UNL     1      33.230 -23.399 -16.678  0.00  0.00    -0.081 Cl
ATOM      2  S   UNL     1      36.802 -25.073 -11.814  0.00  0.00    +0.066 S 
ATOM      3  O   UNL     1      36.444 -24.229 -10.691  0.00  0.00    -0.153 OA
ATOM      4  O   UNL     1      36.707 -26.518 -11.727  0.00  0.00    -0.153 OA
ATOM      5  N   UNL     1      38.378 -24.628 -12.398  0.00  0.00    -0.136 NA
ATOM      6  N   UNL     1      37.709 -24.845 -14.762  0.00  0.00    -0.318 N 
ATOM      7  C   UNL     1      38.656 -25.259 -13.737  0.00  0.00    +0.167 C 
ATOM      8  C   UNL     1      35.810 -24.605 -13.200  0.00  0.00    +0.137 C 
ATOM      9  C   UNL     1      36.374 -24.576 -14.487  0.00  0.00    +0.065 C 
ATOM     10  C   UNL     1      34.474 -24.275 -12.963  0.00  0.00    +0.042 C 
ATOM     11  C   UNL     1      38.718 -23.175 -12.325  0.00  0.00    +0.117 C 
ATOM     12  C   UNL     1      35.532 -24.188 -15.540  0.00  0.00    +0.028 C 
ATOM     13  C   UNL     1      33.663 -23.903 -14.031  0.00  0.00    +0.134 C 
ATOM     14  C   UNL     1      34.190 -23.860 -15.319  0.00  0.00    +0.078 C 
ATOM     15  H   UNL     1      38.027 -24.752 -15.688  0.00  0.00    +0.148 HD
ENDROOT
BRANCH  13  16
ATOM     16  S   UNL     1      31.992 -23.499 -13.694  0.00  0.00    +0.058 S 
ATOM     17  O   UNL     1      31.534 -22.692 -14.822  0.00  0.00    -0.153 OA
ATOM     18  O   UNL     1      31.345 -24.769 -13.384  0.00  0.00    -0.153 OA
BRANCH  16  19
ATOM     19  N   UNL     1      31.932 -22.509 -12.290  0.00  0.00    -0.203 NA
ATOM     20  H   UNL     1      32.881 -22.269 -12.001  0.00  0.00    +0.144 HD
ATOM     21  H   UNL     1      31.464 -23.013 -11.537  0.00  0.00    +0.144 HD
ENDBRANCH  16  19
ENDBRANCH  13  16
BRANCH   7  23
ATOM     22 CL   UNL     1      41.005 -26.504 -14.255  0.00  0.00    -0.110 Cl
ATOM     23  C   UNL     1      40.083 -24.991 -14.208  0.00  0.00    +0.133 C 
ENDBRANCH   7  23
TORSDOF 3
ENDMDL
MODEL 3
REMARK VINA RESULT:      -7.1      3.762      6.010
REMARK  Name = 4121
REMARK  3 active torsions:
REMARK  status: ('A' for Active; 'I' for Inactive)
REMARK    1  A    between atoms: C_7  and  C_23
REMARK    2  A    between atoms: C_13  and  S_16
REMARK    3  A    between atoms: S_16  and  N_19
REMARK                            x       y       z     vdW  Elec       q    Type
REMARK                         _______ _______ _______ _____ _____    ______ ____
ROOT
ATOM      1 CL   UNL     1      31.397 -23.091 -16.970  0.00  0.00    -0.081 Cl
ATOM      2  S   UNL     1      37.226 -23.439 -14.704  0.00  0.00    +0.066 S 
ATOM      3  O   UNL     1      38.062 -24.037 -15.726  0.00  0.00    -0.153 OA
ATOM      4  O   UNL     1      37.522 -22.126 -14.164  0.00  0.00    -0.153 OA
ATOM      5  N   UNL     1      37.002 -24.568 -13.400  0.00  0.00    -0.136 NA
ATOM      6  N   UNL     1      34.615 -24.001 -13.144  0.00  0.00    -0.318 N 
ATOM      7  C   UNL     1      35.903 -24.113 -12.475  0.00  0.00    +0.167 C 
ATOM      8  C   UNL     1      35.573 -23.345 -15.324  0.00  0.00    +0.137 C 
ATOM      9  C   UNL     1      34.489 -23.608 -14.470  0.00  0.00    +0.065 C 
ATOM     10  C   UNL     1      35.400 -23.003 -16.667  0.00  0.00    +0.042 C 
ATOM     11  C   UNL     1      36.919 -26.007 -13.787  0.00  0.00    +0.117 C 
ATOM     12  C   UNL     1      33.204 -23.522 -15.030  0.00  0.00    +0.028 C 
ATOM     13  C   UNL     1      34.112 -22.918 -17.189  0.00  0.00    +0.134 C 
ATOM     14  C   UNL     1      33.015 -23.176 -16.372  0.00  0.00    +0.078 C 
ATOM     15  H   UNL     1      33.800 -24.212 -12.635  0.00  0.00    +0.148 HD
ENDROOT
BRANCH  13  16
ATOM     16  S   UNL     1      33.935 -22.484 -18.877  0.00  0.00    +0.058 S 
ATOM     17  O   UNL     1      33.860 -23.744 -19.614  0.00  0.00    -0.153 OA
ATOM     18  O   UNL     1      32.826 -21.539 -18.917  0.00  0.00    -0.153 OA
BRANCH  16  19
ATOM     19  N   UNL     1      35.358 -21.667 -19.392  0.00  0.00    -0.203 NA
ATOM     20  H   UNL     1      35.951 -21.474 -18.585  0.00  0.00    +0.144 HD
ATOM     21  H   UNL     1      35.102 -20.789 -19.843  0.00  0.00    +0.144 HD
ENDBRANCH  16  19
ENDBRANCH  13  16
BRANCH   7  23
ATOM     22 CL   UNL     1      35.623 -24.038  -9.782  0.00  0.00    -0.110 Cl
ATOM     23  C   UNL     1      35.778 -25.017 -11.252  0.00  0.00    +0.133 C 
ENDBRANCH   7  23
TORSDOF 3
ENDMDL
MODEL 4
REMARK VINA RESULT:      -6.5      2.223      5.963
REMARK  Name = 4121
REMARK  3 active torsions:
REMARK  status: ('A' for Active; 'I' for Inactive)
REMARK    1  A    between atoms: C_7  and  C_23
REMARK    2  A    between atoms: C_13  and  S_16
REMARK    3  A    between atoms: S_16  and  N_19
REMARK                            x       y       z     vdW  Elec       q    Type
REMARK                         _______ _______ _______ _____ _____    ______ ____
ROOT
ATOM      1 CL   UNL     1      30.844 -22.694 -16.816  0.00  0.00    -0.081 Cl
ATOM      2  S   UNL     1      35.706 -25.097 -13.684  0.00  0.00    +0.066 S 
ATOM      3  O   UNL     1      35.399 -25.027 -12.270  0.00  0.00    -0.153 OA
ATOM      4  O   UNL     1      36.008 -26.362 -14.326  0.00  0.00    -0.153 OA
ATOM      5  N   UNL     1      36.946 -23.939 -14.068  0.00  0.00    -0.136 NA
ATOM      6  N   UNL     1      35.853 -23.269 -16.175  0.00  0.00    -0.318 N 
ATOM      7  C   UNL     1      37.076 -23.761 -15.559  0.00  0.00    +0.167 C 
ATOM      8  C   UNL     1      34.348 -24.411 -14.583  0.00  0.00    +0.137 C 
ATOM      9  C   UNL     1      34.588 -23.615 -15.716  0.00  0.00    +0.065 C 
ATOM     10  C   UNL     1      33.057 -24.690 -14.126  0.00  0.00    +0.042 C 
ATOM     11  C   UNL     1      36.907 -22.659 -13.301  0.00  0.00    +0.117 C 
ATOM     12  C   UNL     1      33.463 -23.097 -16.377  0.00  0.00    +0.028 C 
ATOM     13  C   UNL     1      31.964 -24.168 -14.811  0.00  0.00    +0.134 C 
ATOM     14  C   UNL     1      32.165 -23.373 -15.935  0.00  0.00    +0.078 C 
ATOM     15  H   UNL     1      35.924 -22.666 -16.949  0.00  0.00    +0.148 HD
ENDROOT
BRANCH  13  16
ATOM     16  S   UNL     1      30.362 -24.543 -14.210  0.00  0.00    +0.058 S 
ATOM     17  O   UNL     1      29.570 -23.328 -14.380  0.00  0.00    -0.153 OA
ATOM     18  O   UNL     1      29.976 -25.776 -14.887  0.00  0.00    -0.153 OA
BRANCH  16  19
ATOM     19  N   UNL     1      30.462 -24.864 -12.524  0.00  0.00    -0.203 NA
ATOM     20  H   UNL     1      31.431 -25.061 -12.271  0.00  0.00    +0.144 HD
ATOM     21  H   UNL     1      29.881 -25.670 -12.295  0.00  0.00    +0.144 HD
ENDBRANCH  16  19
ENDBRANCH  13  16
BRANCH   7  23
ATOM     22 CL   UNL     1      37.647 -21.339 -16.629  0.00  0.00    -0.110 Cl
ATOM     23  C   UNL     1      38.246 -22.852 -15.924  0.00  0.00    +0.133 C 
ENDBRANCH   7  23
TORSDOF 3
ENDMDL
MODEL 5
REMARK VINA RESULT:      -6.2      3.920      6.032
REMARK  Name = 4121
REMARK  3 active torsions:
REMARK  status: ('A' for Active; 'I' for Inactive)
REMARK    1  A    between atoms: C_7  and  C_23
REMARK    2  A    between atoms: C_13  and  S_16
REMARK    3  A    between atoms: S_16  and  N_19
REMARK                            x       y       z     vdW  Elec       q    Type
REMARK                         _______ _______ _______ _____ _____    ______ ____
ROOT
ATOM      1 CL   UNL     1      36.844 -20.820 -18.585  0.00  0.00    -0.081 Cl
ATOM      2  S   UNL     1      35.019 -25.189 -14.485  0.00  0.00    +0.066 S 
ATOM      3  O   UNL     1      33.596 -25.022 -14.265  0.00  0.00    -0.153 OA
ATOM      4  O   UNL     1      35.562 -26.443 -14.971  0.00  0.00    -0.153 OA
ATOM      5  N   UNL     1      35.890 -24.689 -13.066  0.00  0.00    -0.136 NA
ATOM      6  N   UNL     1      37.645 -23.559 -14.380  0.00  0.00    -0.318 N 
ATOM      7  C   UNL     1      37.362 -24.553 -13.355  0.00  0.00    +0.167 C 
ATOM      8  C   UNL     1      35.553 -23.955 -15.632  0.00  0.00    +0.137 C 
ATOM      9  C   UNL     1      36.795 -23.322 -15.452  0.00  0.00    +0.065 C 
ATOM     10  C   UNL     1      34.705 -23.647 -16.699  0.00  0.00    +0.042 C 
ATOM     11  C   UNL     1      35.307 -23.540 -12.311  0.00  0.00    +0.117 C 
ATOM     12  C   UNL     1      37.152 -22.346 -16.396  0.00  0.00    +0.028 C 
ATOM     13  C   UNL     1      35.094 -22.681 -17.622  0.00  0.00    +0.134 C 
ATOM     14  C   UNL     1      36.316 -22.031 -17.472  0.00  0.00    +0.078 C 
ATOM     15  H   UNL     1      38.473 -23.032 -14.310  0.00  0.00    +0.148 HD
ENDROOT
BRANCH  13  16
ATOM     16  S   UNL     1      34.005 -22.324 -18.948  0.00  0.00    +0.058 S 
ATOM     17  O   UNL     1      34.417 -21.024 -19.472  0.00  0.00    -0.153 OA
ATOM     18  O   UNL     1      34.037 -23.507 -19.800  0.00  0.00    -0.153 OA
BRANCH  16  19
ATOM     19  N   UNL     1      32.412 -22.151 -18.326  0.00  0.00    -0.203 NA
ATOM     20  H   UNL     1      32.348 -22.612 -17.418  0.00  0.00    +0.144 HD
ATOM     21  H   UNL     1      31.747 -22.577 -18.971  0.00  0.00    +0.144 HD
ENDBRANCH  16  19
ENDBRANCH  13  16
BRANCH   7  23
ATOM     22 CL   UNL     1      38.239 -22.494 -11.830  0.00  0.00    -0.110 Cl
ATOM     23  C   UNL     1      38.165 -24.245 -12.094  0.00  0.00    +0.133 C 
ENDBRANCH   7  23
TORSDOF 3
ENDMDL
MODEL 6
REMARK VINA RESULT:      -5.9     13.597     14.711
REMARK  Name = 4121
REMARK  3 active torsions:
REMARK  status: ('A' for Active; 'I' for Inactive)
REMARK    1  A    between atoms: C_7  and  C_23
REMARK    2  A    between atoms: C_13  and  S_16
REMARK    3  A    between atoms: S_16  and  N_19
REMARK                            x       y       z     vdW  Elec       q    Type
REMARK                         _______ _______ _______ _____ _____    ______ ____
ROOT
ATOM      1 CL   UNL     1      32.217 -14.857 -19.957  0.00  0.00    -0.081 Cl
ATOM      2  S   UNL     1      33.632 -11.057 -24.730  0.00  0.00    +0.066 S 
ATOM      3  O   UNL     1      35.065 -11.124 -24.939  0.00  0.00    -0.153 OA
ATOM      4  O   UNL     1      32.702 -11.389 -25.793  0.00  0.00    -0.153 OA
ATOM      5  N   UNL     1      33.214  -9.512 -24.052  0.00  0.00    -0.136 NA
ATOM      6  N   UNL     1      31.584 -10.493 -22.483  0.00  0.00    -0.318 N 
ATOM      7  C   UNL     1      31.798  -9.513 -23.537  0.00  0.00    +0.167 C 
ATOM      8  C   UNL     1      33.217 -12.116 -23.377  0.00  0.00    +0.137 C 
ATOM      9  C   UNL     1      32.239 -11.717 -22.451  0.00  0.00    +0.065 C 
ATOM     10  C   UNL     1      33.889 -13.337 -23.275  0.00  0.00    +0.042 C 
ATOM     11  C   UNL     1      34.208  -8.921 -23.107  0.00  0.00    +0.117 C 
ATOM     12  C   UNL     1      31.964 -12.604 -21.397  0.00  0.00    +0.028 C 
ATOM     13  C   UNL     1      33.586 -14.196 -22.223  0.00  0.00    +0.134 C 
ATOM     14  C   UNL     1      32.625 -13.831 -21.285  0.00  0.00    +0.078 C 
ATOM     15  H   UNL     1      30.948 -10.280 -21.763  0.00  0.00    +0.148 HD
ENDROOT
BRANCH  13  16
ATOM     16  S   UNL     1      34.448 -15.719 -22.132  0.00  0.00    +0.058 S 
ATOM     17  O   UNL     1      35.237 -15.665 -20.903  0.00  0.00    -0.153 OA
ATOM     18  O   UNL     1      33.429 -16.748 -22.310  0.00  0.00    -0.153 OA
BRANCH  16  19
ATOM     19  N   UNL     1      35.547 -15.815 -23.450  0.00  0.00    -0.203 NA
ATOM     20  H   UNL     1      36.423 -15.357 -23.197  0.00  0.00    +0.144 HD
ATOM     21  H   UNL     1      35.144 -15.353 -24.264  0.00  0.00    +0.144 HD
ENDBRANCH  16  19
ENDBRANCH  13  16
BRANCH   7  23
ATOM     22 CL   UNL     1      31.066  -7.069 -24.446  0.00  0.00    -0.110 Cl
ATOM     23  C   UNL     1      31.365  -8.130 -23.059  0.00  0.00    +0.133 C 
ENDBRANCH   7  23
TORSDOF 3
ENDMDL
MODEL 7
REMARK VINA RESULT:      -5.9      5.101      6.797
REMARK  Name = 4121
REMARK  3 active torsions:
REMARK  status: ('A' for Active; 'I' for Inactive)
REMARK    1  A    between atoms: C_7  and  C_23
REMARK    2  A    between atoms: C_13  and  S_16
REMARK    3  A    between atoms: S_16  and  N_19
REMARK                            x       y       z     vdW  Elec       q    Type
REMARK                         _______ _______ _______ _____ _____    ______ ____
ROOT
ATOM      1 CL   UNL     1      37.193 -19.317 -20.549  0.00  0.00    -0.081 Cl
ATOM      2  S   UNL     1      33.410 -23.370 -17.636  0.00  0.00    +0.066 S 
ATOM      3  O   UNL     1      32.119 -22.733 -17.476  0.00  0.00    -0.153 OA
ATOM      4  O   UNL     1      33.545 -24.626 -18.350  0.00  0.00    -0.153 OA
ATOM      5  N   UNL     1      34.194 -23.495 -16.089  0.00  0.00    -0.136 NA
ATOM      6  N   UNL     1      36.397 -22.874 -17.007  0.00  0.00    -0.318 N 
ATOM      7  C   UNL     1      35.647 -23.862 -16.247  0.00  0.00    +0.167 C 
ATOM      8  C   UNL     1      34.494 -22.234 -18.447  0.00  0.00    +0.137 C 
ATOM      9  C   UNL     1      35.841 -22.149 -18.053  0.00  0.00    +0.065 C 
ATOM     10  C   UNL     1      33.964 -21.446 -19.471  0.00  0.00    +0.042 C 
ATOM     11  C   UNL     1      33.949 -22.370 -15.138  0.00  0.00    +0.117 C 
ATOM     12  C   UNL     1      36.643 -21.220 -18.735  0.00  0.00    +0.028 C 
ATOM     13  C   UNL     1      34.789 -20.541 -20.132  0.00  0.00    +0.134 C 
ATOM     14  C   UNL     1      36.127 -20.428 -19.766  0.00  0.00    +0.078 C 
ATOM     15  H   UNL     1      37.338 -22.712 -16.771  0.00  0.00    +0.148 HD
ENDROOT
BRANCH  13  16
ATOM     16  S   UNL     1      34.089 -19.573 -21.413  0.00  0.00    +0.058 S 
ATOM     17  O   UNL     1      34.860 -19.875 -22.617  0.00  0.00    -0.153 OA
ATOM     18  O   UNL     1      32.657 -19.850 -21.366  0.00  0.00    -0.153 OA
BRANCH  16  19
ATOM     19  N   UNL     1      34.328 -17.911 -21.048  0.00  0.00    -0.203 NA
ATOM     20  H   UNL     1      35.244 -17.615 -21.388  0.00  0.00    +0.144 HD
ATOM     21  H   UNL     1      34.280 -17.774 -20.038  0.00  0.00    +0.144 HD
ENDBRANCH  16  19
ENDBRANCH  13  16
BRANCH   7  23
ATOM     22 CL   UNL     1      38.085 -24.058 -15.084  0.00  0.00    -0.110 Cl
ATOM     23  C   UNL     1      36.323 -24.107 -14.901  0.00  0.00    +0.133 C 
ENDBRANCH   7  23
TORSDOF 3
ENDMDL
MODEL 8
REMARK VINA RESULT:      -5.9     12.655     13.781
REMARK  Name = 4121
REMARK  3 active torsions:
REMARK  status: ('A' for Active; 'I' for Inactive)
REMARK    1  A    between atoms: C_7  and  C_23
REMARK    2  A    between atoms: C_13  and  S_16
REMARK    3  A    between atoms: S_16  and  N_19
REMARK                            x       y       z     vdW  Elec       q    Type
REMARK                         _______ _______ _______ _____ _____    ______ ____
ROOT
ATOM      1 CL   UNL     1      34.943 -16.390 -20.748  0.00  0.00    -0.081 Cl
ATOM      2  S   UNL     1      33.186 -13.582 -26.064  0.00  0.00    +0.066 S 
ATOM      3  O   UNL     1      34.056 -14.055 -27.122  0.00  0.00    -0.153 OA
ATOM      4  O   UNL     1      31.747 -13.747 -26.144  0.00  0.00    -0.153 OA
ATOM      5  N   UNL     1      33.562 -11.924 -25.697  0.00  0.00    -0.136 NA
ATOM      6  N   UNL     1      33.345 -12.275 -23.265  0.00  0.00    -0.318 N 
ATOM      7  C   UNL     1      32.906 -11.493 -24.411  0.00  0.00    +0.167 C 
ATOM      8  C   UNL     1      33.677 -14.357 -24.552  0.00  0.00    +0.137 C 
ATOM      9  C   UNL     1      33.669 -13.622 -23.354  0.00  0.00    +0.065 C 
ATOM     10  C   UNL     1      34.061 -15.699 -24.604  0.00  0.00    +0.042 C 
ATOM     11  C   UNL     1      35.001 -11.540 -25.807  0.00  0.00    +0.117 C 
ATOM     12  C   UNL     1      34.078 -14.298 -22.193  0.00  0.00    +0.028 C 
ATOM     13  C   UNL     1      34.452 -16.341 -23.433  0.00  0.00    +0.134 C 
ATOM     14  C   UNL     1      34.460 -15.643 -22.228  0.00  0.00    +0.078 C 
ATOM     15  H   UNL     1      33.415 -11.830 -22.391  0.00  0.00    +0.148 HD
ENDROOT
BRANCH  13  16
ATOM     16  S   UNL     1      34.924 -18.025 -23.536  0.00  0.00    +0.058 S 
ATOM     17  O   UNL     1      34.110 -18.735 -22.553  0.00  0.00    -0.153 OA
ATOM     18  O   UNL     1      34.834 -18.363 -24.952  0.00  0.00    -0.153 OA
BRANCH  16  19
ATOM     19  N   UNL     1      36.567 -18.172 -23.052  0.00  0.00    -0.203 NA
ATOM     20  H   UNL     1      37.108 -18.595 -23.807  0.00  0.00    +0.144 HD
ATOM     21  H   UNL     1      36.626 -18.760 -22.221  0.00  0.00    +0.144 HD
ENDBRANCH  16  19
ENDBRANCH  13  16
BRANCH   7  23
ATOM     22 CL   UNL     1      31.864  -9.409 -23.030  0.00  0.00    -0.110 Cl
ATOM     23  C   UNL     1      33.112 -10.006 -24.138  0.00  0.00    +0.133 C 
ENDBRANCH   7  23
TORSDOF 3
ENDMDL
MODEL 9
REMARK VINA RESULT:      -5.8     10.046     11.661
REMARK  Name = 4121
REMARK  3 active torsions:
REMARK  status: ('A' for Active; 'I' for Inactive)
REMARK    1  A    between atoms: C_7  and  C_23
REMARK    2  A    between atoms: C_13  and  S_16
REMARK    3  A    between atoms: S_16  and  N_19
REMARK                            x       y       z     vdW  Elec       q    Type
REMARK                         _______ _______ _______ _____ _____    ______ ____
ROOT
ATOM      1 CL   UNL     1      33.694 -13.114 -20.797  0.00  0.00    -0.081 Cl
ATOM      2  S   UNL     1      34.917 -18.651 -23.456  0.00  0.00    +0.066 S 
ATOM      3  O   UNL     1      33.828 -18.956 -24.362  0.00  0.00    -0.153 OA
ATOM      4  O   UNL     1      36.287 -18.572 -23.928  0.00  0.00    -0.153 OA
ATOM      5  N   UNL     1      34.837 -19.702 -22.073  0.00  0.00    -0.136 NA
ATOM      6  N   UNL     1      35.402 -17.890 -20.498  0.00  0.00    -0.318 N 
ATOM      7  C   UNL     1      35.749 -19.221 -20.975  0.00  0.00    +0.167 C 
ATOM      8  C   UNL     1      34.581 -17.094 -22.688  0.00  0.00    +0.137 C 
ATOM      9  C   UNL     1      34.887 -16.904 -21.329  0.00  0.00    +0.065 C 
ATOM     10  C   UNL     1      34.013 -16.089 -23.474  0.00  0.00    +0.042 C 
ATOM     11  C   UNL     1      33.466 -20.071 -21.611  0.00  0.00    +0.117 C 
ATOM     12  C   UNL     1      34.587 -15.647 -20.782  0.00  0.00    +0.028 C 
ATOM     13  C   UNL     1      33.737 -14.851 -22.901  0.00  0.00    +0.134 C 
ATOM     14  C   UNL     1      34.023 -14.628 -21.558  0.00  0.00    +0.078 C 
ATOM     15  H   UNL     1      35.539 -17.680 -19.547  0.00  0.00    +0.148 HD
ENDROOT
BRANCH  13  16
ATOM     16  S   UNL     1      33.028 -13.614 -23.920  0.00  0.00    +0.058 S 
ATOM     17  O   UNL     1      32.844 -14.227 -25.234  0.00  0.00    -0.153 OA
ATOM     18  O   UNL     1      31.881 -13.111 -23.173  0.00  0.00    -0.153 OA
BRANCH  16  19
ATOM     19  N   UNL     1      34.157 -12.330 -24.101  0.00  0.00    -0.203 NA
ATOM     20  H   UNL     1      34.320 -11.890 -23.196  0.00  0.00    +0.144 HD
ATOM     21  H   UNL     1      33.786 -11.639 -24.753  0.00  0.00    +0.144 HD
ENDBRANCH  16  19
ENDBRANCH  13  16
BRANCH   7  23
ATOM     22 CL   UNL     1      36.883 -21.547 -20.178  0.00  0.00    -0.110 Cl
ATOM     23  C   UNL     1      35.796 -20.198 -19.804  0.00  0.00    +0.133 C 
ENDBRANCH   7  23
TORSDOF 3
ENDMDL
