MODEL 1
REMARK VINA RESULT:      -9.0      0.000      0.000
REMARK  Name = 9547481
REMARK  10 active torsions:
REMARK  status: ('A' for Active; 'I' for Inactive)
REMARK    1  A    between atoms: C_2  and  C_24
REMARK    2  A    between atoms: C_11  and  C_12
REMARK    3  A    between atoms: C_16  and  O_20
REMARK    4  A    between atoms: C_17  and  O_22
REMARK    5  A    between atoms: C_24  and  C_26
REMARK    6  A    between atoms: C_26  and  C_27
REMARK    7  A    between atoms: C_27  and  C_28
REMARK    8  A    between atoms: C_28  and  C_29
REMARK    9  A    between atoms: C_29  and  C_30
REMARK   10  A    between atoms: C_30  and  O_33
REMARK                            x       y       z     vdW  Elec       q    Type
REMARK                         _______ _______ _______ _____ _____    ______ ____
ROOT
ATOM      1  C   UNL     1      32.084 -10.339 -21.886  0.00  0.00    +0.003 C 
ATOM      2  C   UNL     1      32.960 -11.461 -22.499  0.00  0.00    +0.000 C 
ATOM      3  C   UNL     1      32.953  -9.109 -22.246  0.00  0.00    +0.018 C 
ATOM      4  C   UNL     1      33.432 -10.875 -23.846  0.00  0.00    +0.000 C 
ATOM      5  C   UNL     1      33.327  -9.347 -23.713  0.00  0.00    +0.004 C 
ATOM      6  C   UNL     1      31.924 -10.437 -20.349  0.00  0.00    +0.001 C 
ATOM      7  C   UNL     1      32.311  -7.818 -21.811  0.00  0.00    -0.045 C 
ATOM      8  C   UNL     1      30.678 -10.301 -22.540  0.00  0.00    +0.000 C 
ATOM      9  C   UNL     1      32.088  -9.087 -19.625  0.00  0.00    +0.004 C 
ATOM     10  C   UNL     1      31.648  -7.870 -20.449  0.00  0.00    +0.022 C 
ATOM     11  C   UNL     1      32.313  -6.690 -22.537  0.00  0.00    -0.009 C 
ENDROOT
BRANCH  11  12
ATOM     12  C   UNL     1      31.701  -5.463 -22.092  0.00  0.00    -0.005 C 
ATOM     13  C   UNL     1      31.213  -4.536 -22.931  0.00  0.00    -0.021 C 
ATOM     14  C   UNL     1      30.612  -3.242 -22.432  0.00  0.00    +0.055 C 
ATOM     15  C   UNL     1      31.256  -4.683 -24.386  0.00  0.00    +0.000 C 
ATOM     16  C   UNL     1      31.193  -2.013 -23.141  0.00  0.00    +0.118 C 
ATOM     17  C   UNL     1      31.847  -3.485 -25.105  0.00  0.00    +0.135 C 
ATOM     18  C   UNL     1      31.173  -2.181 -24.661  0.00  0.00    +0.063 C 
ATOM     19  C   UNL     1      30.774  -5.778 -24.999  0.00  0.00    -0.003 C 
BRANCH  16  20
ATOM     20  O   UNL     1      32.537  -1.797 -22.714  0.00  0.00    -0.384 OA
ATOM     21  H   UNL     1      32.648  -0.869 -22.455  0.00  0.00    +0.210 HD
ENDBRANCH  16  20
BRANCH  17  22
ATOM     22  O   UNL     1      31.716  -3.575 -26.521  0.00  0.00    -0.380 OA
ATOM     23  H   UNL     1      30.876  -4.007 -26.742  0.00  0.00    +0.211 HD
ENDBRANCH  17  22
ENDBRANCH  11  12
BRANCH   2  24
ATOM     24  C   UNL     1      32.309 -12.828 -22.643  0.00  0.00    +0.000 C 
ATOM     25  C   UNL     1      32.358 -13.567 -21.306  0.00  0.00    +0.000 C 
BRANCH  24  26
ATOM     26  C   UNL     1      32.999 -13.614 -23.775  0.00  0.00    +0.000 C 
BRANCH  26  27
ATOM     27  C   UNL     1      34.249 -14.406 -23.376  0.00  0.00    +0.000 C 
BRANCH  27  28
ATOM     28  C   UNL     1      34.208 -15.875 -23.809  0.00  0.00    +0.002 C 
BRANCH  28  29
ATOM     29  C   UNL     1      34.564 -16.801 -22.642  0.00  0.00    +0.027 C 
BRANCH  29  30
ATOM     30  C   UNL     1      35.062 -18.205 -23.038  0.00  0.00    +0.088 C 
ATOM     31  C   UNL     1      34.699 -18.563 -24.480  0.00  0.00    +0.029 C 
ATOM     32  C   UNL     1      34.570 -19.294 -22.082  0.00  0.00    +0.029 C 
BRANCH  30  33
ATOM     33  O   UNL     1      36.495 -18.185 -22.971  0.00  0.00    -0.387 OA
ATOM     34  H   UNL     1      36.799 -17.273 -22.843  0.00  0.00    +0.210 HD
ENDBRANCH  30  33
ENDBRANCH  29  30
ENDBRANCH  28  29
ENDBRANCH  27  28
ENDBRANCH  26  27
ENDBRANCH  24  26
ENDBRANCH   2  24
TORSDOF 10
ENDMDL
MODEL 2
REMARK VINA RESULT:      -8.9      3.588      6.464
REMARK  Name = 9547481
REMARK  10 active torsions:
REMARK  status: ('A' for Active; 'I' for Inactive)
REMARK    1  A    between atoms: C_2  and  C_24
REMARK    2  A    between atoms: C_11  and  C_12
REMARK    3  A    between atoms: C_16  and  O_20
REMARK    4  A    between atoms: C_17  and  O_22
REMARK    5  A    between atoms: C_24  and  C_26
REMARK    6  A    between atoms: C_26  and  C_27
REMARK    7  A    between atoms: C_27  and  C_28
REMARK    8  A    between atoms: C_28  and  C_29
REMARK    9  A    between atoms: C_29  and  C_30
REMARK   10  A    between atoms: C_30  and  O_33
REMARK                            x       y       z     vdW  Elec       q    Type
REMARK                         _______ _______ _______ _____ _____    ______ ____
ROOT
ATOM      1  C   UNL     1      34.309 -16.133 -21.481  0.00  0.00    +0.003 C 
ATOM      2  C   UNL     1      35.238 -17.209 -22.097  0.00  0.00    +0.000 C 
ATOM      3  C   UNL     1      34.337 -15.087 -22.622  0.00  0.00    +0.018 C 
ATOM      4  C   UNL     1      34.812 -17.270 -23.579  0.00  0.00    +0.000 C 
ATOM      5  C   UNL     1      34.133 -15.926 -23.888  0.00  0.00    +0.004 C 
ATOM      6  C   UNL     1      34.857 -15.502 -20.178  0.00  0.00    +0.001 C 
ATOM      7  C   UNL     1      33.451 -13.906 -22.326  0.00  0.00    -0.045 C 
ATOM      8  C   UNL     1      32.890 -16.699 -21.211  0.00  0.00    +0.000 C 
ATOM      9  C   UNL     1      34.714 -13.969 -20.127  0.00  0.00    +0.004 C 
ATOM     10  C   UNL     1      33.501 -13.422 -20.891  0.00  0.00    +0.022 C 
ATOM     11  C   UNL     1      32.673 -13.297 -23.234  0.00  0.00    -0.009 C 
ENDROOT
BRANCH  11  12
ATOM     12  C   UNL     1      31.842 -12.159 -22.928  0.00  0.00    -0.005 C 
ATOM     13  C   UNL     1      32.167 -10.900 -23.257  0.00  0.00    -0.021 C 
ATOM     14  C   UNL     1      31.291  -9.724 -22.887  0.00  0.00    +0.055 C 
ATOM     15  C   UNL     1      33.402 -10.558 -23.963  0.00  0.00    +0.000 C 
ATOM     16  C   UNL     1      32.077  -8.598 -22.206  0.00  0.00    +0.118 C 
ATOM     17  C   UNL     1      34.205  -9.459 -23.293  0.00  0.00    +0.135 C 
ATOM     18  C   UNL     1      33.332  -8.232 -22.999  0.00  0.00    +0.063 C 
ATOM     19  C   UNL     1      33.745 -11.158 -25.115  0.00  0.00    -0.003 C 
BRANCH  16  20
ATOM     20  O   UNL     1      32.457  -8.997 -20.891  0.00  0.00    -0.384 OA
ATOM     21  H   UNL     1      33.277  -8.545 -20.640  0.00  0.00    +0.210 HD
ENDBRANCH  16  20
BRANCH  17  22
ATOM     22  O   UNL     1      35.305  -9.021 -24.087  0.00  0.00    -0.380 OA
ATOM     23  H   UNL     1      35.101  -8.156 -24.475  0.00  0.00    +0.211 HD
ENDBRANCH  17  22
ENDBRANCH  11  12
BRANCH   2  24
ATOM     24  C   UNL     1      35.236 -18.574 -21.423  0.00  0.00    +0.000 C 
ATOM     25  C   UNL     1      36.666 -19.105 -21.329  0.00  0.00    +0.000 C 
BRANCH  24  26
ATOM     26  C   UNL     1      34.302 -19.530 -22.191  0.00  0.00    +0.000 C 
BRANCH  26  27
ATOM     27  C   UNL     1      33.159 -20.148 -21.376  0.00  0.00    +0.000 C 
BRANCH  27  28
ATOM     28  C   UNL     1      33.484 -20.304 -19.887  0.00  0.00    +0.002 C 
BRANCH  28  29
ATOM     29  C   UNL     1      32.950 -21.634 -19.346  0.00  0.00    +0.027 C 
BRANCH  29  30
ATOM     30  C   UNL     1      34.015 -22.595 -18.782  0.00  0.00    +0.088 C 
ATOM     31  C   UNL     1      33.647 -23.116 -17.391  0.00  0.00    +0.029 C 
ATOM     32  C   UNL     1      35.414 -21.975 -18.761  0.00  0.00    +0.029 C 
BRANCH  30  33
ATOM     33  O   UNL     1      34.060 -23.739 -19.646  0.00  0.00    -0.387 OA
ATOM     34  H   UNL     1      34.953 -23.831 -20.014  0.00  0.00    +0.210 HD
ENDBRANCH  30  33
ENDBRANCH  29  30
ENDBRANCH  28  29
ENDBRANCH  27  28
ENDBRANCH  26  27
ENDBRANCH  24  26
ENDBRANCH   2  24
TORSDOF 10
ENDMDL
MODEL 3
REMARK VINA RESULT:      -8.9      2.466     10.008
REMARK  Name = 9547481
REMARK  10 active torsions:
REMARK  status: ('A' for Active; 'I' for Inactive)
REMARK    1  A    between atoms: C_2  and  C_24
REMARK    2  A    between atoms: C_11  and  C_12
REMARK    3  A    between atoms: C_16  and  O_20
REMARK    4  A    between atoms: C_17  and  O_22
REMARK    5  A    between atoms: C_24  and  C_26
REMARK    6  A    between atoms: C_26  and  C_27
REMARK    7  A    between atoms: C_27  and  C_28
REMARK    8  A    between atoms: C_28  and  C_29
REMARK    9  A    between atoms: C_29  and  C_30
REMARK   10  A    between atoms: C_30  and  O_33
REMARK                            x       y       z     vdW  Elec       q    Type
REMARK                         _______ _______ _______ _____ _____    ______ ____
ROOT
ATOM      1  C   UNL     1      32.159  -7.470 -22.225  0.00  0.00    +0.003 C 
ATOM      2  C   UNL     1      31.391  -6.523 -23.182  0.00  0.00    +0.000 C 
ATOM      3  C   UNL     1      31.192  -8.679 -22.230  0.00  0.00    +0.018 C 
ATOM      4  C   UNL     1      30.888  -7.453 -24.307  0.00  0.00    +0.000 C 
ATOM      5  C   UNL     1      30.859  -8.871 -23.713  0.00  0.00    +0.004 C 
ATOM      6  C   UNL     1      32.307  -6.921 -20.785  0.00  0.00    +0.001 C 
ATOM      7  C   UNL     1      31.715  -9.822 -21.400  0.00  0.00    -0.045 C 
ATOM      8  C   UNL     1      33.565  -7.814 -22.782  0.00  0.00    +0.000 C 
ATOM      9  C   UNL     1      32.017  -7.969 -19.693  0.00  0.00    +0.004 C 
ATOM     10  C   UNL     1      32.362  -9.410 -20.094  0.00  0.00    +0.022 C 
ATOM     11  C   UNL     1      31.625 -11.114 -21.750  0.00  0.00    -0.009 C 
ENDROOT
BRANCH  11  12
ATOM     12  C   UNL     1      32.123 -12.191 -20.932  0.00  0.00    -0.005 C 
ATOM     13  C   UNL     1      32.875 -13.194 -21.411  0.00  0.00    -0.021 C 
ATOM     14  C   UNL     1      33.350 -14.330 -20.533  0.00  0.00    +0.055 C 
ATOM     15  C   UNL     1      33.264 -13.290 -22.818  0.00  0.00    +0.000 C 
ATOM     16  C   UNL     1      33.055 -15.705 -21.142  0.00  0.00    +0.118 C 
ATOM     17  C   UNL     1      32.962 -14.639 -23.445  0.00  0.00    +0.135 C 
ATOM     18  C   UNL     1      33.522 -15.786 -22.596  0.00  0.00    +0.063 C 
ATOM     19  C   UNL     1      33.864 -12.271 -23.456  0.00  0.00    -0.003 C 
BRANCH  16  20
ATOM     20  O   UNL     1      31.655 -15.970 -21.088  0.00  0.00    -0.384 OA
ATOM     21  H   UNL     1      31.188 -15.178 -20.780  0.00  0.00    +0.210 HD
ENDBRANCH  16  20
BRANCH  17  22
ATOM     22  O   UNL     1      33.507 -14.770 -24.756  0.00  0.00    -0.380 OA
ATOM     23  H   UNL     1      34.476 -14.777 -24.704  0.00  0.00    +0.211 HD
ENDBRANCH  17  22
ENDBRANCH  11  12
BRANCH   2  24
ATOM     24  C   UNL     1      32.159  -5.320 -23.708  0.00  0.00    +0.000 C 
ATOM     25  C   UNL     1      31.477  -4.031 -23.250  0.00  0.00    +0.000 C 
BRANCH  24  26
ATOM     26  C   UNL     1      32.278  -5.409 -25.242  0.00  0.00    +0.000 C 
BRANCH  26  27
ATOM     27  C   UNL     1      33.701  -5.532 -25.798  0.00  0.00    +0.000 C 
BRANCH  27  28
ATOM     28  C   UNL     1      33.918  -4.758 -27.102  0.00  0.00    +0.002 C 
BRANCH  28  29
ATOM     29  C   UNL     1      32.668  -3.955 -27.477  0.00  0.00    +0.027 C 
BRANCH  29  30
ATOM     30  C   UNL     1      32.541  -3.584 -28.968  0.00  0.00    +0.088 C 
ATOM     31  C   UNL     1      31.289  -2.753 -29.254  0.00  0.00    +0.029 C 
ATOM     32  C   UNL     1      32.582  -4.810 -29.883  0.00  0.00    +0.029 C 
BRANCH  30  33
ATOM     33  O   UNL     1      33.665  -2.757 -29.300  0.00  0.00    -0.387 OA
ATOM     34  H   UNL     1      34.285  -3.260 -29.850  0.00  0.00    +0.210 HD
ENDBRANCH  30  33
ENDBRANCH  29  30
ENDBRANCH  28  29
ENDBRANCH  27  28
ENDBRANCH  26  27
ENDBRANCH  24  26
ENDBRANCH   2  24
TORSDOF 10
ENDMDL
MODEL 4
REMARK VINA RESULT:      -8.8      1.922     10.252
REMARK  Name = 9547481
REMARK  10 active torsions:
REMARK  status: ('A' for Active; 'I' for Inactive)
REMARK    1  A    between atoms: C_2  and  C_24
REMARK    2  A    between atoms: C_11  and  C_12
REMARK    3  A    between atoms: C_16  and  O_20
REMARK    4  A    between atoms: C_17  and  O_22
REMARK    5  A    between atoms: C_24  and  C_26
REMARK    6  A    between atoms: C_26  and  C_27
REMARK    7  A    between atoms: C_27  and  C_28
REMARK    8  A    between atoms: C_28  and  C_29
REMARK    9  A    between atoms: C_29  and  C_30
REMARK   10  A    between atoms: C_30  and  O_33
REMARK                            x       y       z     vdW  Elec       q    Type
REMARK                         _______ _______ _______ _____ _____    ______ ____
ROOT
ATOM      1  C   UNL     1      32.858  -8.335 -23.154  0.00  0.00    +0.003 C 
ATOM      2  C   UNL     1      32.707  -7.255 -22.053  0.00  0.00    +0.000 C 
ATOM      3  C   UNL     1      33.098  -9.578 -22.261  0.00  0.00    +0.018 C 
ATOM      4  C   UNL     1      31.853  -7.941 -20.966  0.00  0.00    +0.000 C 
ATOM      5  C   UNL     1      32.028  -9.455 -21.172  0.00  0.00    +0.004 C 
ATOM      6  C   UNL     1      34.073  -8.116 -24.086  0.00  0.00    +0.001 C 
ATOM      7  C   UNL     1      33.232 -10.838 -23.075  0.00  0.00    -0.045 C 
ATOM      8  C   UNL     1      31.572  -8.445 -24.015  0.00  0.00    +0.000 C 
ATOM      9  C   UNL     1      34.878  -9.401 -24.364  0.00  0.00    +0.004 C 
ATOM     10  C   UNL     1      34.040 -10.686 -24.348  0.00  0.00    +0.022 C 
ATOM     11  C   UNL     1      32.702 -12.021 -22.730  0.00  0.00    -0.009 C 
ENDROOT
BRANCH  11  12
ATOM     12  C   UNL     1      32.855 -13.217 -23.521  0.00  0.00    -0.005 C 
ATOM     13  C   UNL     1      33.172 -14.411 -22.998  0.00  0.00    -0.021 C 
ATOM     14  C   UNL     1      33.363 -15.638 -23.861  0.00  0.00    +0.055 C 
ATOM     15  C   UNL     1      33.395 -14.616 -21.566  0.00  0.00    +0.000 C 
ATOM     16  C   UNL     1      34.675 -16.371 -23.558  0.00  0.00    +0.118 C 
ATOM     17  C   UNL     1      34.699 -15.322 -21.245  0.00  0.00    +0.135 C 
ATOM     18  C   UNL     1      34.848 -16.614 -22.058  0.00  0.00    +0.063 C 
ATOM     19  C   UNL     1      32.490 -14.233 -20.650  0.00  0.00    -0.003 C 
BRANCH  16  20
ATOM     20  O   UNL     1      35.780 -15.606 -24.036  0.00  0.00    -0.384 OA
ATOM     21  H   UNL     1      36.065 -15.953 -24.896  0.00  0.00    +0.210 HD
ENDBRANCH  16  20
BRANCH  17  22
ATOM     22  O   UNL     1      34.811 -15.668 -19.866  0.00  0.00    -0.380 OA
ATOM     23  H   UNL     1      34.773 -16.632 -19.770  0.00  0.00    +0.211 HD
ENDBRANCH  17  22
ENDBRANCH  11  12
BRANCH   2  24
ATOM     24  C   UNL     1      32.141  -5.912 -22.492  0.00  0.00    +0.000 C 
ATOM     25  C   UNL     1      30.779  -5.688 -21.836  0.00  0.00    +0.000 C 
BRANCH  24  26
ATOM     26  C   UNL     1      32.070  -5.858 -24.030  0.00  0.00    +0.000 C 
BRANCH  26  27
ATOM     27  C   UNL     1      31.253  -4.703 -24.623  0.00  0.00    +0.000 C 
BRANCH  27  28
ATOM     28  C   UNL     1      31.921  -4.037 -25.830  0.00  0.00    +0.002 C 
BRANCH  28  29
ATOM     29  C   UNL     1      33.189  -4.792 -26.241  0.00  0.00    +0.027 C 
BRANCH  29  30
ATOM     30  C   UNL     1      33.977  -4.175 -27.415  0.00  0.00    +0.088 C 
ATOM     31  C   UNL     1      33.269  -4.376 -28.756  0.00  0.00    +0.029 C 
ATOM     32  C   UNL     1      35.414  -4.693 -27.492  0.00  0.00    +0.029 C 
BRANCH  30  33
ATOM     33  O   UNL     1      34.036  -2.760 -27.192  0.00  0.00    -0.387 OA
ATOM     34  H   UNL     1      33.890  -2.295 -28.030  0.00  0.00    +0.210 HD
ENDBRANCH  30  33
ENDBRANCH  29  30
ENDBRANCH  28  29
ENDBRANCH  27  28
ENDBRANCH  26  27
ENDBRANCH  24  26
ENDBRANCH   2  24
TORSDOF 10
ENDMDL
MODEL 5
REMARK VINA RESULT:      -8.5      1.936      4.300
REMARK  Name = 9547481
REMARK  10 active torsions:
REMARK  status: ('A' for Active; 'I' for Inactive)
REMARK    1  A    between atoms: C_2  and  C_24
REMARK    2  A    between atoms: C_11  and  C_12
REMARK    3  A    between atoms: C_16  and  O_20
REMARK    4  A    between atoms: C_17  and  O_22
REMARK    5  A    between atoms: C_24  and  C_26
REMARK    6  A    between atoms: C_26  and  C_27
REMARK    7  A    between atoms: C_27  and  C_28
REMARK    8  A    between atoms: C_28  and  C_29
REMARK    9  A    between atoms: C_29  and  C_30
REMARK   10  A    between atoms: C_30  and  O_33
REMARK                            x       y       z     vdW  Elec       q    Type
REMARK                         _______ _______ _______ _____ _____    ______ ____
ROOT
ATOM      1  C   UNL     1      33.355 -13.899 -22.694  0.00  0.00    +0.003 C 
ATOM      2  C   UNL     1      32.624 -14.912 -21.777  0.00  0.00    +0.000 C 
ATOM      3  C   UNL     1      32.355 -12.719 -22.620  0.00  0.00    +0.018 C 
ATOM      4  C   UNL     1      32.109 -14.053 -20.603  0.00  0.00    +0.000 C 
ATOM      5  C   UNL     1      32.035 -12.609 -21.126  0.00  0.00    +0.004 C 
ATOM      6  C   UNL     1      33.500 -14.372 -24.161  0.00  0.00    +0.001 C 
ATOM      7  C   UNL     1      32.836 -11.522 -23.397  0.00  0.00    -0.045 C 
ATOM      8  C   UNL     1      34.758 -13.542 -22.136  0.00  0.00    +0.000 C 
ATOM      9  C   UNL     1      33.169 -13.279 -25.197  0.00  0.00    +0.004 C 
ATOM     10  C   UNL     1      33.479 -11.851 -24.730  0.00  0.00    +0.022 C 
ATOM     11  C   UNL     1      32.715 -10.252 -22.983  0.00  0.00    -0.009 C 
ENDROOT
BRANCH  11  12
ATOM     12  C   UNL     1      33.174  -9.122 -23.753  0.00  0.00    -0.005 C 
ATOM     13  C   UNL     1      33.081  -7.853 -23.325  0.00  0.00    -0.021 C 
ATOM     14  C   UNL     1      33.537  -6.688 -24.174  0.00  0.00    +0.055 C 
ATOM     15  C   UNL     1      32.503  -7.493 -22.031  0.00  0.00    +0.000 C 
ATOM     16  C   UNL     1      32.475  -5.588 -24.279  0.00  0.00    +0.118 C 
ATOM     17  C   UNL     1      31.434  -6.419 -22.117  0.00  0.00    +0.135 C 
ATOM     18  C   UNL     1      31.931  -5.200 -22.904  0.00  0.00    +0.063 C 
ATOM     19  C   UNL     1      32.927  -8.055 -20.887  0.00  0.00    -0.003 C 
BRANCH  16  20
ATOM     20  O   UNL     1      31.395  -6.032 -25.098  0.00  0.00    -0.384 OA
ATOM     21  H   UNL     1      30.575  -5.599 -24.815  0.00  0.00    +0.210 HD
ENDBRANCH  16  20
BRANCH  17  22
ATOM     22  O   UNL     1      31.014  -5.959 -20.835  0.00  0.00    -0.380 OA
ATOM     23  H   UNL     1      30.067  -6.134 -20.722  0.00  0.00    +0.211 HD
ENDBRANCH  17  22
ENDBRANCH  11  12
BRANCH   2  24
ATOM     24  C   UNL     1      33.432 -16.118 -21.320  0.00  0.00    +0.000 C 
ATOM     25  C   UNL     1      34.604 -15.656 -20.454  0.00  0.00    +0.000 C 
BRANCH  24  26
ATOM     26  C   UNL     1      33.891 -16.931 -22.546  0.00  0.00    +0.000 C 
BRANCH  26  27
ATOM     27  C   UNL     1      35.406 -17.002 -22.774  0.00  0.00    +0.000 C 
BRANCH  27  28
ATOM     28  C   UNL     1      35.957 -18.431 -22.779  0.00  0.00    +0.002 C 
BRANCH  28  29
ATOM     29  C   UNL     1      34.860 -19.444 -22.437  0.00  0.00    +0.027 C 
BRANCH  29  30
ATOM     30  C   UNL     1      34.841 -19.933 -20.975  0.00  0.00    +0.088 C 
ATOM     31  C   UNL     1      35.556 -21.275 -20.804  0.00  0.00    +0.029 C 
ATOM     32  C   UNL     1      33.426 -20.011 -20.400  0.00  0.00    +0.029 C 
BRANCH  30  33
ATOM     33  O   UNL     1      35.575 -18.978 -20.195  0.00  0.00    -0.387 OA
ATOM     34  H   UNL     1      35.507 -18.104 -20.608  0.00  0.00    +0.210 HD
ENDBRANCH  30  33
ENDBRANCH  29  30
ENDBRANCH  28  29
ENDBRANCH  27  28
ENDBRANCH  26  27
ENDBRANCH  24  26
ENDBRANCH   2  24
TORSDOF 10
ENDMDL
MODEL 6
REMARK VINA RESULT:      -8.4      7.059     14.918
REMARK  Name = 9547481
REMARK  10 active torsions:
REMARK  status: ('A' for Active; 'I' for Inactive)
REMARK    1  A    between atoms: C_2  and  C_24
REMARK    2  A    between atoms: C_11  and  C_12
REMARK    3  A    between atoms: C_16  and  O_20
REMARK    4  A    between atoms: C_17  and  O_22
REMARK    5  A    between atoms: C_24  and  C_26
REMARK    6  A    between atoms: C_26  and  C_27
REMARK    7  A    between atoms: C_27  and  C_28
REMARK    8  A    between atoms: C_28  and  C_29
REMARK    9  A    between atoms: C_29  and  C_30
REMARK   10  A    between atoms: C_30  and  O_33
REMARK                            x       y       z     vdW  Elec       q    Type
REMARK                         _______ _______ _______ _____ _____    ______ ____
ROOT
ATOM      1  C   UNL     1      35.352 -20.949 -20.157  0.00  0.00    +0.003 C 
ATOM      2  C   UNL     1      35.026 -19.708 -21.025  0.00  0.00    +0.000 C 
ATOM      3  C   UNL     1      34.164 -20.887 -19.166  0.00  0.00    +0.018 C 
ATOM      4  C   UNL     1      33.497 -19.777 -21.223  0.00  0.00    +0.000 C 
ATOM      5  C   UNL     1      32.952 -20.633 -20.068  0.00  0.00    +0.004 C 
ATOM      6  C   UNL     1      36.688 -20.841 -19.383  0.00  0.00    +0.001 C 
ATOM      7  C   UNL     1      34.178 -22.039 -18.196  0.00  0.00    -0.045 C 
ATOM      8  C   UNL     1      35.364 -22.245 -21.009  0.00  0.00    +0.000 C 
ATOM      9  C   UNL     1      36.589 -21.302 -17.916  0.00  0.00    +0.004 C 
ATOM     10  C   UNL     1      35.551 -22.404 -17.669  0.00  0.00    +0.022 C 
ATOM     11  C   UNL     1      33.085 -22.707 -17.799  0.00  0.00    -0.009 C 
ENDROOT
BRANCH  11  12
ATOM     12  C   UNL     1      33.124 -23.801 -16.859  0.00  0.00    -0.005 C 
ATOM     13  C   UNL     1      32.152 -24.038 -15.965  0.00  0.00    -0.021 C 
ATOM     14  C   UNL     1      32.242 -25.171 -14.967  0.00  0.00    +0.055 C 
ATOM     15  C   UNL     1      30.954 -23.207 -15.856  0.00  0.00    +0.000 C 
ATOM     16  C   UNL     1      31.960 -24.713 -13.532  0.00  0.00    +0.118 C 
ATOM     17  C   UNL     1      30.668 -22.726 -14.446  0.00  0.00    +0.135 C 
ATOM     18  C   UNL     1      30.673 -23.891 -13.448  0.00  0.00    +0.063 C 
ATOM     19  C   UNL     1      30.180 -22.942 -16.923  0.00  0.00    -0.003 C 
BRANCH  16  20
ATOM     20  O   UNL     1      33.047 -23.924 -13.051  0.00  0.00    -0.384 OA
ATOM     21  H   UNL     1      33.506 -24.403 -12.344  0.00  0.00    +0.210 HD
ENDBRANCH  16  20
BRANCH  17  22
ATOM     22  O   UNL     1      29.407 -22.071 -14.333  0.00  0.00    -0.380 OA
ATOM     23  H   UNL     1      28.696 -22.728 -14.376  0.00  0.00    +0.211 HD
ENDBRANCH  17  22
ENDBRANCH  11  12
BRANCH   2  24
ATOM     24  C   UNL     1      35.788 -19.577 -22.336  0.00  0.00    +0.000 C 
ATOM     25  C   UNL     1      36.961 -18.614 -22.158  0.00  0.00    +0.000 C 
BRANCH  24  26
ATOM     26  C   UNL     1      34.825 -19.131 -23.453  0.00  0.00    +0.000 C 
BRANCH  26  27
ATOM     27  C   UNL     1      35.145 -17.787 -24.117  0.00  0.00    +0.000 C 
BRANCH  27  28
ATOM     28  C   UNL     1      34.185 -16.662 -23.716  0.00  0.00    +0.002 C 
BRANCH  28  29
ATOM     29  C   UNL     1      34.869 -15.667 -22.775  0.00  0.00    +0.027 C 
BRANCH  29  30
ATOM     30  C   UNL     1      34.000 -15.151 -21.610  0.00  0.00    +0.088 C 
ATOM     31  C   UNL     1      33.109 -16.247 -21.023  0.00  0.00    +0.029 C 
ATOM     32  C   UNL     1      33.155 -13.936 -22.001  0.00  0.00    +0.029 C 
BRANCH  30  33
ATOM     33  O   UNL     1      34.888 -14.742 -20.562  0.00  0.00    -0.387 OA
ATOM     34  H   UNL     1      35.236 -15.526 -20.109  0.00  0.00    +0.210 HD
ENDBRANCH  30  33
ENDBRANCH  29  30
ENDBRANCH  28  29
ENDBRANCH  27  28
ENDBRANCH  26  27
ENDBRANCH  24  26
ENDBRANCH   2  24
TORSDOF 10
ENDMDL
MODEL 7
REMARK VINA RESULT:      -8.4      2.663      5.415
REMARK  Name = 9547481
REMARK  10 active torsions:
REMARK  status: ('A' for Active; 'I' for Inactive)
REMARK    1  A    between atoms: C_2  and  C_24
REMARK    2  A    between atoms: C_11  and  C_12
REMARK    3  A    between atoms: C_16  and  O_20
REMARK    4  A    between atoms: C_17  and  O_22
REMARK    5  A    between atoms: C_24  and  C_26
REMARK    6  A    between atoms: C_26  and  C_27
REMARK    7  A    between atoms: C_27  and  C_28
REMARK    8  A    between atoms: C_28  and  C_29
REMARK    9  A    between atoms: C_29  and  C_30
REMARK   10  A    between atoms: C_30  and  O_33
REMARK                            x       y       z     vdW  Elec       q    Type
REMARK                         _______ _______ _______ _____ _____    ______ ____
ROOT
ATOM      1  C   UNL     1      33.527 -14.583 -22.500  0.00  0.00    +0.003 C 
ATOM      2  C   UNL     1      32.869 -15.621 -21.557  0.00  0.00    +0.000 C 
ATOM      3  C   UNL     1      32.475 -13.451 -22.409  0.00  0.00    +0.018 C 
ATOM      4  C   UNL     1      32.344 -14.776 -20.377  0.00  0.00    +0.000 C 
ATOM      5  C   UNL     1      32.188 -13.342 -20.909  0.00  0.00    +0.004 C 
ATOM      6  C   UNL     1      33.657 -15.063 -23.967  0.00  0.00    +0.001 C 
ATOM      7  C   UNL     1      32.880 -12.240 -23.209  0.00  0.00    -0.045 C 
ATOM      8  C   UNL     1      34.925 -14.156 -21.981  0.00  0.00    +0.000 C 
ATOM      9  C   UNL     1      33.249 -13.997 -25.002  0.00  0.00    +0.004 C 
ATOM     10  C   UNL     1      33.503 -12.552 -24.555  0.00  0.00    +0.022 C 
ATOM     11  C   UNL     1      32.709 -10.973 -22.802  0.00  0.00    -0.009 C 
ENDROOT
BRANCH  11  12
ATOM     12  C   UNL     1      33.095  -9.831 -23.593  0.00  0.00    -0.005 C 
ATOM     13  C   UNL     1      33.012  -8.567 -23.149  0.00  0.00    -0.021 C 
ATOM     14  C   UNL     1      33.388  -7.388 -24.019  0.00  0.00    +0.055 C 
ATOM     15  C   UNL     1      32.521  -8.225 -21.815  0.00  0.00    +0.000 C 
ATOM     16  C   UNL     1      32.304  -6.304 -24.039  0.00  0.00    +0.118 C 
ATOM     17  C   UNL     1      31.431  -7.168 -21.816  0.00  0.00    +0.135 C 
ATOM     18  C   UNL     1      31.852  -5.935 -22.626  0.00  0.00    +0.063 C 
ATOM     19  C   UNL     1      33.033  -8.789 -20.708  0.00  0.00    -0.003 C 
BRANCH  16  20
ATOM     20  O   UNL     1      31.176  -6.761 -24.784  0.00  0.00    -0.384 OA
ATOM     21  H   UNL     1      30.388  -6.264 -24.514  0.00  0.00    +0.210 HD
ENDBRANCH  16  20
BRANCH  17  22
ATOM     22  O   UNL     1      31.095  -6.725 -20.504  0.00  0.00    -0.380 OA
ATOM     23  H   UNL     1      30.858  -7.488 -19.955  0.00  0.00    +0.211 HD
ENDBRANCH  17  22
ENDBRANCH  11  12
BRANCH   2  24
ATOM     24  C   UNL     1      33.743 -16.784 -21.110  0.00  0.00    +0.000 C 
ATOM     25  C   UNL     1      34.822 -17.051 -22.160  0.00  0.00    +0.000 C 
BRANCH  24  26
ATOM     26  C   UNL     1      32.864 -18.020 -20.841  0.00  0.00    +0.000 C 
BRANCH  26  27
ATOM     27  C   UNL     1      33.419 -19.358 -21.344  0.00  0.00    +0.000 C 
BRANCH  27  28
ATOM     28  C   UNL     1      34.142 -20.166 -20.262  0.00  0.00    +0.002 C 
BRANCH  28  29
ATOM     29  C   UNL     1      33.243 -21.278 -19.714  0.00  0.00    +0.027 C 
BRANCH  29  30
ATOM     30  C   UNL     1      33.966 -22.385 -18.921  0.00  0.00    +0.088 C 
ATOM     31  C   UNL     1      33.192 -22.799 -17.668  0.00  0.00    +0.029 C 
ATOM     32  C   UNL     1      35.401 -22.002 -18.553  0.00  0.00    +0.029 C 
BRANCH  30  33
ATOM     33  O   UNL     1      34.029 -23.544 -19.763  0.00  0.00    -0.387 OA
ATOM     34  H   UNL     1      34.206 -23.270 -20.676  0.00  0.00    +0.210 HD
ENDBRANCH  30  33
ENDBRANCH  29  30
ENDBRANCH  28  29
ENDBRANCH  27  28
ENDBRANCH  26  27
ENDBRANCH  24  26
ENDBRANCH   2  24
TORSDOF 10
ENDMDL
MODEL 8
REMARK VINA RESULT:      -8.1      3.213     12.510
REMARK  Name = 9547481
REMARK  10 active torsions:
REMARK  status: ('A' for Active; 'I' for Inactive)
REMARK    1  A    between atoms: C_2  and  C_24
REMARK    2  A    between atoms: C_11  and  C_12
REMARK    3  A    between atoms: C_16  and  O_20
REMARK    4  A    between atoms: C_17  and  O_22
REMARK    5  A    between atoms: C_24  and  C_26
REMARK    6  A    between atoms: C_26  and  C_27
REMARK    7  A    between atoms: C_27  and  C_28
REMARK    8  A    between atoms: C_28  and  C_29
REMARK    9  A    between atoms: C_29  and  C_30
REMARK   10  A    between atoms: C_30  and  O_33
REMARK                            x       y       z     vdW  Elec       q    Type
REMARK                         _______ _______ _______ _____ _____    ______ ____
ROOT
ATOM      1  C   UNL     1      33.834 -15.585 -22.470  0.00  0.00    +0.003 C 
ATOM      2  C   UNL     1      33.735 -14.080 -22.114  0.00  0.00    +0.000 C 
ATOM      3  C   UNL     1      35.065 -15.970 -21.613  0.00  0.00    +0.018 C 
ATOM      4  C   UNL     1      34.005 -14.034 -20.595  0.00  0.00    +0.000 C 
ATOM      5  C   UNL     1      34.781 -15.317 -20.256  0.00  0.00    +0.004 C 
ATOM      6  C   UNL     1      34.130 -15.858 -23.964  0.00  0.00    +0.001 C 
ATOM      7  C   UNL     1      35.385 -17.438 -21.713  0.00  0.00    -0.045 C 
ATOM      8  C   UNL     1      32.547 -16.348 -22.060  0.00  0.00    +0.000 C 
ATOM      9  C   UNL     1      35.204 -16.939 -24.194  0.00  0.00    +0.004 C 
ATOM     10  C   UNL     1      35.255 -18.020 -23.106  0.00  0.00    +0.022 C 
ATOM     11  C   UNL     1      35.767 -18.202 -20.678  0.00  0.00    -0.009 C 
ENDROOT
BRANCH  11  12
ATOM     12  C   UNL     1      36.079 -19.604 -20.803  0.00  0.00    -0.005 C 
ATOM     13  C   UNL     1      35.180 -20.579 -20.603  0.00  0.00    -0.021 C 
ATOM     14  C   UNL     1      35.550 -22.042 -20.704  0.00  0.00    +0.055 C 
ATOM     15  C   UNL     1      33.789 -20.313 -20.238  0.00  0.00    +0.000 C 
ATOM     16  C   UNL     1      35.085 -22.851 -19.487  0.00  0.00    +0.118 C 
ATOM     17  C   UNL     1      33.316 -21.089 -19.023  0.00  0.00    +0.135 C 
ATOM     18  C   UNL     1      33.613 -22.586 -19.168  0.00  0.00    +0.063 C 
ATOM     19  C   UNL     1      33.018 -19.478 -20.956  0.00  0.00    -0.003 C 
BRANCH  16  20
ATOM     20  O   UNL     1      35.876 -22.514 -18.349  0.00  0.00    -0.384 OA
ATOM     21  H   UNL     1      35.648 -23.101 -17.612  0.00  0.00    +0.210 HD
ENDBRANCH  16  20
BRANCH  17  22
ATOM     22  O   UNL     1      31.915 -20.950 -18.794  0.00  0.00    -0.380 OA
ATOM     23  H   UNL     1      31.454 -20.870 -19.643  0.00  0.00    +0.211 HD
ENDBRANCH  17  22
ENDBRANCH  11  12
BRANCH   2  24
ATOM     24  C   UNL     1      32.446 -13.373 -22.508  0.00  0.00    +0.000 C 
ATOM     25  C   UNL     1      32.721 -12.401 -23.655  0.00  0.00    +0.000 C 
BRANCH  24  26
ATOM     26  C   UNL     1      31.841 -12.674 -21.276  0.00  0.00    +0.000 C 
BRANCH  26  27
ATOM     27  C   UNL     1      31.033 -11.401 -21.557  0.00  0.00    +0.000 C 
BRANCH  27  28
ATOM     28  C   UNL     1      31.589 -10.157 -20.857  0.00  0.00    +0.002 C 
BRANCH  28  29
ATOM     29  C   UNL     1      31.695  -8.980 -21.832  0.00  0.00    +0.027 C 
BRANCH  29  30
ATOM     30  C   UNL     1      32.598  -7.818 -21.372  0.00  0.00    +0.088 C 
ATOM     31  C   UNL     1      31.824  -6.507 -21.225  0.00  0.00    +0.029 C 
ATOM     32  C   UNL     1      33.809  -7.619 -22.286  0.00  0.00    +0.029 C 
BRANCH  30  33
ATOM     33  O   UNL     1      33.090  -8.150 -20.066  0.00  0.00    -0.387 OA
ATOM     34  H   UNL     1      32.800  -9.044 -19.829  0.00  0.00    +0.210 HD
ENDBRANCH  30  33
ENDBRANCH  29  30
ENDBRANCH  28  29
ENDBRANCH  27  28
ENDBRANCH  26  27
ENDBRANCH  24  26
ENDBRANCH   2  24
TORSDOF 10
ENDMDL
MODEL 9
REMARK VINA RESULT:      -8.0      7.356     14.840
REMARK  Name = 9547481
REMARK  10 active torsions:
REMARK  status: ('A' for Active; 'I' for Inactive)
REMARK    1  A    between atoms: C_2  and  C_24
REMARK    2  A    between atoms: C_11  and  C_12
REMARK    3  A    between atoms: C_16  and  O_20
REMARK    4  A    between atoms: C_17  and  O_22
REMARK    5  A    between atoms: C_24  and  C_26
REMARK    6  A    between atoms: C_26  and  C_27
REMARK    7  A    between atoms: C_27  and  C_28
REMARK    8  A    between atoms: C_28  and  C_29
REMARK    9  A    between atoms: C_29  and  C_30
REMARK   10  A    between atoms: C_30  and  O_33
REMARK                            x       y       z     vdW  Elec       q    Type
REMARK                         _______ _______ _______ _____ _____    ______ ____
ROOT
ATOM      1  C   UNL     1      35.520 -20.424 -20.666  0.00  0.00    +0.003 C 
ATOM      2  C   UNL     1      34.787 -19.342 -21.499  0.00  0.00    +0.000 C 
ATOM      3  C   UNL     1      34.508 -20.579 -19.503  0.00  0.00    +0.018 C 
ATOM      4  C   UNL     1      33.306 -19.772 -21.456  0.00  0.00    +0.000 C 
ATOM      5  C   UNL     1      33.152 -20.663 -20.211  0.00  0.00    +0.004 C 
ATOM      6  C   UNL     1      36.890 -19.966 -20.111  0.00  0.00    +0.001 C 
ATOM      7  C   UNL     1      34.935 -21.639 -18.523  0.00  0.00    -0.045 C 
ATOM      8  C   UNL     1      35.713 -21.729 -21.481  0.00  0.00    +0.000 C 
ATOM      9  C   UNL     1      37.119 -20.353 -18.637  0.00  0.00    +0.004 C 
ATOM     10  C   UNL     1      36.417 -21.648 -18.207  0.00  0.00    +0.022 C 
ATOM     11  C   UNL     1      34.100 -22.517 -17.946  0.00  0.00    -0.009 C 
ENDROOT
BRANCH  11  12
ATOM     12  C   UNL     1      34.533 -23.516 -17.000  0.00  0.00    -0.005 C 
ATOM     13  C   UNL     1      33.780 -23.929 -15.969  0.00  0.00    -0.021 C 
ATOM     14  C   UNL     1      34.279 -24.951 -14.973  0.00  0.00    +0.055 C 
ATOM     15  C   UNL     1      32.441 -23.404 -15.705  0.00  0.00    +0.000 C 
ATOM     16  C   UNL     1      34.091 -24.496 -13.521  0.00  0.00    +0.118 C 
ATOM     17  C   UNL     1      32.242 -22.928 -14.277  0.00  0.00    +0.135 C 
ATOM     18  C   UNL     1      32.666 -24.002 -13.268  0.00  0.00    +0.063 C 
ATOM     19  C   UNL     1      31.488 -23.390 -16.652  0.00  0.00    -0.003 C 
BRANCH  16  20
ATOM     20  O   UNL     1      35.008 -23.445 -13.219  0.00  0.00    -0.384 OA
ATOM     21  H   UNL     1      34.665 -22.607 -13.567  0.00  0.00    +0.210 HD
ENDBRANCH  16  20
BRANCH  17  22
ATOM     22  O   UNL     1      30.886 -22.588 -13.996  0.00  0.00    -0.380 OA
ATOM     23  H   UNL     1      30.361 -22.649 -14.810  0.00  0.00    +0.211 HD
ENDBRANCH  17  22
ENDBRANCH  11  12
BRANCH   2  24
ATOM     24  C   UNL     1      35.297 -19.116 -22.915  0.00  0.00    +0.000 C 
ATOM     25  C   UNL     1      36.661 -18.427 -22.869  0.00  0.00    +0.000 C 
BRANCH  24  26
ATOM     26  C   UNL     1      34.257 -18.311 -23.718  0.00  0.00    +0.000 C 
BRANCH  26  27
ATOM     27  C   UNL     1      34.764 -17.013 -24.358  0.00  0.00    +0.000 C 
BRANCH  27  28
ATOM     28  C   UNL     1      34.833 -15.835 -23.381  0.00  0.00    +0.002 C 
BRANCH  28  29
ATOM     29  C   UNL     1      33.442 -15.484 -22.845  0.00  0.00    +0.027 C 
BRANCH  29  30
ATOM     30  C   UNL     1      33.326 -15.389 -21.311  0.00  0.00    +0.088 C 
ATOM     31  C   UNL     1      32.810 -14.024 -20.852  0.00  0.00    +0.029 C 
ATOM     32  C   UNL     1      34.641 -15.722 -20.602  0.00  0.00    +0.029 C 
BRANCH  30  33
ATOM     33  O   UNL     1      32.352 -16.355 -20.895  0.00  0.00    -0.387 OA
ATOM     34  H   UNL     1      32.535 -16.627 -19.982  0.00  0.00    +0.210 HD
ENDBRANCH  30  33
ENDBRANCH  29  30
ENDBRANCH  28  29
ENDBRANCH  27  28
ENDBRANCH  26  27
ENDBRANCH  24  26
ENDBRANCH   2  24
TORSDOF 10
ENDMDL
