MODEL 1
REMARK VINA RESULT:      -9.0      0.000      0.000
REMARK  Name = 58266779
REMARK  4 active torsions:
REMARK  status: ('A' for Active; 'I' for Inactive)
REMARK    1  A    between atoms: C_4  and  O_17
REMARK    2  A    between atoms: C_8  and  C_16
REMARK    3  A    between atoms: O_17  and  C_19
REMARK    4  A    between atoms: N_18  and  C_25
REMARK                            x       y       z     vdW  Elec       q    Type
REMARK                         _______ _______ _______ _____ _____    ______ ____
ROOT
ATOM      1  N   UNL     1      36.899 -20.930 -18.493  0.00  0.00    -0.337 N 
ATOM      2  N   UNL     1      37.702 -22.969 -15.525  0.00  0.00    -0.229 NA
ATOM      3  N   UNL     1      35.343 -20.260 -20.201  0.00  0.00    -0.227 NA
ATOM      4  C   UNL     1      35.443 -23.351 -16.339  0.00  0.00    +0.167 C 
ATOM      5  C   UNL     1      35.672 -22.416 -17.360  0.00  0.00    +0.056 A 
ATOM      6  C   UNL     1      36.920 -21.790 -17.421  0.00  0.00    +0.080 A 
ATOM      7  C   UNL     1      34.890 -21.901 -18.436  0.00  0.00    +0.038 A 
ATOM      8  C   UNL     1      36.496 -23.577 -15.463  0.00  0.00    +0.183 C 
ATOM      9  C   UNL     1      35.683 -20.983 -19.118  0.00  0.00    +0.141 A 
ATOM     10  C   UNL     1      37.929 -22.067 -16.508  0.00  0.00    +0.117 C 
ATOM     11  C   UNL     1      33.586 -22.108 -18.921  0.00  0.00    +0.005 C 
ATOM     12  C   UNL     1      33.182 -21.385 -20.041  0.00  0.00    +0.021 C 
ATOM     13  C   UNL     1      34.080 -20.499 -20.622  0.00  0.00    +0.101 C 
ATOM     14  H   UNL     1      37.651 -20.358 -18.772  0.00  0.00    +0.167 HD
ENDROOT
BRANCH   8  16
ATOM     15  N   UNL     1      36.287 -25.261 -13.507  0.00  0.00    -0.189 NA
ATOM     16  C   UNL     1      36.380 -24.507 -14.384  0.00  0.00    +0.123 C 
ENDBRANCH   8  16
BRANCH   4  17
ATOM     17  O   UNL     1      34.246 -24.006 -16.213  0.00  0.00    -0.477 OA
BRANCH  17  19
ATOM     18  N   UNL     1      30.548 -23.387 -14.245  0.00  0.00    +0.387 N 
ATOM     19  C   UNL     1      33.199 -23.305 -15.553  0.00  0.00    +0.162 C 
ATOM     20  C   UNL     1      33.011 -23.896 -14.159  0.00  0.00    +0.021 C 
ATOM     21  C   UNL     1      31.908 -23.412 -16.361  0.00  0.00    +0.021 C 
ATOM     22  C   UNL     1      31.788 -23.295 -13.463  0.00  0.00    -0.074 C 
ATOM     23  C   UNL     1      30.722 -22.828 -15.592  0.00  0.00    -0.074 C 
ATOM     24  H   UNL     1      29.848 -22.819 -13.770  0.00  0.00    -0.080 HD
BRANCH  18  25
ATOM     25  C   UNL     1      30.015 -24.748 -14.276  0.00  0.00    -0.077 C 
ATOM     26  C   UNL     1      28.771 -24.831 -15.144  0.00  0.00    -0.025 C 
ENDBRANCH  18  25
ENDBRANCH  17  19
ENDBRANCH   4  17
TORSDOF 4
ENDMDL
MODEL 2
REMARK VINA RESULT:      -8.6      1.286      1.553
REMARK  Name = 58266779
REMARK  4 active torsions:
REMARK  status: ('A' for Active; 'I' for Inactive)
REMARK    1  A    between atoms: C_4  and  O_17
REMARK    2  A    between atoms: C_8  and  C_16
REMARK    3  A    between atoms: O_17  and  C_19
REMARK    4  A    between atoms: N_18  and  C_25
REMARK                            x       y       z     vdW  Elec       q    Type
REMARK                         _______ _______ _______ _____ _____    ______ ____
ROOT
ATOM      1  N   UNL     1      37.170 -21.587 -16.902  0.00  0.00    -0.337 N 
ATOM      2  N   UNL     1      37.092 -23.120 -13.546  0.00  0.00    -0.229 NA
ATOM      3  N   UNL     1      36.168 -21.253 -19.063  0.00  0.00    -0.227 NA
ATOM      4  C   UNL     1      35.162 -23.725 -14.897  0.00  0.00    +0.167 C 
ATOM      5  C   UNL     1      35.672 -22.943 -15.944  0.00  0.00    +0.056 A 
ATOM      6  C   UNL     1      36.884 -22.276 -15.746  0.00  0.00    +0.080 A 
ATOM      7  C   UNL     1      35.231 -22.632 -17.264  0.00  0.00    +0.038 A 
ATOM      8  C   UNL     1      35.920 -23.767 -13.734  0.00  0.00    +0.183 C 
ATOM      9  C   UNL     1      36.184 -21.790 -17.828  0.00  0.00    +0.141 A 
ATOM     10  C   UNL     1      37.589 -22.365 -14.553  0.00  0.00    +0.117 C 
ATOM     11  C   UNL     1      34.122 -22.970 -18.059  0.00  0.00    +0.005 C 
ATOM     12  C   UNL     1      34.054 -22.441 -19.347  0.00  0.00    +0.021 C 
ATOM     13  C   UNL     1      35.079 -21.612 -19.781  0.00  0.00    +0.101 C 
ATOM     14  H   UNL     1      37.969 -21.029 -17.042  0.00  0.00    +0.167 HD
ENDROOT
BRANCH   8  16
ATOM     15  N   UNL     1      35.161 -25.148 -11.679  0.00  0.00    -0.189 NA
ATOM     16  C   UNL     1      35.501 -24.530 -12.600  0.00  0.00    +0.123 C 
ENDBRANCH   8  16
BRANCH   4  17
ATOM     17  O   UNL     1      33.980 -24.409 -15.014  0.00  0.00    -0.477 OA
BRANCH  17  19
ATOM     18  N   UNL     1      29.869 -23.650 -14.340  0.00  0.00    +0.387 N 
ATOM     19  C   UNL     1      32.821 -23.778 -14.486  0.00  0.00    +0.162 C 
ATOM     20  C   UNL     1      32.011 -24.808 -13.702  0.00  0.00    +0.021 C 
ATOM     21  C   UNL     1      31.986 -23.187 -15.619  0.00  0.00    +0.021 C 
ATOM     22  C   UNL     1      30.668 -24.229 -13.251  0.00  0.00    -0.074 C 
ATOM     23  C   UNL     1      30.644 -22.664 -15.105  0.00  0.00    -0.074 C 
ATOM     24  H   UNL     1      29.088 -23.155 -13.911  0.00  0.00    -0.080 HD
BRANCH  18  25
ATOM     25  C   UNL     1      29.280 -24.676 -15.198  0.00  0.00    -0.077 C 
ATOM     26  C   UNL     1      28.520 -24.053 -16.357  0.00  0.00    -0.025 C 
ENDBRANCH  18  25
ENDBRANCH  17  19
ENDBRANCH   4  17
TORSDOF 4
ENDMDL
MODEL 3
REMARK VINA RESULT:      -8.5      1.302      4.414
REMARK  Name = 58266779
REMARK  4 active torsions:
REMARK  status: ('A' for Active; 'I' for Inactive)
REMARK    1  A    between atoms: C_4  and  O_17
REMARK    2  A    between atoms: C_8  and  C_16
REMARK    3  A    between atoms: O_17  and  C_19
REMARK    4  A    between atoms: N_18  and  C_25
REMARK                            x       y       z     vdW  Elec       q    Type
REMARK                         _______ _______ _______ _____ _____    ______ ____
ROOT
ATOM      1  N   UNL     1      37.767 -22.455 -15.226  0.00  0.00    -0.337 N 
ATOM      2  N   UNL     1      35.923 -21.617 -18.310  0.00  0.00    -0.229 NA
ATOM      3  N   UNL     1      37.889 -23.615 -13.122  0.00  0.00    -0.227 NA
ATOM      4  C   UNL     1      34.676 -23.109 -16.850  0.00  0.00    +0.167 C 
ATOM      5  C   UNL     1      35.745 -23.084 -15.942  0.00  0.00    +0.056 A 
ATOM      6  C   UNL     1      36.870 -22.319 -16.259  0.00  0.00    +0.080 A 
ATOM      7  C   UNL     1      35.993 -23.693 -14.675  0.00  0.00    +0.038 A 
ATOM      8  C   UNL     1      34.833 -22.356 -18.006  0.00  0.00    +0.183 C 
ATOM      9  C   UNL     1      37.256 -23.279 -14.262  0.00  0.00    +0.141 A 
ATOM     10  C   UNL     1      36.957 -21.589 -17.437  0.00  0.00    +0.117 C 
ATOM     11  C   UNL     1      35.288 -24.556 -13.819  0.00  0.00    +0.005 C 
ATOM     12  C   UNL     1      35.897 -24.935 -12.625  0.00  0.00    +0.021 C 
ATOM     13  C   UNL     1      37.164 -24.446 -12.339  0.00  0.00    +0.101 C 
ATOM     14  H   UNL     1      38.650 -22.020 -15.186  0.00  0.00    +0.167 HD
ENDROOT
BRANCH   8  16
ATOM     15  N   UNL     1      32.982 -22.260 -19.815  0.00  0.00    -0.189 NA
ATOM     16  C   UNL     1      33.812 -22.304 -19.005  0.00  0.00    +0.123 C 
ENDBRANCH   8  16
BRANCH   4  17
ATOM     17  O   UNL     1      33.539 -23.835 -16.610  0.00  0.00    -0.477 OA
BRANCH  17  19
ATOM     18  N   UNL     1      29.781 -23.273 -14.740  0.00  0.00    +0.387 N 
ATOM     19  C   UNL     1      32.529 -23.204 -15.834  0.00  0.00    +0.162 C 
ATOM     20  C   UNL     1      32.149 -24.121 -14.674  0.00  0.00    +0.021 C 
ATOM     21  C   UNL     1      31.310 -22.906 -16.704  0.00  0.00    +0.021 C 
ATOM     22  C   UNL     1      30.950 -23.570 -13.901  0.00  0.00    -0.074 C 
ATOM     23  C   UNL     1      30.139 -22.397 -15.863  0.00  0.00    -0.074 C 
ATOM     24  H   UNL     1      29.114 -22.765 -14.161  0.00  0.00    -0.080 HD
BRANCH  18  25
ATOM     25  C   UNL     1      29.096 -24.486 -15.182  0.00  0.00    -0.077 C 
ATOM     26  C   UNL     1      28.252 -24.222 -16.417  0.00  0.00    -0.025 C 
ENDBRANCH  18  25
ENDBRANCH  17  19
ENDBRANCH   4  17
TORSDOF 4
ENDMDL
MODEL 4
REMARK VINA RESULT:      -8.5      1.866      5.130
REMARK  Name = 58266779
REMARK  4 active torsions:
REMARK  status: ('A' for Active; 'I' for Inactive)
REMARK    1  A    between atoms: C_4  and  O_17
REMARK    2  A    between atoms: C_8  and  C_16
REMARK    3  A    between atoms: O_17  and  C_19
REMARK    4  A    between atoms: N_18  and  C_25
REMARK                            x       y       z     vdW  Elec       q    Type
REMARK                         _______ _______ _______ _____ _____    ______ ____
ROOT
ATOM      1  N   UNL     1      33.111 -22.434 -18.792  0.00  0.00    -0.337 N 
ATOM      2  N   UNL     1      31.561 -23.969 -15.816  0.00  0.00    -0.229 NA
ATOM      3  N   UNL     1      35.036 -21.495 -19.888  0.00  0.00    -0.227 NA
ATOM      4  C   UNL     1      33.912 -23.441 -15.480  0.00  0.00    +0.167 C 
ATOM      5  C   UNL     1      33.967 -22.940 -16.789  0.00  0.00    +0.056 A 
ATOM      6  C   UNL     1      32.805 -22.975 -17.565  0.00  0.00    +0.080 A 
ATOM      7  C   UNL     1      34.993 -22.359 -17.593  0.00  0.00    +0.038 A 
ATOM      8  C   UNL     1      32.683 -23.936 -15.062  0.00  0.00    +0.183 C 
ATOM      9  C   UNL     1      34.426 -22.057 -18.827  0.00  0.00    +0.141 A 
ATOM     10  C   UNL     1      31.610 -23.486 -17.079  0.00  0.00    +0.117 C 
ATOM     11  C   UNL     1      36.353 -22.047 -17.418  0.00  0.00    +0.005 C 
ATOM     12  C   UNL     1      37.033 -21.463 -18.484  0.00  0.00    +0.021 C 
ATOM     13  C   UNL     1      36.340 -21.218 -19.662  0.00  0.00    +0.101 C 
ATOM     14  H   UNL     1      32.476 -22.333 -19.537  0.00  0.00    +0.167 HD
ENDROOT
BRANCH   8  16
ATOM     15  N   UNL     1      32.360 -24.909 -12.684  0.00  0.00    -0.189 NA
ATOM     16  C   UNL     1      32.505 -24.473 -13.750  0.00  0.00    +0.123 C 
ENDBRANCH   8  16
BRANCH   4  17
ATOM     17  O   UNL     1      35.008 -23.441 -14.658  0.00  0.00    -0.477 OA
BRANCH  17  19
ATOM     18  N   UNL     1      37.965 -26.278 -13.589  0.00  0.00    +0.387 N 
ATOM     19  C   UNL     1      35.577 -24.708 -14.350  0.00  0.00    +0.162 C 
ATOM     20  C   UNL     1      36.149 -24.663 -12.936  0.00  0.00    +0.021 C 
ATOM     21  C   UNL     1      36.668 -25.050 -15.361  0.00  0.00    +0.021 C 
ATOM     22  C   UNL     1      36.922 -25.943 -12.610  0.00  0.00    -0.074 C 
ATOM     23  C   UNL     1      37.425 -26.315 -14.954  0.00  0.00    -0.074 C 
ATOM     24  H   UNL     1      38.295 -27.217 -13.369  0.00  0.00    -0.080 HD
BRANCH  18  25
ATOM     25  C   UNL     1      39.128 -25.400 -13.479  0.00  0.00    -0.077 C 
ATOM     26  C   UNL     1      40.243 -25.846 -14.408  0.00  0.00    -0.025 C 
ENDBRANCH  18  25
ENDBRANCH  17  19
ENDBRANCH   4  17
TORSDOF 4
ENDMDL
MODEL 5
REMARK VINA RESULT:      -8.5      8.383     12.196
REMARK  Name = 58266779
REMARK  4 active torsions:
REMARK  status: ('A' for Active; 'I' for Inactive)
REMARK    1  A    between atoms: C_4  and  O_17
REMARK    2  A    between atoms: C_8  and  C_16
REMARK    3  A    between atoms: O_17  and  C_19
REMARK    4  A    between atoms: N_18  and  C_25
REMARK                            x       y       z     vdW  Elec       q    Type
REMARK                         _______ _______ _______ _____ _____    ______ ____
ROOT
ATOM      1  N   UNL     1      32.743  -9.731 -23.071  0.00  0.00    -0.337 N 
ATOM      2  N   UNL     1      33.634 -12.028 -25.818  0.00  0.00    -0.229 NA
ATOM      3  N   UNL     1      31.987  -9.376 -20.815  0.00  0.00    -0.227 NA
ATOM      4  C   UNL     1      32.934 -13.202 -23.806  0.00  0.00    +0.167 C 
ATOM      5  C   UNL     1      32.740 -11.965 -23.173  0.00  0.00    +0.056 A 
ATOM      6  C   UNL     1      33.005 -10.799 -23.897  0.00  0.00    +0.080 A 
ATOM      7  C   UNL     1      32.309 -11.564 -21.874  0.00  0.00    +0.038 A 
ATOM      8  C   UNL     1      33.379 -13.158 -25.121  0.00  0.00    +0.183 C 
ATOM      9  C   UNL     1      32.322 -10.173 -21.847  0.00  0.00    +0.141 A 
ATOM     10  C   UNL     1      33.449 -10.832 -25.212  0.00  0.00    +0.117 C 
ATOM     11  C   UNL     1      31.902 -12.226 -20.701  0.00  0.00    +0.005 C 
ATOM     12  C   UNL     1      31.544 -11.448 -19.602  0.00  0.00    +0.021 C 
ATOM     13  C   UNL     1      31.605 -10.066 -19.716  0.00  0.00    +0.101 C 
ATOM     14  H   UNL     1      32.844  -8.785 -23.324  0.00  0.00    +0.167 HD
ENDROOT
BRANCH   8  16
ATOM     15  N   UNL     1      33.799 -15.325 -26.474  0.00  0.00    -0.189 NA
ATOM     16  C   UNL     1      33.612 -14.354 -25.867  0.00  0.00    +0.123 C 
ENDBRANCH   8  16
BRANCH   4  17
ATOM     17  O   UNL     1      32.696 -14.388 -23.163  0.00  0.00    -0.477 OA
BRANCH  17  19
ATOM     18  N   UNL     1      34.933 -17.334 -21.102  0.00  0.00    +0.387 N 
ATOM     19  C   UNL     1      33.796 -14.978 -22.481  0.00  0.00    +0.162 C 
ATOM     20  C   UNL     1      34.248 -16.216 -23.250  0.00  0.00    +0.021 C 
ATOM     21  C   UNL     1      33.389 -15.348 -21.057  0.00  0.00    +0.021 C 
ATOM     22  C   UNL     1      35.320 -16.988 -22.476  0.00  0.00    -0.074 C 
ATOM     23  C   UNL     1      34.488 -16.149 -20.357  0.00  0.00    -0.074 C 
ATOM     24  H   UNL     1      35.766 -17.690 -20.634  0.00  0.00    -0.080 HD
BRANCH  18  25
ATOM     25  C   UNL     1      33.949 -18.414 -21.060  0.00  0.00    -0.077 C 
ATOM     26  C   UNL     1      34.625 -19.774 -21.082  0.00  0.00    -0.025 C 
ENDBRANCH  18  25
ENDBRANCH  17  19
ENDBRANCH   4  17
TORSDOF 4
ENDMDL
MODEL 6
REMARK VINA RESULT:      -8.3      2.283      5.597
REMARK  Name = 58266779
REMARK  4 active torsions:
REMARK  status: ('A' for Active; 'I' for Inactive)
REMARK    1  A    between atoms: C_4  and  O_17
REMARK    2  A    between atoms: C_8  and  C_16
REMARK    3  A    between atoms: O_17  and  C_19
REMARK    4  A    between atoms: N_18  and  C_25
REMARK                            x       y       z     vdW  Elec       q    Type
REMARK                         _______ _______ _______ _____ _____    ______ ____
ROOT
ATOM      1  N   UNL     1      31.852 -23.079 -16.788  0.00  0.00    -0.337 N 
ATOM      2  N   UNL     1      32.436 -24.229 -13.331  0.00  0.00    -0.229 NA
ATOM      3  N   UNL     1      32.708 -22.297 -18.896  0.00  0.00    -0.227 NA
ATOM      4  C   UNL     1      34.500 -23.687 -14.499  0.00  0.00    +0.167 C 
ATOM      5  C   UNL     1      33.748 -23.348 -15.633  0.00  0.00    +0.056 A 
ATOM      6  C   UNL     1      32.356 -23.465 -15.568  0.00  0.00    +0.080 A 
ATOM      7  C   UNL     1      34.070 -22.877 -16.941  0.00  0.00    +0.038 A 
ATOM      8  C   UNL     1      33.782 -24.117 -13.390  0.00  0.00    +0.183 C 
ATOM      9  C   UNL     1      32.870 -22.721 -17.629  0.00  0.00    +0.141 A 
ATOM     10  C   UNL     1      31.706 -23.903 -14.423  0.00  0.00    +0.117 C 
ATOM     11  C   UNL     1      35.252 -22.560 -17.632  0.00  0.00    +0.005 C 
ATOM     12  C   UNL     1      35.142 -22.116 -18.948  0.00  0.00    +0.021 C 
ATOM     13  C   UNL     1      33.877 -22.007 -19.511  0.00  0.00    +0.101 C 
ATOM     14  H   UNL     1      30.896 -23.062 -17.022  0.00  0.00    +0.167 HD
ENDROOT
BRANCH   8  16
ATOM     15  N   UNL     1      34.973 -24.793 -11.192  0.00  0.00    -0.189 NA
ATOM     16  C   UNL     1      34.440 -24.489 -12.177  0.00  0.00    +0.123 C 
ENDBRANCH   8  16
BRANCH   4  17
ATOM     17  O   UNL     1      35.867 -23.599 -14.484  0.00  0.00    -0.477 OA
BRANCH  17  19
ATOM     18  N   UNL     1      39.004 -26.418 -14.101  0.00  0.00    +0.387 N 
ATOM     19  C   UNL     1      36.576 -24.731 -13.998  0.00  0.00    +0.162 C 
ATOM     20  C   UNL     1      37.902 -24.267 -13.401  0.00  0.00    +0.021 C 
ATOM     21  C   UNL     1      36.816 -25.724 -15.132  0.00  0.00    +0.021 C 
ATOM     22  C   UNL     1      38.782 -25.457 -13.013  0.00  0.00    -0.074 C 
ATOM     23  C   UNL     1      37.733 -26.865 -14.687  0.00  0.00    -0.074 C 
ATOM     24  H   UNL     1      39.453 -27.237 -13.694  0.00  0.00    -0.080 HD
BRANCH  18  25
ATOM     25  C   UNL     1      39.928 -25.905 -15.111  0.00  0.00    -0.077 C 
ATOM     26  C   UNL     1      40.982 -25.009 -14.486  0.00  0.00    -0.025 C 
ENDBRANCH  18  25
ENDBRANCH  17  19
ENDBRANCH   4  17
TORSDOF 4
ENDMDL
MODEL 7
REMARK VINA RESULT:      -8.1     10.355     14.145
REMARK  Name = 58266779
REMARK  4 active torsions:
REMARK  status: ('A' for Active; 'I' for Inactive)
REMARK    1  A    between atoms: C_4  and  O_17
REMARK    2  A    between atoms: C_8  and  C_16
REMARK    3  A    between atoms: O_17  and  C_19
REMARK    4  A    between atoms: N_18  and  C_25
REMARK                            x       y       z     vdW  Elec       q    Type
REMARK                         _______ _______ _______ _____ _____    ______ ____
ROOT
ATOM      1  N   UNL     1      33.394 -15.436 -23.724  0.00  0.00    -0.337 N 
ATOM      2  N   UNL     1      32.393 -13.852 -20.545  0.00  0.00    -0.229 NA
ATOM      3  N   UNL     1      33.761 -15.293 -26.098  0.00  0.00    -0.227 NA
ATOM      4  C   UNL     1      32.274 -12.322 -22.432  0.00  0.00    +0.167 C 
ATOM      5  C   UNL     1      32.716 -13.354 -23.273  0.00  0.00    +0.056 A 
ATOM      6  C   UNL     1      32.981 -14.605 -22.710  0.00  0.00    +0.080 A 
ATOM      7  C   UNL     1      32.986 -13.456 -24.671  0.00  0.00    +0.038 A 
ATOM      8  C   UNL     1      32.136 -12.641 -21.087  0.00  0.00    +0.183 C 
ATOM      9  C   UNL     1      33.404 -14.761 -24.914  0.00  0.00    +0.141 A 
ATOM     10  C   UNL     1      32.820 -14.851 -21.353  0.00  0.00    +0.117 C 
ATOM     11  C   UNL     1      32.924 -12.585 -25.773  0.00  0.00    +0.005 C 
ATOM     12  C   UNL     1      33.283 -13.085 -27.023  0.00  0.00    +0.021 C 
ATOM     13  C   UNL     1      33.682 -14.412 -27.120  0.00  0.00    +0.101 C 
ATOM     14  H   UNL     1      33.647 -16.381 -23.610  0.00  0.00    +0.167 HD
ENDROOT
BRANCH   8  16
ATOM     15  N   UNL     1      31.333 -10.886 -19.360  0.00  0.00    -0.189 NA
ATOM     16  C   UNL     1      31.693 -11.672 -20.135  0.00  0.00    +0.123 C 
ENDBRANCH   8  16
BRANCH   4  17
ATOM     17  O   UNL     1      31.993 -11.068 -22.909  0.00  0.00    -0.477 OA
BRANCH  17  19
ATOM     18  N   UNL     1      33.991  -7.353 -23.277  0.00  0.00    +0.387 N 
ATOM     19  C   UNL     1      32.965 -10.059 -22.667  0.00  0.00    +0.162 C 
ATOM     20  C   UNL     1      32.259  -8.802 -22.167  0.00  0.00    +0.021 C 
ATOM     21  C   UNL     1      33.743  -9.765 -23.947  0.00  0.00    +0.021 C 
ATOM     22  C   UNL     1      33.234  -7.628 -22.049  0.00  0.00    -0.074 C 
ATOM     23  C   UNL     1      34.667  -8.560 -23.770  0.00  0.00    -0.074 C 
ATOM     24  H   UNL     1      34.715  -6.676 -23.040  0.00  0.00    -0.080 HD
BRANCH  18  25
ATOM     25  C   UNL     1      33.165  -6.724 -24.305  0.00  0.00    -0.077 C 
ATOM     26  C   UNL     1      34.022  -6.083 -25.384  0.00  0.00    -0.025 C 
ENDBRANCH  18  25
ENDBRANCH  17  19
ENDBRANCH   4  17
TORSDOF 4
ENDMDL
MODEL 8
REMARK VINA RESULT:      -7.9     12.721     15.971
REMARK  Name = 58266779
REMARK  4 active torsions:
REMARK  status: ('A' for Active; 'I' for Inactive)
REMARK    1  A    between atoms: C_4  and  O_17
REMARK    2  A    between atoms: C_8  and  C_16
REMARK    3  A    between atoms: O_17  and  C_19
REMARK    4  A    between atoms: N_18  and  C_25
REMARK                            x       y       z     vdW  Elec       q    Type
REMARK                         _______ _______ _______ _____ _____    ______ ____
ROOT
ATOM      1  N   UNL     1      31.910  -5.517 -21.091  0.00  0.00    -0.337 N 
ATOM      2  N   UNL     1      31.971  -8.705 -19.234  0.00  0.00    -0.229 NA
ATOM      3  N   UNL     1      31.779  -4.323 -23.176  0.00  0.00    -0.227 NA
ATOM      4  C   UNL     1      31.777  -9.026 -21.637  0.00  0.00    +0.167 C 
ATOM      5  C   UNL     1      31.800  -7.633 -21.806  0.00  0.00    +0.056 A 
ATOM      6  C   UNL     1      31.908  -6.827 -20.670  0.00  0.00    +0.080 A 
ATOM      7  C   UNL     1      31.734  -6.763 -22.935  0.00  0.00    +0.038 A 
ATOM      8  C   UNL     1      31.866  -9.488 -20.331  0.00  0.00    +0.183 C 
ATOM      9  C   UNL     1      31.806  -5.460 -22.454  0.00  0.00    +0.141 A 
ATOM     10  C   UNL     1      31.993  -7.361 -19.391  0.00  0.00    +0.117 C 
ATOM     11  C   UNL     1      31.621  -6.929 -24.327  0.00  0.00    +0.005 C 
ATOM     12  C   UNL     1      31.589  -5.785 -25.122  0.00  0.00    +0.021 C 
ATOM     13  C   UNL     1      31.669  -4.544 -24.506  0.00  0.00    +0.101 C 
ATOM     14  H   UNL     1      31.977  -4.735 -20.497  0.00  0.00    +0.167 HD
ENDROOT
BRANCH   8  16
ATOM     15  N   UNL     1      31.843 -12.022 -19.795  0.00  0.00    -0.189 NA
ATOM     16  C   UNL     1      31.853 -10.886 -20.034  0.00  0.00    +0.123 C 
ENDBRANCH   8  16
BRANCH   4  17
ATOM     17  O   UNL     1      31.673  -9.883 -22.701  0.00  0.00    -0.477 OA
BRANCH  17  19
ATOM     18  N   UNL     1      34.305 -12.168 -25.106  0.00  0.00    +0.387 N 
ATOM     19  C   UNL     1      32.851 -10.588 -23.072  0.00  0.00    +0.162 C 
ATOM     20  C   UNL     1      33.445  -9.938 -24.319  0.00  0.00    +0.021 C 
ATOM     21  C   UNL     1      32.521 -12.055 -23.336  0.00  0.00    +0.021 C 
ATOM     22  C   UNL     1      34.620 -10.754 -24.863  0.00  0.00    -0.074 C 
ATOM     23  C   UNL     1      33.725 -12.800 -23.913  0.00  0.00    -0.074 C 
ATOM     24  H   UNL     1      35.184 -12.644 -25.303  0.00  0.00    -0.080 HD
BRANCH  18  25
ATOM     25  C   UNL     1      33.468 -12.352 -26.290  0.00  0.00    -0.077 C 
ATOM     26  C   UNL     1      33.137 -13.819 -26.507  0.00  0.00    -0.025 C 
ENDBRANCH  18  25
ENDBRANCH  17  19
ENDBRANCH   4  17
TORSDOF 4
ENDMDL
MODEL 9
REMARK VINA RESULT:      -7.9      1.687      2.943
REMARK  Name = 58266779
REMARK  4 active torsions:
REMARK  status: ('A' for Active; 'I' for Inactive)
REMARK    1  A    between atoms: C_4  and  O_17
REMARK    2  A    between atoms: C_8  and  C_16
REMARK    3  A    between atoms: O_17  and  C_19
REMARK    4  A    between atoms: N_18  and  C_25
REMARK                            x       y       z     vdW  Elec       q    Type
REMARK                         _______ _______ _______ _____ _____    ______ ____
ROOT
ATOM      1  N   UNL     1      36.610 -22.287 -16.122  0.00  0.00    -0.337 N 
ATOM      2  N   UNL     1      34.625 -23.949 -13.492  0.00  0.00    -0.229 NA
ATOM      3  N   UNL     1      36.811 -21.467 -18.375  0.00  0.00    -0.227 NA
ATOM      4  C   UNL     1      33.416 -23.750 -15.593  0.00  0.00    +0.167 C 
ATOM      5  C   UNL     1      34.533 -23.115 -16.155  0.00  0.00    +0.056 A 
ATOM      6  C   UNL     1      35.661 -22.921 -15.354  0.00  0.00    +0.080 A 
ATOM      7  C   UNL     1      34.831 -22.572 -17.441  0.00  0.00    +0.038 A 
ATOM      8  C   UNL     1      33.532 -24.138 -14.265  0.00  0.00    +0.183 C 
ATOM      9  C   UNL     1      36.127 -22.068 -17.383  0.00  0.00    +0.141 A 
ATOM     10  C   UNL     1      35.706 -23.336 -14.030  0.00  0.00    +0.117 C 
ATOM     11  C   UNL     1      34.147 -22.448 -18.663  0.00  0.00    +0.005 C 
ATOM     12  C   UNL     1      34.809 -21.833 -19.723  0.00  0.00    +0.021 C 
ATOM     13  C   UNL     1      36.105 -21.375 -19.524  0.00  0.00    +0.101 C 
ATOM     14  H   UNL     1      37.507 -22.028 -15.809  0.00  0.00    +0.167 HD
ENDROOT
BRANCH   8  16
ATOM     15  N   UNL     1      31.590 -25.328 -13.032  0.00  0.00    -0.189 NA
ATOM     16  C   UNL     1      32.460 -24.794 -13.585  0.00  0.00    +0.123 C 
ENDBRANCH   8  16
BRANCH   4  17
ATOM     17  O   UNL     1      32.273 -23.977 -16.314  0.00  0.00    -0.477 OA
BRANCH  17  19
ATOM     18  N   UNL     1      28.138 -23.214 -15.813  0.00  0.00    +0.387 N 
ATOM     19  C   UNL     1      31.039 -23.764 -15.641  0.00  0.00    +0.162 C 
ATOM     20  C   UNL     1      30.044 -24.835 -16.080  0.00  0.00    +0.021 C 
ATOM     21  C   UNL     1      30.503 -22.370 -15.958  0.00  0.00    +0.021 C 
ATOM     22  C   UNL     1      28.648 -24.559 -15.517  0.00  0.00    -0.074 C 
ATOM     23  C   UNL     1      29.092 -22.177 -15.400  0.00  0.00    -0.074 C 
ATOM     24  H   UNL     1      27.292 -23.084 -15.260  0.00  0.00    -0.080 HD
BRANCH  18  25
ATOM     25  C   UNL     1      27.737 -23.071 -17.211  0.00  0.00    -0.077 C 
ATOM     26  C   UNL     1      26.784 -21.902 -17.393  0.00  0.00    -0.025 C 
ENDBRANCH  18  25
ENDBRANCH  17  19
ENDBRANCH   4  17
TORSDOF 4
ENDMDL
