MODEL 1
REMARK VINA RESULT:      -8.3      0.000      0.000
REMARK  Name = 29566
REMARK  2 active torsions:
REMARK  status: ('A' for Active; 'I' for Inactive)
REMARK    1  A    between atoms: C_1  and  N_5
REMARK    2  A    between atoms: C_1  and  N_15
REMARK                            x       y       z     vdW  Elec       q    Type
REMARK                         _______ _______ _______ _____ _____    ______ ____
ROOT
ATOM      1  C   UNL     1      34.207 -24.176 -13.482  0.00  0.00    -0.158 C 
ENDROOT
BRANCH   1   5
ATOM      2  S   UNL     1      30.111 -24.094 -15.392  0.00  0.00    +0.037 S 
ATOM      3  O   UNL     1      29.629 -23.044 -14.518  0.00  0.00    -0.158 OA
ATOM      4  O   UNL     1      29.259 -24.664 -16.417  0.00  0.00    -0.158 OA
ATOM      5  N   UNL     1      33.082 -24.460 -14.374  0.00  0.00    +0.387 N 
ATOM      6  N   UNL     1      30.779 -25.363 -14.451  0.00  0.00    -0.205 NA
ATOM      7  C   UNL     1      32.712 -23.252 -15.130  0.00  0.00    -0.051 C 
ATOM      8  C   UNL     1      31.942 -24.981 -13.605  0.00  0.00    +0.015 C 
ATOM      9  C   UNL     1      31.618 -23.533 -16.160  0.00  0.00    +0.146 C 
ATOM     10  H   UNL     1      33.362 -25.174 -15.045  0.00  0.00    -0.081 HD
ATOM     11  H   UNL     1      31.080 -26.103 -15.086  0.00  0.00    +0.146 HD
ENDBRANCH   1   5
BRANCH   1  15
ATOM     12  S   UNL     1      38.342 -25.770 -14.369  0.00  0.00    +0.037 S 
ATOM     13  O   UNL     1      38.956 -24.459 -14.302  0.00  0.00    -0.158 OA
ATOM     14  O   UNL     1      39.132 -26.953 -14.648  0.00  0.00    -0.158 OA
ATOM     15  N   UNL     1      35.316 -25.090 -13.753  0.00  0.00    +0.387 N 
ATOM     16  N   UNL     1      37.006 -25.724 -15.447  0.00  0.00    -0.205 NA
ATOM     17  C   UNL     1      36.317 -25.015 -12.676  0.00  0.00    -0.051 C 
ATOM     18  C   UNL     1      35.914 -24.790 -15.063  0.00  0.00    +0.015 C 
ATOM     19  C   UNL     1      37.435 -26.040 -12.859  0.00  0.00    +0.146 C 
ATOM     20  H   UNL     1      34.960 -26.047 -13.783  0.00  0.00    -0.081 HD
ATOM     21  H   UNL     1      36.614 -26.664 -15.501  0.00  0.00    +0.146 HD
ENDBRANCH   1  15
TORSDOF 2
ENDMDL
MODEL 2
REMARK VINA RESULT:      -8.3      0.010      6.888
REMARK  Name = 29566
REMARK  2 active torsions:
REMARK  status: ('A' for Active; 'I' for Inactive)
REMARK    1  A    between atoms: C_1  and  N_5
REMARK    2  A    between atoms: C_1  and  N_15
REMARK                            x       y       z     vdW  Elec       q    Type
REMARK                         _______ _______ _______ _____ _____    ______ ____
ROOT
ATOM      1  C   UNL     1      34.211 -24.184 -13.478  0.00  0.00    -0.158 C 
ENDROOT
BRANCH   1   5
ATOM      2  S   UNL     1      38.347 -25.775 -14.368  0.00  0.00    +0.037 S 
ATOM      3  O   UNL     1      38.962 -24.464 -14.293  0.00  0.00    -0.158 OA
ATOM      4  O   UNL     1      39.137 -26.956 -14.652  0.00  0.00    -0.158 OA
ATOM      5  N   UNL     1      35.321 -25.098 -13.753  0.00  0.00    +0.387 N 
ATOM      6  N   UNL     1      37.014 -25.722 -15.447  0.00  0.00    -0.205 NA
ATOM      7  C   UNL     1      36.320 -25.028 -12.674  0.00  0.00    -0.051 C 
ATOM      8  C   UNL     1      35.921 -24.789 -15.060  0.00  0.00    +0.015 C 
ATOM      9  C   UNL     1      37.438 -26.053 -12.861  0.00  0.00    +0.146 C 
ATOM     10  H   UNL     1      34.965 -26.052 -13.788  0.00  0.00    -0.081 HD
ATOM     11  H   UNL     1      36.620 -26.661 -15.508  0.00  0.00    +0.146 HD
ENDBRANCH   1   5
BRANCH   1  15
ATOM     12  S   UNL     1      30.116 -24.094 -15.386  0.00  0.00    +0.037 S 
ATOM     13  O   UNL     1      29.637 -23.040 -14.514  0.00  0.00    -0.158 OA
ATOM     14  O   UNL     1      29.260 -24.665 -16.408  0.00  0.00    -0.158 OA
ATOM     15  N   UNL     1      33.085 -24.467 -14.368  0.00  0.00    +0.387 N 
ATOM     16  N   UNL     1      30.780 -25.364 -14.441  0.00  0.00    -0.205 NA
ATOM     17  C   UNL     1      32.718 -23.260 -15.128  0.00  0.00    -0.051 C 
ATOM     18  C   UNL     1      31.944 -24.983 -13.597  0.00  0.00    +0.015 C 
ATOM     19  C   UNL     1      31.624 -23.541 -16.156  0.00  0.00    +0.146 C 
ATOM     20  H   UNL     1      33.362 -25.186 -15.038  0.00  0.00    -0.081 HD
ATOM     21  H   UNL     1      31.078 -26.105 -15.074  0.00  0.00    +0.146 HD
ENDBRANCH   1  15
TORSDOF 2
ENDMDL
MODEL 3
REMARK VINA RESULT:      -8.1      1.531      7.022
REMARK  Name = 29566
REMARK  2 active torsions:
REMARK  status: ('A' for Active; 'I' for Inactive)
REMARK    1  A    between atoms: C_1  and  N_5
REMARK    2  A    between atoms: C_1  and  N_15
REMARK                            x       y       z     vdW  Elec       q    Type
REMARK                         _______ _______ _______ _____ _____    ______ ____
ROOT
ATOM      1  C   UNL     1      35.395 -23.458 -14.349  0.00  0.00    -0.158 C 
ENDROOT
BRANCH   1   5
ATOM      2  S   UNL     1      39.522 -25.234 -14.837  0.00  0.00    +0.037 S 
ATOM      3  O   UNL     1      39.986 -24.727 -13.561  0.00  0.00    -0.158 OA
ATOM      4  O   UNL     1      40.394 -26.014 -15.693  0.00  0.00    -0.158 OA
ATOM      5  N   UNL     1      36.536 -24.198 -14.890  0.00  0.00    +0.387 N 
ATOM      6  N   UNL     1      38.843 -23.951 -15.751  0.00  0.00    -0.205 NA
ATOM      7  C   UNL     1      36.915 -25.290 -13.978  0.00  0.00    -0.051 C 
ATOM      8  C   UNL     1      37.664 -23.286 -15.133  0.00  0.00    +0.015 C 
ATOM      9  C   UNL     1      38.027 -26.162 -14.559  0.00  0.00    +0.146 C 
ATOM     10  H   UNL     1      36.270 -24.614 -15.781  0.00  0.00    -0.081 HD
ATOM     11  H   UNL     1      38.555 -24.326 -16.656  0.00  0.00    +0.146 HD
ENDBRANCH   1   5
BRANCH   1  15
ATOM     12  S   UNL     1      30.997 -24.442 -14.682  0.00  0.00    +0.037 S 
ATOM     13  O   UNL     1      30.592 -23.303 -13.882  0.00  0.00    -0.158 OA
ATOM     14  O   UNL     1      30.015 -25.357 -15.231  0.00  0.00    -0.158 OA
ATOM     15  N   UNL     1      34.140 -24.108 -14.728  0.00  0.00    +0.387 N 
ATOM     16  N   UNL     1      32.189 -25.343 -13.838  0.00  0.00    -0.205 NA
ATOM     17  C   UNL     1      33.294 -23.179 -15.496  0.00  0.00    -0.051 C 
ATOM     18  C   UNL     1      33.443 -24.604 -13.532  0.00  0.00    +0.015 C 
ATOM     19  C   UNL     1      32.024 -23.853 -16.013  0.00  0.00    +0.146 C 
ATOM     20  H   UNL     1      34.347 -24.909 -15.326  0.00  0.00    -0.081 HD
ATOM     21  H   UNL     1      32.431 -26.155 -14.406  0.00  0.00    +0.146 HD
ENDBRANCH   1  15
TORSDOF 2
ENDMDL
MODEL 4
REMARK VINA RESULT:      -7.7      2.641      7.317
REMARK  Name = 29566
REMARK  2 active torsions:
REMARK  status: ('A' for Active; 'I' for Inactive)
REMARK    1  A    between atoms: C_1  and  N_5
REMARK    2  A    between atoms: C_1  and  N_15
REMARK                            x       y       z     vdW  Elec       q    Type
REMARK                         _______ _______ _______ _____ _____    ______ ____
ROOT
ATOM      1  C   UNL     1      32.368 -24.045 -16.018  0.00  0.00    -0.158 C 
ENDROOT
BRANCH   1   5
ATOM      2  S   UNL     1      35.789 -23.734 -13.079  0.00  0.00    +0.037 S 
ATOM      3  O   UNL     1      36.234 -25.092 -13.321  0.00  0.00    -0.158 OA
ATOM      4  O   UNL     1      36.480 -22.877 -12.137  0.00  0.00    -0.158 OA
ATOM      5  N   UNL     1      33.319 -23.513 -15.041  0.00  0.00    +0.387 N 
ATOM      6  N   UNL     1      34.114 -23.737 -12.708  0.00  0.00    -0.205 NA
ATOM      7  C   UNL     1      34.686 -23.546 -15.587  0.00  0.00    -0.051 C 
ATOM      8  C   UNL     1      33.227 -24.264 -13.780  0.00  0.00    +0.015 C 
ATOM      9  C   UNL     1      35.695 -22.890 -14.646  0.00  0.00    +0.146 C 
ATOM     10  H   UNL     1      33.085 -22.540 -14.845  0.00  0.00    -0.081 HD
ATOM     11  H   UNL     1      33.832 -22.776 -12.510  0.00  0.00    +0.146 HD
ENDBRANCH   1   5
BRANCH   1  15
ATOM     12  S   UNL     1      27.953 -23.164 -16.402  0.00  0.00    +0.037 S 
ATOM     13  O   UNL     1      27.809 -23.962 -17.603  0.00  0.00    -0.158 OA
ATOM     14  O   UNL     1      26.817 -22.471 -15.825  0.00  0.00    -0.158 OA
ATOM     15  N   UNL     1      31.022 -23.541 -15.746  0.00  0.00    +0.387 N 
ATOM     16  N   UNL     1      29.243 -22.050 -16.603  0.00  0.00    -0.205 NA
ATOM     17  C   UNL     1      30.088 -24.661 -15.545  0.00  0.00    -0.051 C 
ATOM     18  C   UNL     1      30.578 -22.663 -16.838  0.00  0.00    +0.015 C 
ATOM     19  C   UNL     1      28.695 -24.181 -15.141  0.00  0.00    +0.146 C 
ATOM     20  H   UNL     1      31.040 -22.990 -14.887  0.00  0.00    -0.081 HD
ATOM     21  H   UNL     1      29.301 -21.480 -15.760  0.00  0.00    +0.146 HD
ENDBRANCH   1  15
TORSDOF 2
ENDMDL
MODEL 5
REMARK VINA RESULT:      -7.7      1.783      6.828
REMARK  Name = 29566
REMARK  2 active torsions:
REMARK  status: ('A' for Active; 'I' for Inactive)
REMARK    1  A    between atoms: C_1  and  N_5
REMARK    2  A    between atoms: C_1  and  N_15
REMARK                            x       y       z     vdW  Elec       q    Type
REMARK                         _______ _______ _______ _____ _____    ______ ____
ROOT
ATOM      1  C   UNL     1      34.524 -23.865 -15.902  0.00  0.00    -0.158 C 
ENDROOT
BRANCH   1   5
ATOM      2  S   UNL     1      37.639 -24.704 -12.736  0.00  0.00    +0.037 S 
ATOM      3  O   UNL     1      38.747 -24.473 -13.642  0.00  0.00    -0.158 OA
ATOM      4  O   UNL     1      37.868 -25.061 -11.350  0.00  0.00    -0.158 OA
ATOM      5  N   UNL     1      35.154 -24.173 -14.617  0.00  0.00    +0.387 N 
ATOM      6  N   UNL     1      36.553 -25.835 -13.433  0.00  0.00    -0.205 NA
ATOM      7  C   UNL     1      35.990 -23.045 -14.175  0.00  0.00    -0.051 C 
ATOM      8  C   UNL     1      35.937 -25.413 -14.720  0.00  0.00    +0.015 C 
ATOM      9  C   UNL     1      36.574 -23.275 -12.782  0.00  0.00    +0.146 C 
ATOM     10  H   UNL     1      34.428 -24.316 -13.917  0.00  0.00    -0.081 HD
ATOM     11  H   UNL     1      35.802 -26.005 -12.764  0.00  0.00    +0.146 HD
ENDBRANCH   1   5
BRANCH   1  15
ATOM     12  S   UNL     1      30.041 -23.346 -15.661  0.00  0.00    +0.037 S 
ATOM     13  O   UNL     1      29.775 -24.730 -16.000  0.00  0.00    -0.158 OA
ATOM     14  O   UNL     1      28.957 -22.419 -15.399  0.00  0.00    -0.158 OA
ATOM     15  N   UNL     1      33.201 -23.275 -15.693  0.00  0.00    +0.387 N 
ATOM     16  N   UNL     1      31.092 -22.660 -16.832  0.00  0.00    -0.205 NA
ATOM     17  C   UNL     1      32.496 -23.974 -14.605  0.00  0.00    -0.051 C 
ATOM     18  C   UNL     1      32.426 -23.308 -16.942  0.00  0.00    +0.015 C 
ATOM     19  C   UNL     1      31.158 -23.315 -14.273  0.00  0.00    +0.146 C 
ATOM     20  H   UNL     1      33.311 -22.299 -15.417  0.00  0.00    -0.081 HD
ATOM     21  H   UNL     1      31.236 -21.679 -16.590  0.00  0.00    +0.146 HD
ENDBRANCH   1  15
TORSDOF 2
ENDMDL
MODEL 6
REMARK VINA RESULT:      -7.6      1.789      2.367
REMARK  Name = 29566
REMARK  2 active torsions:
REMARK  status: ('A' for Active; 'I' for Inactive)
REMARK    1  A    between atoms: C_1  and  N_5
REMARK    2  A    between atoms: C_1  and  N_15
REMARK                            x       y       z     vdW  Elec       q    Type
REMARK                         _______ _______ _______ _____ _____    ______ ____
ROOT
ATOM      1  C   UNL     1      34.612 -23.827 -15.879  0.00  0.00    -0.158 C 
ENDROOT
BRANCH   1   5
ATOM      2  S   UNL     1      30.122 -23.364 -15.648  0.00  0.00    +0.037 S 
ATOM      3  O   UNL     1      29.874 -24.755 -15.972  0.00  0.00    -0.158 OA
ATOM      4  O   UNL     1      29.027 -22.448 -15.397  0.00  0.00    -0.158 OA
ATOM      5  N   UNL     1      33.281 -23.253 -15.677  0.00  0.00    +0.387 N 
ATOM      6  N   UNL     1      31.165 -22.678 -16.825  0.00  0.00    -0.205 NA
ATOM      7  C   UNL     1      32.584 -23.948 -14.583  0.00  0.00    -0.051 C 
ATOM      8  C   UNL     1      32.508 -23.310 -16.927  0.00  0.00    +0.015 C 
ATOM      9  C   UNL     1      31.237 -23.303 -14.260  0.00  0.00    +0.146 C 
ATOM     10  H   UNL     1      33.379 -22.273 -15.412  0.00  0.00    -0.081 HD
ATOM     11  H   UNL     1      31.297 -21.692 -16.594  0.00  0.00    +0.146 HD
ENDBRANCH   1   5
BRANCH   1  15
ATOM     12  S   UNL     1      37.721 -24.675 -12.710  0.00  0.00    +0.037 S 
ATOM     13  O   UNL     1      38.830 -24.498 -13.627  0.00  0.00    -0.158 OA
ATOM     14  O   UNL     1      37.949 -25.005 -11.317  0.00  0.00    -0.158 OA
ATOM     15  N   UNL     1      35.241 -24.121 -14.591  0.00  0.00    +0.387 N 
ATOM     16  N   UNL     1      36.600 -25.793 -13.373  0.00  0.00    -0.205 NA
ATOM     17  C   UNL     1      36.112 -23.007 -14.181  0.00  0.00    -0.051 C 
ATOM     18  C   UNL     1      35.988 -25.385 -14.666  0.00  0.00    +0.015 C 
ATOM     19  C   UNL     1      36.697 -23.219 -12.785  0.00  0.00    +0.146 C 
ATOM     20  H   UNL     1      34.515 -24.227 -13.882  0.00  0.00    -0.081 HD
ATOM     21  H   UNL     1      35.849 -25.924 -12.696  0.00  0.00    +0.146 HD
ENDBRANCH   1  15
TORSDOF 2
ENDMDL
MODEL 7
REMARK VINA RESULT:      -7.6      3.134      6.758
REMARK  Name = 29566
REMARK  2 active torsions:
REMARK  status: ('A' for Active; 'I' for Inactive)
REMARK    1  A    between atoms: C_1  and  N_5
REMARK    2  A    between atoms: C_1  and  N_15
REMARK                            x       y       z     vdW  Elec       q    Type
REMARK                         _______ _______ _______ _____ _____    ______ ____
ROOT
ATOM      1  C   UNL     1      35.052 -23.453 -14.643  0.00  0.00    -0.158 C 
ENDROOT
BRANCH   1   5
ATOM      2  S   UNL     1      38.815 -25.923 -14.230  0.00  0.00    +0.037 S 
ATOM      3  O   UNL     1      38.616 -26.148 -12.812  0.00  0.00    -0.158 OA
ATOM      4  O   UNL     1      39.961 -26.478 -14.921  0.00  0.00    -0.158 OA
ATOM      5  N   UNL     1      36.280 -24.181 -14.963  0.00  0.00    +0.387 N 
ATOM      6  N   UNL     1      38.722 -24.242 -14.563  0.00  0.00    -0.205 NA
ATOM      7  C   UNL     1      36.121 -25.613 -14.659  0.00  0.00    -0.051 C 
ATOM      8  C   UNL     1      37.419 -23.602 -14.235  0.00  0.00    +0.015 C 
ATOM      9  C   UNL     1      37.338 -26.430 -15.089  0.00  0.00    +0.146 C 
ATOM     10  H   UNL     1      36.468 -24.093 -15.961  0.00  0.00    -0.081 HD
ATOM     11  H   UNL     1      38.898 -24.107 -15.558  0.00  0.00    +0.146 HD
ENDBRANCH   1   5
BRANCH   1  15
ATOM     12  S   UNL     1      33.617 -22.794 -18.877  0.00  0.00    +0.037 S 
ATOM     13  O   UNL     1      33.837 -24.175 -19.259  0.00  0.00    -0.158 OA
ATOM     14  O   UNL     1      33.093 -21.830 -19.826  0.00  0.00    -0.158 OA
ATOM     15  N   UNL     1      34.506 -22.821 -15.844  0.00  0.00    +0.387 N 
ATOM     16  N   UNL     1      35.044 -22.160 -18.167  0.00  0.00    -0.205 NA
ATOM     17  C   UNL     1      33.251 -23.479 -16.244  0.00  0.00    -0.051 C 
ATOM     18  C   UNL     1      35.497 -22.850 -16.929  0.00  0.00    +0.015 C 
ATOM     19  C   UNL     1      32.585 -22.774 -17.425  0.00  0.00    +0.146 C 
ATOM     20  H   UNL     1      34.294 -21.843 -15.638  0.00  0.00    -0.081 HD
ATOM     21  H   UNL     1      34.874 -21.180 -17.938  0.00  0.00    +0.146 HD
ENDBRANCH   1  15
TORSDOF 2
ENDMDL
MODEL 8
REMARK VINA RESULT:      -7.6      2.213      2.863
REMARK  Name = 29566
REMARK  2 active torsions:
REMARK  status: ('A' for Active; 'I' for Inactive)
REMARK    1  A    between atoms: C_1  and  N_5
REMARK    2  A    between atoms: C_1  and  N_15
REMARK                            x       y       z     vdW  Elec       q    Type
REMARK                         _______ _______ _______ _____ _____    ______ ____
ROOT
ATOM      1  C   UNL     1      32.217 -24.163 -13.894  0.00  0.00    -0.158 C 
ENDROOT
BRANCH   1   5
ATOM      2  S   UNL     1      28.478 -23.646 -16.380  0.00  0.00    +0.037 S 
ATOM      3  O   UNL     1      27.673 -23.246 -15.243  0.00  0.00    -0.158 OA
ATOM      4  O   UNL     1      27.906 -23.726 -17.709  0.00  0.00    -0.158 OA
ATOM      5  N   UNL     1      31.303 -24.098 -15.035  0.00  0.00    +0.387 N 
ATOM      6  N   UNL     1      29.278 -25.121 -16.026  0.00  0.00    -0.205 NA
ATOM      7  C   UNL     1      30.780 -22.732 -15.195  0.00  0.00    -0.051 C 
ATOM      8  C   UNL     1      30.214 -25.073 -14.869  0.00  0.00    +0.015 C 
ATOM      9  C   UNL     1      29.913 -22.592 -16.446  0.00  0.00    +0.146 C 
ATOM     10  H   UNL     1      31.813 -24.339 -15.884  0.00  0.00    -0.081 HD
ATOM     11  H   UNL     1      29.811 -25.398 -16.851  0.00  0.00    +0.146 HD
ENDBRANCH   1   5
BRANCH   1  15
ATOM     12  S   UNL     1      36.523 -23.492 -15.093  0.00  0.00    +0.037 S 
ATOM     13  O   UNL     1      36.763 -24.899 -15.345  0.00  0.00    -0.158 OA
ATOM     14  O   UNL     1      37.571 -22.509 -15.284  0.00  0.00    -0.158 OA
ATOM     15  N   UNL     1      33.485 -23.508 -14.219  0.00  0.00    +0.387 N 
ATOM     16  N   UNL     1      35.851 -23.295 -13.526  0.00  0.00    -0.205 NA
ATOM     17  C   UNL     1      33.842 -23.754 -15.625  0.00  0.00    -0.051 C 
ATOM     18  C   UNL     1      34.543 -23.970 -13.308  0.00  0.00    +0.015 C 
ATOM     19  C   UNL     1      35.099 -22.990 -16.040  0.00  0.00    +0.146 C 
ATOM     20  H   UNL     1      33.381 -22.500 -14.094  0.00  0.00    -0.081 HD
ATOM     21  H   UNL     1      35.723 -22.297 -13.361  0.00  0.00    +0.146 HD
ENDBRANCH   1  15
TORSDOF 2
ENDMDL
MODEL 9
REMARK VINA RESULT:      -7.6      8.541      9.950
REMARK  Name = 29566
REMARK  2 active torsions:
REMARK  status: ('A' for Active; 'I' for Inactive)
REMARK    1  A    between atoms: C_1  and  N_5
REMARK    2  A    between atoms: C_1  and  N_15
REMARK                            x       y       z     vdW  Elec       q    Type
REMARK                         _______ _______ _______ _____ _____    ______ ____
ROOT
ATOM      1  C   UNL     1      35.861 -19.636 -21.009  0.00  0.00    -0.158 C 
ENDROOT
BRANCH   1   5
ATOM      2  S   UNL     1      33.715 -22.762 -18.548  0.00  0.00    +0.037 S 
ATOM      3  O   UNL     1      33.888 -23.795 -19.551  0.00  0.00    -0.158 OA
ATOM      4  O   UNL     1      33.030 -23.038 -17.301  0.00  0.00    -0.158 OA
ATOM      5  N   UNL     1      35.158 -20.301 -19.911  0.00  0.00    +0.387 N 
ATOM      6  N   UNL     1      33.019 -21.371 -19.272  0.00  0.00    -0.205 NA
ATOM      7  C   UNL     1      35.958 -21.425 -19.398  0.00  0.00    -0.051 C 
ATOM      8  C   UNL     1      33.828 -20.747 -20.354  0.00  0.00    +0.015 C 
ATOM      9  C   UNL     1      35.316 -22.074 -18.173  0.00  0.00    +0.146 C 
ATOM     10  H   UNL     1      35.028 -19.637 -19.148  0.00  0.00    -0.081 HD
ATOM     11  H   UNL     1      32.877 -20.673 -18.542  0.00  0.00    +0.146 HD
ENDBRANCH   1   5
BRANCH   1  15
ATOM     12  S   UNL     1      34.338 -16.059 -23.314  0.00  0.00    +0.037 S 
ATOM     13  O   UNL     1      35.666 -15.517 -23.520  0.00  0.00    -0.158 OA
ATOM     14  O   UNL     1      33.165 -15.383 -23.834  0.00  0.00    -0.158 OA
ATOM     15  N   UNL     1      34.969 -18.698 -21.691  0.00  0.00    +0.387 N 
ATOM     16  N   UNL     1      34.102 -16.381 -21.644  0.00  0.00    -0.205 NA
ATOM     17  C   UNL     1      35.306 -18.621 -23.122  0.00  0.00    -0.051 C 
ATOM     18  C   UNL     1      35.036 -17.375 -21.052  0.00  0.00    +0.015 C 
ATOM     19  C   UNL     1      34.324 -17.743 -23.897  0.00  0.00    +0.146 C 
ATOM     20  H   UNL     1      34.009 -19.036 -21.614  0.00  0.00    -0.081 HD
ATOM     21  H   UNL     1      33.151 -16.728 -21.522  0.00  0.00    +0.146 HD
ENDBRANCH   1  15
TORSDOF 2
ENDMDL
