MODEL 1
REMARK VINA RESULT:     -11.5      0.000      0.000
REMARK  Name = 61791
REMARK  8 active torsions:
REMARK  status: ('A' for Active; 'I' for Inactive)
REMARK    1  A    between atoms: N_1  and  C_22
REMARK    2  A    between atoms: C_2  and  N_10
REMARK    3  A    between atoms: C_17  and  C_20
REMARK    4  A    between atoms: C_22  and  C_23
REMARK    5  A    between atoms: C_23  and  C_24
REMARK    6  A    between atoms: C_24  and  C_25
REMARK    7  A    between atoms: C_24  and  C_31
REMARK    8  A    between atoms: C_24  and  C_38
REMARK                            x       y       z     vdW  Elec       q    Type
REMARK                         _______ _______ _______ _____ _____    ______ ____
ROOT
ATOM      1  N   UNL     1      35.692 -20.727 -19.330  0.00  0.00    +0.387 N 
ATOM      2  C   UNL     1      35.736 -22.781 -17.247  0.00  0.00    +0.086 C 
ATOM      3  C   UNL     1      36.531 -21.481 -17.128  0.00  0.00    -0.000 C 
ATOM      4  C   UNL     1      34.536 -22.585 -18.173  0.00  0.00    -0.000 C 
ATOM      5  C   UNL     1      36.892 -20.923 -18.507  0.00  0.00    -0.075 C 
ATOM      6  C   UNL     1      34.964 -21.990 -19.517  0.00  0.00    -0.075 C 
ATOM      7  H   UNL     1      35.075 -20.079 -18.840  0.00  0.00    -0.080 HD
ENDROOT
BRANCH   2  10
ATOM      8  O   UNL     1      37.387 -23.644 -14.898  0.00  0.00    -0.246 OA
ATOM      9  O   UNL     1      34.795 -24.824 -11.628  0.00  0.00    -0.271 OA
ATOM     10  N   UNL     1      35.313 -23.252 -15.952  0.00  0.00    -0.282 N 
ATOM     11  N   UNL     1      35.278 -24.040 -13.790  0.00  0.00    -0.229 N 
ATOM     12  C   UNL     1      33.978 -23.386 -15.562  0.00  0.00    +0.080 A 
ATOM     13  C   UNL     1      36.164 -23.644 -14.885  0.00  0.00    +0.337 A 
ATOM     14  C   UNL     1      33.943 -23.864 -14.251  0.00  0.00    +0.087 A 
ATOM     15  C   UNL     1      32.829 -23.117 -16.285  0.00  0.00    +0.019 C 
ATOM     16  C   UNL     1      32.731 -24.087 -13.621  0.00  0.00    +0.019 C 
ATOM     17  C   UNL     1      35.600 -24.510 -12.504  0.00  0.00    +0.245 C 
ATOM     18  C   UNL     1      31.605 -23.341 -15.655  0.00  0.00    +0.002 C 
ATOM     19  C   UNL     1      31.556 -23.821 -14.336  0.00  0.00    +0.002 C 
BRANCH  17  20
ATOM     20  C   UNL     1      37.078 -24.619 -12.223  0.00  0.00    +0.089 C 
ATOM     21  C   UNL     1      37.540 -26.040 -12.438  0.00  0.00    +0.010 C 
ENDBRANCH  17  20
ENDBRANCH   2  10
BRANCH   1  22
ATOM     22  C   UNL     1      36.048 -20.147 -20.625  0.00  0.00    -0.076 C 
BRANCH  22  23
ATOM     23  C   UNL     1      35.669 -18.655 -20.653  0.00  0.00    -0.000 C 
BRANCH  23  24
ATOM     24  C   UNL     1      34.342 -18.315 -21.427  0.00  0.00    +0.115 C 
BRANCH  24  25
ATOM     25  C   UNL     1      34.497 -18.398 -22.970  0.00  0.00    -0.006 C 
ATOM     26  C   UNL     1      34.535 -17.226 -23.670  0.00  0.00    -0.003 C 
ATOM     27  C   UNL     1      34.585 -19.637 -23.536  0.00  0.00    -0.003 C 
ATOM     28  C   UNL     1      34.674 -17.300 -25.056  0.00  0.00    -0.000 C 
ATOM     29  C   UNL     1      34.724 -19.712 -24.921  0.00  0.00    -0.000 C 
ATOM     30  C   UNL     1      34.769 -18.543 -25.681  0.00  0.00    -0.000 C 
ENDBRANCH  24  25
BRANCH  24  31
ATOM     31  C   UNL     1      33.899 -16.884 -21.034  0.00  0.00    -0.006 C 
ATOM     32  C   UNL     1      32.558 -16.631 -20.940  0.00  0.00    -0.003 C 
ATOM     33  C   UNL     1      34.873 -15.952 -20.805  0.00  0.00    -0.003 C 
ATOM     34  C   UNL     1      32.160 -15.342 -20.586  0.00  0.00    -0.000 C 
ATOM     35  C   UNL     1      34.475 -14.663 -20.452  0.00  0.00    -0.000 C 
ATOM     36  C   UNL     1      33.118 -14.358 -20.342  0.00  0.00    -0.000 C 
ENDBRANCH  24  31
BRANCH  24  38
ATOM     37  N   UNL     1      32.582 -20.180 -20.738  0.00  0.00    -0.195 NA
ATOM     38  C   UNL     1      33.353 -19.370 -21.047  0.00  0.00    +0.079 C 
ENDBRANCH  24  38
ENDBRANCH  23  24
ENDBRANCH  22  23
ENDBRANCH   1  22
TORSDOF 8
ENDMDL
MODEL 2
REMARK VINA RESULT:     -11.2      5.414     11.281
REMARK  Name = 61791
REMARK  8 active torsions:
REMARK  status: ('A' for Active; 'I' for Inactive)
REMARK    1  A    between atoms: N_1  and  C_22
REMARK    2  A    between atoms: C_2  and  N_10
REMARK    3  A    between atoms: C_17  and  C_20
REMARK    4  A    between atoms: C_22  and  C_23
REMARK    5  A    between atoms: C_23  and  C_24
REMARK    6  A    between atoms: C_24  and  C_25
REMARK    7  A    between atoms: C_24  and  C_31
REMARK    8  A    between atoms: C_24  and  C_38
REMARK                            x       y       z     vdW  Elec       q    Type
REMARK                         _______ _______ _______ _____ _____    ______ ____
ROOT
ATOM      1  N   UNL     1      34.122 -16.503 -23.995  0.00  0.00    +0.387 N 
ATOM      2  C   UNL     1      34.023 -13.589 -24.232  0.00  0.00    +0.086 C 
ATOM      3  C   UNL     1      32.876 -14.485 -24.698  0.00  0.00    -0.000 C 
ATOM      4  C   UNL     1      34.835 -14.291 -23.143  0.00  0.00    -0.000 C 
ATOM      5  C   UNL     1      33.383 -15.873 -25.096  0.00  0.00    -0.075 C 
ATOM      6  C   UNL     1      35.276 -15.686 -23.593  0.00  0.00    -0.075 C 
ATOM      7  H   UNL     1      33.494 -16.576 -23.194  0.00  0.00    -0.080 HD
ENDROOT
BRANCH   2  10
ATOM      8  O   UNL     1      31.897 -12.993 -22.205  0.00  0.00    -0.246 OA
ATOM      9  O   UNL     1      31.435  -8.703 -21.769  0.00  0.00    -0.271 OA
ATOM     10  N   UNL     1      33.532 -12.317 -23.765  0.00  0.00    -0.282 N 
ATOM     11  N   UNL     1      32.368 -10.668 -22.658  0.00  0.00    -0.229 N 
ATOM     12  C   UNL     1      34.002 -11.080 -24.214  0.00  0.00    +0.080 A 
ATOM     13  C   UNL     1      32.515 -12.117 -22.795  0.00  0.00    +0.337 A 
ATOM     14  C   UNL     1      33.304 -10.070 -23.550  0.00  0.00    +0.087 A 
ATOM     15  C   UNL     1      34.985 -10.810 -25.150  0.00  0.00    +0.019 C 
ATOM     16  C   UNL     1      33.580  -8.740 -23.814  0.00  0.00    +0.019 C 
ATOM     17  C   UNL     1      31.501  -9.930 -21.833  0.00  0.00    +0.245 C 
ATOM     18  C   UNL     1      35.266  -9.471 -25.421  0.00  0.00    +0.002 C 
ATOM     19  C   UNL     1      34.571  -8.446 -24.759  0.00  0.00    +0.002 C 
BRANCH  17  20
ATOM     20  C   UNL     1      30.593 -10.765 -20.965  0.00  0.00    +0.089 C 
ATOM     21  C   UNL     1      31.109 -10.783 -19.547  0.00  0.00    +0.010 C 
ENDBRANCH  17  20
ENDBRANCH   2  10
BRANCH   1  22
ATOM     22  C   UNL     1      34.556 -17.849 -24.372  0.00  0.00    -0.076 C 
BRANCH  22  23
ATOM     23  C   UNL     1      34.103 -18.864 -23.308  0.00  0.00    -0.000 C 
BRANCH  23  24
ATOM     24  C   UNL     1      34.740 -18.671 -21.882  0.00  0.00    +0.115 C 
BRANCH  24  25
ATOM     25  C   UNL     1      34.525 -19.893 -20.947  0.00  0.00    -0.006 C 
ATOM     26  C   UNL     1      33.241 -20.233 -20.630  0.00  0.00    -0.003 C 
ATOM     27  C   UNL     1      35.632 -20.553 -20.498  0.00  0.00    -0.003 C 
ATOM     28  C   UNL     1      33.048 -21.330 -19.790  0.00  0.00    -0.000 C 
ATOM     29  C   UNL     1      35.439 -21.650 -19.658  0.00  0.00    -0.000 C 
ATOM     30  C   UNL     1      34.146 -22.038 -19.305  0.00  0.00    -0.000 C 
ENDBRANCH  24  25
BRANCH  24  31
ATOM     31  C   UNL     1      34.113 -17.413 -21.232  0.00  0.00    -0.006 C 
ATOM     32  C   UNL     1      34.950 -16.528 -20.611  0.00  0.00    -0.003 C 
ATOM     33  C   UNL     1      32.757 -17.259 -21.313  0.00  0.00    -0.003 C 
ATOM     34  C   UNL     1      34.384 -15.395 -20.026  0.00  0.00    -0.000 C 
ATOM     35  C   UNL     1      32.191 -16.127 -20.727  0.00  0.00    -0.000 C 
ATOM     36  C   UNL     1      33.005 -15.195 -20.083  0.00  0.00    -0.000 C 
ENDBRANCH  24  31
BRANCH  24  38
ATOM     37  N   UNL     1      37.364 -18.482 -22.246  0.00  0.00    -0.195 NA
ATOM     38  C   UNL     1      36.215 -18.559 -22.095  0.00  0.00    +0.079 C 
ENDBRANCH  24  38
ENDBRANCH  23  24
ENDBRANCH  22  23
ENDBRANCH   1  22
TORSDOF 8
ENDMDL
MODEL 3
REMARK VINA RESULT:     -10.9      0.884      3.248
REMARK  Name = 61791
REMARK  8 active torsions:
REMARK  status: ('A' for Active; 'I' for Inactive)
REMARK    1  A    between atoms: N_1  and  C_22
REMARK    2  A    between atoms: C_2  and  N_10
REMARK    3  A    between atoms: C_17  and  C_20
REMARK    4  A    between atoms: C_22  and  C_23
REMARK    5  A    between atoms: C_23  and  C_24
REMARK    6  A    between atoms: C_24  and  C_25
REMARK    7  A    between atoms: C_24  and  C_31
REMARK    8  A    between atoms: C_24  and  C_38
REMARK                            x       y       z     vdW  Elec       q    Type
REMARK                         _______ _______ _______ _____ _____    ______ ____
ROOT
ATOM      1  N   UNL     1      34.325 -21.245 -19.550  0.00  0.00    +0.387 N 
ATOM      2  C   UNL     1      34.557 -23.218 -17.402  0.00  0.00    +0.086 C 
ATOM      3  C   UNL     1      35.583 -22.102 -17.599  0.00  0.00    -0.000 C 
ATOM      4  C   UNL     1      33.207 -22.806 -17.988  0.00  0.00    -0.000 C 
ATOM      5  C   UNL     1      35.647 -21.660 -19.063  0.00  0.00    -0.075 C 
ATOM      6  C   UNL     1      33.351 -22.340 -19.439  0.00  0.00    -0.075 C 
ATOM      7  H   UNL     1      34.001 -20.475 -18.965  0.00  0.00    -0.080 HD
ENDROOT
BRANCH   2  10
ATOM      8  O   UNL     1      36.632 -24.221 -15.485  0.00  0.00    -0.246 OA
ATOM      9  O   UNL     1      34.850 -24.856 -11.583  0.00  0.00    -0.271 OA
ATOM     10  N   UNL     1      34.428 -23.564 -16.009  0.00  0.00    -0.282 N 
ATOM     11  N   UNL     1      34.853 -24.246 -13.852  0.00  0.00    -0.229 N 
ATOM     12  C   UNL     1      33.236 -23.479 -15.285  0.00  0.00    +0.080 A 
ATOM     13  C   UNL     1      35.466 -24.035 -15.163  0.00  0.00    +0.337 A 
ATOM     14  C   UNL     1      33.479 -23.891 -13.974  0.00  0.00    +0.087 A 
ATOM     15  C   UNL     1      31.985 -23.069 -15.713  0.00  0.00    +0.019 C 
ATOM     16  C   UNL     1      32.456 -23.901 -13.043  0.00  0.00    +0.019 C 
ATOM     17  C   UNL     1      35.433 -24.705 -12.656  0.00  0.00    +0.245 C 
ATOM     18  C   UNL     1      30.949 -23.079 -14.780  0.00  0.00    +0.002 C 
ATOM     19  C   UNL     1      31.182 -23.491 -13.457  0.00  0.00    +0.002 C 
BRANCH  17  20
ATOM     20  C   UNL     1      36.904 -25.024 -12.750  0.00  0.00    +0.089 C 
ATOM     21  C   UNL     1      37.705 -23.986 -12.003  0.00  0.00    +0.010 C 
ENDBRANCH  17  20
ENDBRANCH   2  10
BRANCH   1  22
ATOM     22  C   UNL     1      34.413 -20.778 -20.933  0.00  0.00    -0.076 C 
BRANCH  22  23
ATOM     23  C   UNL     1      33.641 -19.455 -21.090  0.00  0.00    -0.000 C 
BRANCH  23  24
ATOM     24  C   UNL     1      34.508 -18.223 -21.547  0.00  0.00    +0.115 C 
BRANCH  24  25
ATOM     25  C   UNL     1      33.941 -16.863 -21.058  0.00  0.00    -0.006 C 
ATOM     26  C   UNL     1      32.594 -16.772 -20.851  0.00  0.00    -0.003 C 
ATOM     27  C   UNL     1      34.821 -15.838 -20.864  0.00  0.00    -0.003 C 
ATOM     28  C   UNL     1      32.084 -15.551 -20.412  0.00  0.00    -0.000 C 
ATOM     29  C   UNL     1      34.311 -14.616 -20.424  0.00  0.00    -0.000 C 
ATOM     30  C   UNL     1      32.942 -14.473 -20.198  0.00  0.00    -0.000 C 
ENDBRANCH  24  25
BRANCH  24  31
ATOM     31  C   UNL     1      34.579 -18.220 -23.094  0.00  0.00    -0.006 C 
ATOM     32  C   UNL     1      34.609 -17.011 -23.732  0.00  0.00    -0.003 C 
ATOM     33  C   UNL     1      34.607 -19.427 -23.736  0.00  0.00    -0.003 C 
ATOM     34  C   UNL     1      34.673 -17.009 -25.125  0.00  0.00    -0.000 C 
ATOM     35  C   UNL     1      34.670 -19.425 -25.129  0.00  0.00    -0.000 C 
ATOM     36  C   UNL     1      34.703 -18.216 -25.824  0.00  0.00    -0.000 C 
ENDBRANCH  24  31
BRANCH  24  38
ATOM     37  N   UNL     1      36.873 -18.523 -20.376  0.00  0.00    -0.195 NA
ATOM     38  C   UNL     1      35.841 -18.383 -20.889  0.00  0.00    +0.079 C 
ENDBRANCH  24  38
ENDBRANCH  23  24
ENDBRANCH  22  23
ENDBRANCH   1  22
TORSDOF 8
ENDMDL
MODEL 4
REMARK VINA RESULT:     -10.8      6.014     11.561
REMARK  Name = 61791
REMARK  8 active torsions:
REMARK  status: ('A' for Active; 'I' for Inactive)
REMARK    1  A    between atoms: N_1  and  C_22
REMARK    2  A    between atoms: C_2  and  N_10
REMARK    3  A    between atoms: C_17  and  C_20
REMARK    4  A    between atoms: C_22  and  C_23
REMARK    5  A    between atoms: C_23  and  C_24
REMARK    6  A    between atoms: C_24  and  C_25
REMARK    7  A    between atoms: C_24  and  C_31
REMARK    8  A    between atoms: C_24  and  C_38
REMARK                            x       y       z     vdW  Elec       q    Type
REMARK                         _______ _______ _______ _____ _____    ______ ____
ROOT
ATOM      1  N   UNL     1      33.963 -16.176 -24.082  0.00  0.00    +0.387 N 
ATOM      2  C   UNL     1      34.083 -13.264 -24.341  0.00  0.00    +0.086 C 
ATOM      3  C   UNL     1      32.907 -14.084 -24.874  0.00  0.00    -0.000 C 
ATOM      4  C   UNL     1      34.773 -14.010 -23.199  0.00  0.00    -0.000 C 
ATOM      5  C   UNL     1      33.340 -15.508 -25.231  0.00  0.00    -0.075 C 
ATOM      6  C   UNL     1      35.143 -15.437 -23.612  0.00  0.00    -0.075 C 
ATOM      7  H   UNL     1      33.282 -16.197 -23.322  0.00  0.00    -0.080 HD
ENDROOT
BRANCH   2  10
ATOM      8  O   UNL     1      34.985 -10.561 -25.271  0.00  0.00    -0.246 OA
ATOM      9  O   UNL     1      32.837  -7.469 -23.120  0.00  0.00    -0.271 OA
ATOM     10  N   UNL     1      33.653 -11.957 -23.914  0.00  0.00    -0.282 N 
ATOM     11  N   UNL     1      33.401  -9.681 -23.674  0.00  0.00    -0.229 N 
ATOM     12  C   UNL     1      32.682 -11.729 -22.935  0.00  0.00    +0.080 A 
ATOM     13  C   UNL     1      34.132 -10.715 -24.407  0.00  0.00    +0.337 A 
ATOM     14  C   UNL     1      32.520 -10.352 -22.779  0.00  0.00    +0.087 A 
ATOM     15  C   UNL     1      31.957 -12.649 -22.198  0.00  0.00    +0.019 C 
ATOM     16  C   UNL     1      31.610  -9.855 -21.864  0.00  0.00    +0.019 C 
ATOM     17  C   UNL     1      33.491  -8.281 -23.773  0.00  0.00    +0.245 C 
ATOM     18  C   UNL     1      31.039 -12.154 -21.272  0.00  0.00    +0.002 C 
ATOM     19  C   UNL     1      30.867 -10.769 -21.106  0.00  0.00    +0.002 C 
BRANCH  17  20
ATOM     20  C   UNL     1      34.490  -7.783 -24.787  0.00  0.00    +0.089 C 
ATOM     21  C   UNL     1      34.193  -6.345 -25.138  0.00  0.00    +0.010 C 
ENDBRANCH  17  20
ENDBRANCH   2  10
BRANCH   1  22
ATOM     22  C   UNL     1      34.325 -17.552 -24.423  0.00  0.00    -0.076 C 
BRANCH  22  23
ATOM     23  C   UNL     1      33.805 -18.516 -23.341  0.00  0.00    -0.000 C 
BRANCH  23  24
ATOM     24  C   UNL     1      34.521 -18.404 -21.944  0.00  0.00    +0.115 C 
BRANCH  24  25
ATOM     25  C   UNL     1      34.287 -19.643 -21.038  0.00  0.00    -0.006 C 
ATOM     26  C   UNL     1      32.997 -20.013 -20.786  0.00  0.00    -0.003 C 
ATOM     27  C   UNL     1      35.385 -20.288 -20.545  0.00  0.00    -0.003 C 
ATOM     28  C   UNL     1      32.787 -21.126 -19.972  0.00  0.00    -0.000 C 
ATOM     29  C   UNL     1      35.175 -21.401 -19.731  0.00  0.00    -0.000 C 
ATOM     30  C   UNL     1      33.875 -21.820 -19.445  0.00  0.00    -0.000 C 
ENDBRANCH  24  25
BRANCH  24  31
ATOM     31  C   UNL     1      33.995 -17.137 -21.224  0.00  0.00    -0.006 C 
ATOM     32  C   UNL     1      34.908 -16.318 -20.620  0.00  0.00    -0.003 C 
ATOM     33  C   UNL     1      32.647 -16.910 -21.231  0.00  0.00    -0.003 C 
ATOM     34  C   UNL     1      34.433 -15.177 -19.971  0.00  0.00    -0.000 C 
ATOM     35  C   UNL     1      32.172 -15.770 -20.582  0.00  0.00    -0.000 C 
ATOM     36  C   UNL     1      33.066 -14.904 -19.952  0.00  0.00    -0.000 C 
ENDBRANCH  24  31
BRANCH  24  38
ATOM     37  N   UNL     1      37.130 -18.325 -22.432  0.00  0.00    -0.195 NA
ATOM     38  C   UNL     1      35.988 -18.361 -22.227  0.00  0.00    +0.079 C 
ENDBRANCH  24  38
ENDBRANCH  23  24
ENDBRANCH  22  23
ENDBRANCH   1  22
TORSDOF 8
ENDMDL
MODEL 5
REMARK VINA RESULT:     -10.8      1.210      2.791
REMARK  Name = 61791
REMARK  8 active torsions:
REMARK  status: ('A' for Active; 'I' for Inactive)
REMARK    1  A    between atoms: N_1  and  C_22
REMARK    2  A    between atoms: C_2  and  N_10
REMARK    3  A    between atoms: C_17  and  C_20
REMARK    4  A    between atoms: C_22  and  C_23
REMARK    5  A    between atoms: C_23  and  C_24
REMARK    6  A    between atoms: C_24  and  C_25
REMARK    7  A    between atoms: C_24  and  C_31
REMARK    8  A    between atoms: C_24  and  C_38
REMARK                            x       y       z     vdW  Elec       q    Type
REMARK                         _______ _______ _______ _____ _____    ______ ____
ROOT
ATOM      1  N   UNL     1      35.667 -20.588 -19.505  0.00  0.00    +0.387 N 
ATOM      2  C   UNL     1      35.459 -22.792 -17.591  0.00  0.00    +0.086 C 
ATOM      3  C   UNL     1      36.253 -21.521 -17.289  0.00  0.00    -0.000 C 
ATOM      4  C   UNL     1      34.369 -22.502 -18.623  0.00  0.00    -0.000 C 
ATOM      5  C   UNL     1      36.768 -20.870 -18.575  0.00  0.00    -0.075 C 
ATOM      6  C   UNL     1      34.947 -21.818 -19.864  0.00  0.00    -0.075 C 
ATOM      7  H   UNL     1      35.010 -19.965 -19.035  0.00  0.00    -0.080 HD
ENDROOT
BRANCH   2  10
ATOM      8  O   UNL     1      32.583 -23.152 -16.827  0.00  0.00    -0.246 OA
ATOM      9  O   UNL     1      32.316 -24.966 -12.897  0.00  0.00    -0.271 OA
ATOM     10  N   UNL     1      34.892 -23.348 -16.388  0.00  0.00    -0.282 N 
ATOM     11  N   UNL     1      33.433 -24.096 -14.773  0.00  0.00    -0.229 N 
ATOM     12  C   UNL     1      35.645 -23.840 -15.319  0.00  0.00    +0.080 A 
ATOM     13  C   UNL     1      33.509 -23.485 -16.100  0.00  0.00    +0.337 A 
ATOM     14  C   UNL     1      34.771 -24.297 -14.331  0.00  0.00    +0.087 A 
ATOM     15  C   UNL     1      37.021 -23.902 -15.179  0.00  0.00    +0.019 C 
ATOM     16  C   UNL     1      35.265 -24.839 -13.158  0.00  0.00    +0.019 C 
ATOM     17  C   UNL     1      32.303 -24.449 -14.014  0.00  0.00    +0.245 C 
ATOM     18  C   UNL     1      37.524 -24.445 -13.997  0.00  0.00    +0.002 C 
ATOM     19  C   UNL     1      36.655 -24.910 -12.996  0.00  0.00    +0.002 C 
BRANCH  17  20
ATOM     20  C   UNL     1      30.980 -24.149 -14.673  0.00  0.00    +0.089 C 
ATOM     21  C   UNL     1      30.163 -25.413 -14.788  0.00  0.00    +0.010 C 
ENDBRANCH  17  20
ENDBRANCH   2  10
BRANCH   1  22
ATOM     22  C   UNL     1      36.169 -19.921 -20.706  0.00  0.00    -0.076 C 
BRANCH  22  23
ATOM     23  C   UNL     1      35.732 -18.445 -20.708  0.00  0.00    -0.000 C 
BRANCH  23  24
ATOM     24  C   UNL     1      34.386 -18.145 -21.467  0.00  0.00    +0.115 C 
BRANCH  24  25
ATOM     25  C   UNL     1      34.523 -18.234 -23.011  0.00  0.00    -0.006 C 
ATOM     26  C   UNL     1      34.590 -19.477 -23.573  0.00  0.00    -0.003 C 
ATOM     27  C   UNL     1      34.571 -17.065 -23.715  0.00  0.00    -0.003 C 
ATOM     28  C   UNL     1      34.714 -19.557 -24.960  0.00  0.00    -0.000 C 
ATOM     29  C   UNL     1      34.695 -17.146 -25.102  0.00  0.00    -0.000 C 
ATOM     30  C   UNL     1      34.766 -18.392 -25.724  0.00  0.00    -0.000 C 
ENDBRANCH  24  25
BRANCH  24  31
ATOM     31  C   UNL     1      33.910 -16.723 -21.077  0.00  0.00    -0.006 C 
ATOM     32  C   UNL     1      32.566 -16.515 -20.933  0.00  0.00    -0.003 C 
ATOM     33  C   UNL     1      34.860 -15.756 -20.901  0.00  0.00    -0.003 C 
ATOM     34  C   UNL     1      32.139 -15.234 -20.582  0.00  0.00    -0.000 C 
ATOM     35  C   UNL     1      34.432 -14.476 -20.551  0.00  0.00    -0.000 C 
ATOM     36  C   UNL     1      33.071 -14.215 -20.392  0.00  0.00    -0.000 C 
ENDBRANCH  24  31
BRANCH  24  38
ATOM     37  N   UNL     1      32.677 -20.051 -20.759  0.00  0.00    -0.195 NA
ATOM     38  C   UNL     1      33.431 -19.223 -21.067  0.00  0.00    +0.079 C 
ENDBRANCH  24  38
ENDBRANCH  23  24
ENDBRANCH  22  23
ENDBRANCH   1  22
TORSDOF 8
ENDMDL
MODEL 6
REMARK VINA RESULT:     -10.5      3.478     10.290
REMARK  Name = 61791
REMARK  8 active torsions:
REMARK  status: ('A' for Active; 'I' for Inactive)
REMARK    1  A    between atoms: N_1  and  C_22
REMARK    2  A    between atoms: C_2  and  N_10
REMARK    3  A    between atoms: C_17  and  C_20
REMARK    4  A    between atoms: C_22  and  C_23
REMARK    5  A    between atoms: C_23  and  C_24
REMARK    6  A    between atoms: C_24  and  C_25
REMARK    7  A    between atoms: C_24  and  C_31
REMARK    8  A    between atoms: C_24  and  C_38
REMARK                            x       y       z     vdW  Elec       q    Type
REMARK                         _______ _______ _______ _____ _____    ______ ____
ROOT
ATOM      1  N   UNL     1      34.675 -20.995 -20.355  0.00  0.00    +0.387 N 
ATOM      2  C   UNL     1      34.155 -18.143 -20.755  0.00  0.00    +0.086 C 
ATOM      3  C   UNL     1      35.508 -18.779 -21.074  0.00  0.00    -0.000 C 
ATOM      4  C   UNL     1      33.047 -19.193 -20.832  0.00  0.00    -0.000 C 
ATOM      5  C   UNL     1      35.759 -20.015 -20.207  0.00  0.00    -0.075 C 
ATOM      6  C   UNL     1      33.379 -20.415 -19.973  0.00  0.00    -0.075 C 
ATOM      7  H   UNL     1      34.622 -21.261 -21.338  0.00  0.00    -0.080 HD
ENDROOT
BRANCH   2  10
ATOM      8  O   UNL     1      32.991 -15.451 -20.140  0.00  0.00    -0.246 OA
ATOM      9  O   UNL     1      32.713 -13.098 -23.772  0.00  0.00    -0.271 OA
ATOM     10  N   UNL     1      33.879 -17.039 -21.640  0.00  0.00    -0.282 N 
ATOM     11  N   UNL     1      33.234 -15.005 -22.501  0.00  0.00    -0.229 N 
ATOM     12  C   UNL     1      34.129 -17.053 -23.015  0.00  0.00    +0.080 A 
ATOM     13  C   UNL     1      33.323 -15.787 -21.268  0.00  0.00    +0.337 A 
ATOM     14  C   UNL     1      33.741 -15.823 -23.550  0.00  0.00    +0.087 A 
ATOM     15  C   UNL     1      34.664 -18.064 -23.793  0.00  0.00    +0.019 C 
ATOM     16  C   UNL     1      33.884 -15.574 -24.903  0.00  0.00    +0.019 C 
ATOM     17  C   UNL     1      32.756 -13.697 -22.698  0.00  0.00    +0.245 C 
ATOM     18  C   UNL     1      34.809 -17.819 -25.158  0.00  0.00    +0.002 C 
ATOM     19  C   UNL     1      34.423 -16.585 -25.708  0.00  0.00    +0.002 C 
BRANCH  17  20
ATOM     20  C   UNL     1      32.265 -13.009 -21.448  0.00  0.00    +0.089 C 
ATOM     21  C   UNL     1      31.523 -11.746 -21.813  0.00  0.00    +0.010 C 
ENDBRANCH  17  20
ENDBRANCH   2  10
BRANCH   1  22
ATOM     22  C   UNL     1      34.953 -22.191 -19.560  0.00  0.00    -0.076 C 
BRANCH  22  23
ATOM     23  C   UNL     1      34.551 -21.953 -18.093  0.00  0.00    -0.000 C 
BRANCH  23  24
ATOM     24  C   UNL     1      34.161 -23.246 -17.286  0.00  0.00    +0.115 C 
BRANCH  24  25
ATOM     25  C   UNL     1      32.864 -23.075 -16.450  0.00  0.00    -0.006 C 
ATOM     26  C   UNL     1      31.686 -22.925 -17.124  0.00  0.00    -0.003 C 
ATOM     27  C   UNL     1      32.978 -23.084 -15.089  0.00  0.00    -0.003 C 
ATOM     28  C   UNL     1      30.521 -22.771 -16.373  0.00  0.00    -0.000 C 
ATOM     29  C   UNL     1      31.813 -22.930 -14.338  0.00  0.00    -0.000 C 
ATOM     30  C   UNL     1      30.584 -22.774 -14.980  0.00  0.00    -0.000 C 
ENDBRANCH  24  25
BRANCH  24  31
ATOM     31  C   UNL     1      35.334 -23.607 -16.342  0.00  0.00    -0.006 C 
ATOM     32  C   UNL     1      36.339 -22.692 -16.191  0.00  0.00    -0.003 C 
ATOM     33  C   UNL     1      35.301 -24.821 -15.714  0.00  0.00    -0.003 C 
ATOM     34  C   UNL     1      37.396 -23.017 -15.340  0.00  0.00    -0.000 C 
ATOM     35  C   UNL     1      36.358 -25.147 -14.865  0.00  0.00    -0.000 C 
ATOM     36  C   UNL     1      37.406 -24.244 -14.678  0.00  0.00    -0.000 C 
ENDBRANCH  24  31
BRANCH  24  38
ATOM     37  N   UNL     1      33.637 -25.110 -19.105  0.00  0.00    -0.195 NA
ATOM     38  C   UNL     1      33.868 -24.302 -18.304  0.00  0.00    +0.079 C 
ENDBRANCH  24  38
ENDBRANCH  23  24
ENDBRANCH  22  23
ENDBRANCH   1  22
TORSDOF 8
ENDMDL
MODEL 7
REMARK VINA RESULT:     -10.4      6.069     11.935
REMARK  Name = 61791
REMARK  8 active torsions:
REMARK  status: ('A' for Active; 'I' for Inactive)
REMARK    1  A    between atoms: N_1  and  C_22
REMARK    2  A    between atoms: C_2  and  N_10
REMARK    3  A    between atoms: C_17  and  C_20
REMARK    4  A    between atoms: C_22  and  C_23
REMARK    5  A    between atoms: C_23  and  C_24
REMARK    6  A    between atoms: C_24  and  C_25
REMARK    7  A    between atoms: C_24  and  C_31
REMARK    8  A    between atoms: C_24  and  C_38
REMARK                            x       y       z     vdW  Elec       q    Type
REMARK                         _______ _______ _______ _____ _____    ______ ____
ROOT
ATOM      1  N   UNL     1      33.735 -15.122 -21.521  0.00  0.00    +0.387 N 
ATOM      2  C   UNL     1      32.724 -12.588 -22.579  0.00  0.00    +0.086 C 
ATOM      3  C   UNL     1      32.752 -12.894 -21.081  0.00  0.00    -0.000 C 
ATOM      4  C   UNL     1      33.788 -13.408 -23.307  0.00  0.00    -0.000 C 
ATOM      5  C   UNL     1      32.664 -14.400 -20.822  0.00  0.00    -0.075 C 
ATOM      6  C   UNL     1      33.666 -14.897 -22.972  0.00  0.00    -0.075 C 
ATOM      7  H   UNL     1      34.629 -14.760 -21.189  0.00  0.00    -0.080 HD
ENDROOT
BRANCH   2  10
ATOM      8  O   UNL     1      31.518 -10.235 -21.166  0.00  0.00    -0.246 OA
ATOM      9  O   UNL     1      32.946  -6.551 -22.954  0.00  0.00    -0.271 OA
ATOM     10  N   UNL     1      32.906 -11.179 -22.824  0.00  0.00    -0.282 N 
ATOM     11  N   UNL     1      32.783  -8.883 -22.718  0.00  0.00    -0.229 N 
ATOM     12  C   UNL     1      33.729 -10.655 -23.824  0.00  0.00    +0.080 A 
ATOM     13  C   UNL     1      32.294 -10.118 -22.105  0.00  0.00    +0.337 A 
ATOM     14  C   UNL     1      33.663  -9.262 -23.771  0.00  0.00    +0.087 A 
ATOM     15  C   UNL     1      34.508 -11.326 -24.751  0.00  0.00    +0.019 C 
ATOM     16  C   UNL     1      34.391  -8.493 -24.662  0.00  0.00    +0.019 C 
ATOM     17  C   UNL     1      32.492  -7.546 -22.391  0.00  0.00    +0.245 C 
ATOM     18  C   UNL     1      35.243 -10.557 -25.652  0.00  0.00    +0.002 C 
ATOM     19  C   UNL     1      35.186  -9.154 -25.608  0.00  0.00    +0.002 C 
BRANCH  17  20
ATOM     20  C   UNL     1      31.534  -7.372 -21.239  0.00  0.00    +0.089 C 
ATOM     21  C   UNL     1      32.295  -7.002 -19.989  0.00  0.00    +0.010 C 
ENDBRANCH  17  20
ENDBRANCH   2  10
BRANCH   1  22
ATOM     22  C   UNL     1      33.668 -16.552 -21.222  0.00  0.00    -0.076 C 
BRANCH  22  23
ATOM     23  C   UNL     1      35.081 -17.098 -20.949  0.00  0.00    -0.000 C 
BRANCH  23  24
ATOM     24  C   UNL     1      35.409 -18.480 -21.626  0.00  0.00    +0.115 C 
BRANCH  24  25
ATOM     25  C   UNL     1      34.989 -18.542 -23.120  0.00  0.00    -0.006 C 
ATOM     26  C   UNL     1      34.575 -19.746 -23.616  0.00  0.00    -0.003 C 
ATOM     27  C   UNL     1      35.060 -17.391 -23.850  0.00  0.00    -0.003 C 
ATOM     28  C   UNL     1      34.199 -19.801 -24.957  0.00  0.00    -0.000 C 
ATOM     29  C   UNL     1      34.684 -17.446 -25.192  0.00  0.00    -0.000 C 
ATOM     30  C   UNL     1      34.253 -18.652 -25.745  0.00  0.00    -0.000 C 
ENDBRANCH  24  25
BRANCH  24  31
ATOM     31  C   UNL     1      34.675 -19.596 -20.842  0.00  0.00    -0.006 C 
ATOM     32  C   UNL     1      33.309 -19.549 -20.789  0.00  0.00    -0.003 C 
ATOM     33  C   UNL     1      35.433 -20.565 -20.245  0.00  0.00    -0.003 C 
ATOM     34  C   UNL     1      32.649 -20.555 -20.083  0.00  0.00    -0.000 C 
ATOM     35  C   UNL     1      34.773 -21.569 -19.538  0.00  0.00    -0.000 C 
ATOM     36  C   UNL     1      33.380 -21.564 -19.457  0.00  0.00    -0.000 C 
ENDBRANCH  24  31
BRANCH  24  38
ATOM     37  N   UNL     1      38.053 -18.724 -21.599  0.00  0.00    -0.195 NA
ATOM     38  C   UNL     1      36.898 -18.615 -21.602  0.00  0.00    +0.079 C 
ENDBRANCH  24  38
ENDBRANCH  23  24
ENDBRANCH  22  23
ENDBRANCH   1  22
TORSDOF 8
ENDMDL
MODEL 8
REMARK VINA RESULT:     -10.1      6.187     12.225
REMARK  Name = 61791
REMARK  8 active torsions:
REMARK  status: ('A' for Active; 'I' for Inactive)
REMARK    1  A    between atoms: N_1  and  C_22
REMARK    2  A    between atoms: C_2  and  N_10
REMARK    3  A    between atoms: C_17  and  C_20
REMARK    4  A    between atoms: C_22  and  C_23
REMARK    5  A    between atoms: C_23  and  C_24
REMARK    6  A    between atoms: C_24  and  C_25
REMARK    7  A    between atoms: C_24  and  C_31
REMARK    8  A    between atoms: C_24  and  C_38
REMARK                            x       y       z     vdW  Elec       q    Type
REMARK                         _______ _______ _______ _____ _____    ______ ____
ROOT
ATOM      1  N   UNL     1      33.026 -14.842 -21.132  0.00  0.00    +0.387 N 
ATOM      2  C   UNL     1      32.214 -12.227 -22.162  0.00  0.00    +0.086 C 
ATOM      3  C   UNL     1      32.503 -12.467 -20.680  0.00  0.00    -0.000 C 
ATOM      4  C   UNL     1      32.970 -13.242 -23.019  0.00  0.00    -0.000 C 
ATOM      5  C   UNL     1      32.244 -13.925 -20.294  0.00  0.00    -0.075 C 
ATOM      6  C   UNL     1      32.696 -14.674 -22.555  0.00  0.00    -0.075 C 
ATOM      7  H   UNL     1      34.014 -14.617 -21.010  0.00  0.00    -0.080 HD
ENDROOT
BRANCH   2  10
ATOM      8  O   UNL     1      31.241  -9.624 -21.038  0.00  0.00    -0.246 OA
ATOM      9  O   UNL     1      33.095  -6.321 -23.149  0.00  0.00    -0.271 OA
ATOM     10  N   UNL     1      32.552 -10.879 -22.545  0.00  0.00    -0.282 N 
ATOM     11  N   UNL     1      32.676  -8.585 -22.679  0.00  0.00    -0.229 N 
ATOM     12  C   UNL     1      33.448 -10.553 -23.567  0.00  0.00    +0.080 A 
ATOM     13  C   UNL     1      32.045  -9.690 -21.958  0.00  0.00    +0.337 A 
ATOM     14  C   UNL     1      33.532  -9.163 -23.659  0.00  0.00    +0.087 A 
ATOM     15  C   UNL     1      34.169 -11.397 -24.394  0.00  0.00    +0.019 C 
ATOM     16  C   UNL     1      34.357  -8.574 -24.601  0.00  0.00    +0.019 C 
ATOM     17  C   UNL     1      32.525  -7.197 -22.501  0.00  0.00    +0.245 C 
ATOM     18  C   UNL     1      35.001 -10.809 -25.346  0.00  0.00    +0.002 C 
ATOM     19  C   UNL     1      35.095  -9.411 -25.449  0.00  0.00    +0.002 C 
BRANCH  17  20
ATOM     20  C   UNL     1      31.568  -6.802 -21.404  0.00  0.00    +0.089 C 
ATOM     21  C   UNL     1      30.804  -5.565 -21.808  0.00  0.00    +0.010 C 
ENDBRANCH  17  20
ENDBRANCH   2  10
BRANCH   1  22
ATOM     22  C   UNL     1      32.807 -16.228 -20.718  0.00  0.00    -0.076 C 
BRANCH  22  23
ATOM     23  C   UNL     1      34.147 -16.986 -20.691  0.00  0.00    -0.000 C 
BRANCH  23  24
ATOM     24  C   UNL     1      34.125 -18.411 -21.359  0.00  0.00    +0.115 C 
BRANCH  24  25
ATOM     25  C   UNL     1      35.191 -19.376 -20.773  0.00  0.00    -0.006 C 
ATOM     26  C   UNL     1      36.503 -19.013 -20.876  0.00  0.00    -0.003 C 
ATOM     27  C   UNL     1      34.753 -20.531 -20.191  0.00  0.00    -0.003 C 
ATOM     28  C   UNL     1      37.461 -19.880 -20.349  0.00  0.00    -0.000 C 
ATOM     29  C   UNL     1      35.711 -21.398 -19.665  0.00  0.00    -0.000 C 
ATOM     30  C   UNL     1      37.065 -21.072 -19.744  0.00  0.00    -0.000 C 
ENDBRANCH  24  25
BRANCH  24  31
ATOM     31  C   UNL     1      34.367 -18.243 -22.879  0.00  0.00    -0.006 C 
ATOM     32  C   UNL     1      34.732 -17.007 -23.337  0.00  0.00    -0.003 C 
ATOM     33  C   UNL     1      34.202 -19.340 -23.679  0.00  0.00    -0.003 C 
ATOM     34  C   UNL     1      34.951 -16.857 -24.707  0.00  0.00    -0.000 C 
ATOM     35  C   UNL     1      34.420 -19.189 -25.049  0.00  0.00    -0.000 C 
ATOM     36  C   UNL     1      34.794 -17.947 -25.562  0.00  0.00    -0.000 C 
ENDBRANCH  24  31
BRANCH  24  38
ATOM     37  N   UNL     1      31.766 -19.474 -20.761  0.00  0.00    -0.195 NA
ATOM     38  C   UNL     1      32.793 -19.006 -21.030  0.00  0.00    +0.079 C 
ENDBRANCH  24  38
ENDBRANCH  23  24
ENDBRANCH  22  23
ENDBRANCH   1  22
TORSDOF 8
ENDMDL
MODEL 9
REMARK VINA RESULT:     -10.1      3.047     10.258
REMARK  Name = 61791
REMARK  8 active torsions:
REMARK  status: ('A' for Active; 'I' for Inactive)
REMARK    1  A    between atoms: N_1  and  C_22
REMARK    2  A    between atoms: C_2  and  N_10
REMARK    3  A    between atoms: C_17  and  C_20
REMARK    4  A    between atoms: C_22  and  C_23
REMARK    5  A    between atoms: C_23  and  C_24
REMARK    6  A    between atoms: C_24  and  C_25
REMARK    7  A    between atoms: C_24  and  C_31
REMARK    8  A    between atoms: C_24  and  C_38
REMARK                            x       y       z     vdW  Elec       q    Type
REMARK                         _______ _______ _______ _____ _____    ______ ____
ROOT
ATOM      1  N   UNL     1      35.881 -21.045 -18.676  0.00  0.00    +0.387 N 
ATOM      2  C   UNL     1      35.413 -19.616 -21.186  0.00  0.00    +0.086 C 
ATOM      3  C   UNL     1      34.268 -20.075 -20.282  0.00  0.00    -0.000 C 
ATOM      4  C   UNL     1      36.691 -19.431 -20.368  0.00  0.00    -0.000 C 
ATOM      5  C   UNL     1      34.667 -21.304 -19.462  0.00  0.00    -0.075 C 
ATOM      6  C   UNL     1      37.009 -20.681 -19.544  0.00  0.00    -0.075 C 
ATOM      7  H   UNL     1      35.693 -20.256 -18.057  0.00  0.00    -0.080 HD
ENDROOT
BRANCH   2  10
ATOM      8  O   UNL     1      35.089 -16.832 -20.123  0.00  0.00    -0.246 OA
ATOM      9  O   UNL     1      34.036 -14.134 -23.350  0.00  0.00    -0.271 OA
ATOM     10  N   UNL     1      35.069 -18.402 -21.883  0.00  0.00    -0.282 N 
ATOM     11  N   UNL     1      34.579 -16.214 -22.401  0.00  0.00    -0.229 N 
ATOM     12  C   UNL     1      34.819 -18.328 -23.256  0.00  0.00    +0.080 A 
ATOM     13  C   UNL     1      34.935 -17.113 -21.303  0.00  0.00    +0.337 A 
ATOM     14  C   UNL     1      34.519 -17.005 -23.583  0.00  0.00    +0.087 A 
ATOM     15  C   UNL     1      34.840 -19.340 -24.200  0.00  0.00    +0.019 C 
ATOM     16  C   UNL     1      34.230 -16.657 -24.891  0.00  0.00    +0.019 C 
ATOM     17  C   UNL     1      34.329 -14.830 -22.379  0.00  0.00    +0.245 C 
ATOM     18  C   UNL     1      34.548 -18.995 -25.519  0.00  0.00    +0.002 C 
ATOM     19  C   UNL     1      34.246 -17.667 -25.862  0.00  0.00    +0.002 C 
BRANCH  17  20
ATOM     20  C   UNL     1      34.449 -14.189 -21.019  0.00  0.00    +0.089 C 
ATOM     21  C   UNL     1      33.078 -14.009 -20.412  0.00  0.00    +0.010 C 
ENDBRANCH  17  20
ENDBRANCH   2  10
BRANCH   1  22
ATOM     22  C   UNL     1      36.220 -22.211 -17.859  0.00  0.00    -0.076 C 
BRANCH  22  23
ATOM     23  C   UNL     1      35.381 -22.209 -16.568  0.00  0.00    -0.000 C 
BRANCH  23  24
ATOM     24  C   UNL     1      34.714 -23.587 -16.200  0.00  0.00    +0.115 C 
BRANCH  24  25
ATOM     25  C   UNL     1      33.506 -23.441 -15.236  0.00  0.00    -0.006 C 
ATOM     26  C   UNL     1      33.696 -23.769 -13.924  0.00  0.00    -0.003 C 
ATOM     27  C   UNL     1      32.326 -22.994 -15.756  0.00  0.00    -0.003 C 
ATOM     28  C   UNL     1      32.611 -23.638 -13.057  0.00  0.00    -0.000 C 
ATOM     29  C   UNL     1      31.240 -22.863 -14.890  0.00  0.00    -0.000 C 
ATOM     30  C   UNL     1      31.383 -23.185 -13.540  0.00  0.00    -0.000 C 
ENDBRANCH  24  25
BRANCH  24  31
ATOM     31  C   UNL     1      35.787 -24.490 -15.544  0.00  0.00    -0.006 C 
ATOM     32  C   UNL     1      36.804 -23.883 -14.859  0.00  0.00    -0.003 C 
ATOM     33  C   UNL     1      35.658 -25.844 -15.686  0.00  0.00    -0.003 C 
ATOM     34  C   UNL     1      37.770 -24.698 -14.268  0.00  0.00    -0.000 C 
ATOM     35  C   UNL     1      36.625 -26.658 -15.095  0.00  0.00    -0.000 C 
ATOM     36  C   UNL     1      37.680 -26.085 -14.386  0.00  0.00    -0.000 C 
ENDBRANCH  24  31
BRANCH  24  38
ATOM     37  N   UNL     1      33.751 -24.559 -18.476  0.00  0.00    -0.195 NA
ATOM     38  C   UNL     1      34.168 -24.141 -17.477  0.00  0.00    +0.079 C 
ENDBRANCH  24  38
ENDBRANCH  23  24
ENDBRANCH  22  23
ENDBRANCH   1  22
TORSDOF 8
ENDMDL
