MODEL 1
REMARK VINA RESULT:      -9.5      0.000      0.000
REMARK  Name = 9884876
REMARK  7 active torsions:
REMARK  status: ('A' for Active; 'I' for Inactive)
REMARK    1  A    between atoms: C_1  and  C_22
REMARK    2  A    between atoms: C_2  and  O_13
REMARK    3  A    between atoms: C_4  and  S_7
REMARK    4  A    between atoms: S_7  and  N_10
REMARK    5  A    between atoms: O_13  and  C_14
REMARK    6  A    between atoms: C_19  and  S_20
REMARK    7  A    between atoms: C_22  and  N_23
REMARK                            x       y       z     vdW  Elec       q    Type
REMARK                         _______ _______ _______ _____ _____    ______ ____
ROOT
ATOM      1  C   UNL     1      34.288 -23.198 -15.524  0.00  0.00    -0.007 C 
ATOM      2  C   UNL     1      34.087 -23.120 -16.896  0.00  0.00    +0.139 C 
ATOM      3  C   UNL     1      33.217 -23.364 -14.654  0.00  0.00    +0.017 C 
ATOM      4  C   UNL     1      31.923 -23.452 -15.166  0.00  0.00    +0.121 C 
ATOM      5  C   UNL     1      32.792 -23.208 -17.407  0.00  0.00    +0.038 C 
ATOM      6  C   UNL     1      31.710 -23.375 -16.542  0.00  0.00    +0.023 C 
ENDROOT
BRANCH   4   7
ATOM      7  S   UNL     1      30.568 -23.661 -14.083  0.00  0.00    +0.057 S 
ATOM      8  O   UNL     1      31.037 -23.470 -12.719  0.00  0.00    -0.153 OA
ATOM      9  O   UNL     1      29.451 -22.870 -14.582  0.00  0.00    -0.153 OA
BRANCH   7  10
ATOM     10  N   UNL     1      30.215 -25.316 -14.319  0.00  0.00    -0.203 NA
ATOM     11  H   UNL     1      31.066 -25.810 -14.583  0.00  0.00    +0.144 HD
ATOM     12  H   UNL     1      29.520 -25.414 -15.060  0.00  0.00    +0.144 HD
ENDBRANCH   7  10
ENDBRANCH   4   7
BRANCH   2  13
ATOM     13  O   UNL     1      35.132 -22.959 -17.754  0.00  0.00    -0.454 OA
BRANCH  13  14
ATOM     14  C   UNL     1      35.005 -22.002 -18.746  0.00  0.00    +0.145 C 
ATOM     15  C   UNL     1      33.744 -21.676 -19.211  0.00  0.00    +0.038 C 
ATOM     16  C   UNL     1      36.143 -21.396 -19.248  0.00  0.00    +0.038 C 
ATOM     17  C   UNL     1      33.616 -20.713 -20.212  0.00  0.00    +0.009 C 
ATOM     18  C   UNL     1      36.016 -20.433 -20.249  0.00  0.00    +0.009 C 
ATOM     19  C   UNL     1      34.752 -20.091 -20.731  0.00  0.00    +0.025 C 
BRANCH  19  20
ATOM     20  S   UNL     1      34.588 -18.860 -22.009  0.00  0.00    -0.113 S 
ATOM     21  C   UNL     1      35.144 -17.402 -21.100  0.00  0.00    +0.074 C 
ENDBRANCH  19  20
ENDBRANCH  13  14
ENDBRANCH   2  13
BRANCH   1  22
ATOM     22  C   UNL     1      35.679 -23.107 -14.954  0.00  0.00    -0.047 C 
BRANCH  22  23
ATOM     23  N   UNL     1      36.545 -24.173 -15.457  0.00  0.00    +0.387 N 
ATOM     24  C   UNL     1      36.212 -25.445 -14.817  0.00  0.00    -0.100 C 
ATOM     25  C   UNL     1      37.950 -23.839 -15.230  0.00  0.00    -0.100 C 
ATOM     26  H   UNL     1      36.393 -24.266 -16.461  0.00  0.00    -0.079 HD
ENDBRANCH  22  23
ENDBRANCH   1  22
TORSDOF 7
ENDMDL
MODEL 2
REMARK VINA RESULT:      -9.3      2.155      3.817
REMARK  Name = 9884876
REMARK  7 active torsions:
REMARK  status: ('A' for Active; 'I' for Inactive)
REMARK    1  A    between atoms: C_1  and  C_22
REMARK    2  A    between atoms: C_2  and  O_13
REMARK    3  A    between atoms: C_4  and  S_7
REMARK    4  A    between atoms: S_7  and  N_10
REMARK    5  A    between atoms: O_13  and  C_14
REMARK    6  A    between atoms: C_19  and  S_20
REMARK    7  A    between atoms: C_22  and  N_23
REMARK                            x       y       z     vdW  Elec       q    Type
REMARK                         _______ _______ _______ _____ _____    ______ ____
ROOT
ATOM      1  C   UNL     1      32.843 -23.407 -16.256  0.00  0.00    -0.007 C 
ATOM      2  C   UNL     1      33.676 -23.053 -17.309  0.00  0.00    +0.139 C 
ATOM      3  C   UNL     1      33.361 -23.669 -14.993  0.00  0.00    +0.017 C 
ATOM      4  C   UNL     1      34.736 -23.575 -14.781  0.00  0.00    +0.121 C 
ATOM      5  C   UNL     1      35.052 -22.961 -17.096  0.00  0.00    +0.038 C 
ATOM      6  C   UNL     1      35.581 -23.221 -15.833  0.00  0.00    +0.023 C 
ENDROOT
BRANCH   4   7
ATOM      7  S   UNL     1      35.400 -23.901 -13.199  0.00  0.00    +0.057 S 
ATOM      8  O   UNL     1      36.549 -23.030 -12.995  0.00  0.00    -0.153 OA
ATOM      9  O   UNL     1      34.311 -23.901 -12.232  0.00  0.00    -0.153 OA
BRANCH   7  10
ATOM     10  N   UNL     1      35.952 -25.505 -13.401  0.00  0.00    -0.203 NA
ATOM     11  H   UNL     1      36.734 -25.514 -14.055  0.00  0.00    +0.144 HD
ATOM     12  H   UNL     1      35.195 -26.082 -13.768  0.00  0.00    +0.144 HD
ENDBRANCH   7  10
ENDBRANCH   4   7
BRANCH   2  13
ATOM     13  O   UNL     1      33.175 -22.795 -18.549  0.00  0.00    -0.454 OA
BRANCH  13  14
ATOM     14  C   UNL     1      33.795 -21.810 -19.298  0.00  0.00    +0.145 C 
ATOM     15  C   UNL     1      33.028 -20.800 -19.851  0.00  0.00    +0.038 C 
ATOM     16  C   UNL     1      35.166 -21.859 -19.477  0.00  0.00    +0.038 C 
ATOM     17  C   UNL     1      33.651 -19.808 -20.607  0.00  0.00    +0.009 C 
ATOM     18  C   UNL     1      35.791 -20.867 -20.233  0.00  0.00    +0.009 C 
ATOM     19  C   UNL     1      35.033 -19.841 -20.798  0.00  0.00    +0.025 C 
BRANCH  19  20
ATOM     20  S   UNL     1      35.829 -18.573 -21.763  0.00  0.00    -0.113 S 
ATOM     21  C   UNL     1      34.961 -18.794 -23.331  0.00  0.00    +0.074 C 
ENDBRANCH  19  20
ENDBRANCH  13  14
ENDBRANCH   2  13
BRANCH   1  22
ATOM     22  C   UNL     1      31.356 -23.511 -16.467  0.00  0.00    -0.047 C 
BRANCH  22  23
ATOM     23  N   UNL     1      30.648 -23.806 -15.222  0.00  0.00    +0.387 N 
ATOM     24  C   UNL     1      29.978 -25.103 -15.310  0.00  0.00    -0.100 C 
ATOM     25  C   UNL     1      29.681 -22.752 -14.921  0.00  0.00    -0.100 C 
ATOM     26  H   UNL     1      31.330 -23.845 -14.464  0.00  0.00    -0.079 HD
ENDBRANCH  22  23
ENDBRANCH   1  22
TORSDOF 7
ENDMDL
MODEL 3
REMARK VINA RESULT:      -9.1      2.793      4.409
REMARK  Name = 9884876
REMARK  7 active torsions:
REMARK  status: ('A' for Active; 'I' for Inactive)
REMARK    1  A    between atoms: C_1  and  C_22
REMARK    2  A    between atoms: C_2  and  O_13
REMARK    3  A    between atoms: C_4  and  S_7
REMARK    4  A    between atoms: S_7  and  N_10
REMARK    5  A    between atoms: O_13  and  C_14
REMARK    6  A    between atoms: C_19  and  S_20
REMARK    7  A    between atoms: C_22  and  N_23
REMARK                            x       y       z     vdW  Elec       q    Type
REMARK                         _______ _______ _______ _____ _____    ______ ____
ROOT
ATOM      1  C   UNL     1      33.859 -23.718 -14.374  0.00  0.00    -0.007 C 
ATOM      2  C   UNL     1      34.568 -24.008 -15.532  0.00  0.00    +0.139 C 
ATOM      3  C   UNL     1      34.427 -23.914 -13.121  0.00  0.00    +0.017 C 
ATOM      4  C   UNL     1      35.727 -24.408 -13.026  0.00  0.00    +0.121 C 
ATOM      5  C   UNL     1      35.869 -24.502 -15.435  0.00  0.00    +0.038 C 
ATOM      6  C   UNL     1      36.448 -24.702 -14.183  0.00  0.00    +0.023 C 
ENDROOT
BRANCH   4   7
ATOM      7  S   UNL     1      36.454 -24.658 -11.456  0.00  0.00    +0.057 S 
ATOM      8  O   UNL     1      35.393 -24.936 -10.499  0.00  0.00    -0.153 OA
ATOM      9  O   UNL     1      37.560 -25.593 -11.603  0.00  0.00    -0.153 OA
BRANCH   7  10
ATOM     10  N   UNL     1      37.088 -23.104 -11.140  0.00  0.00    -0.203 NA
ATOM     11  H   UNL     1      36.523 -22.644 -10.427  0.00  0.00    +0.144 HD
ATOM     12  H   UNL     1      37.073 -22.549 -11.997  0.00  0.00    +0.144 HD
ENDBRANCH   7  10
ENDBRANCH   4   7
BRANCH   2  13
ATOM     13  O   UNL     1      34.017 -23.817 -16.763  0.00  0.00    -0.454 OA
BRANCH  13  14
ATOM     14  C   UNL     1      34.633 -22.910 -17.607  0.00  0.00    +0.145 C 
ATOM     15  C   UNL     1      33.972 -22.495 -18.749  0.00  0.00    +0.038 C 
ATOM     16  C   UNL     1      35.895 -22.441 -17.289  0.00  0.00    +0.038 C 
ATOM     17  C   UNL     1      34.592 -21.582 -19.601  0.00  0.00    +0.009 C 
ATOM     18  C   UNL     1      36.517 -21.528 -18.141  0.00  0.00    +0.009 C 
ATOM     19  C   UNL     1      35.865 -21.098 -19.297  0.00  0.00    +0.025 C 
BRANCH  19  20
ATOM     20  S   UNL     1      36.657 -19.930 -20.385  0.00  0.00    -0.113 S 
ATOM     21  C   UNL     1      35.228 -19.397 -21.351  0.00  0.00    +0.074 C 
ENDBRANCH  19  20
ENDBRANCH  13  14
ENDBRANCH   2  13
BRANCH   1  22
ATOM     22  C   UNL     1      32.454 -23.182 -14.459  0.00  0.00    -0.047 C 
BRANCH  22  23
ATOM     23  N   UNL     1      31.559 -24.106 -15.154  0.00  0.00    +0.387 N 
ATOM     24  C   UNL     1      30.581 -23.367 -15.951  0.00  0.00    -0.100 C 
ATOM     25  C   UNL     1      30.883 -24.981 -14.198  0.00  0.00    -0.100 C 
ATOM     26  H   UNL     1      32.117 -24.684 -15.783  0.00  0.00    -0.079 HD
ENDBRANCH  22  23
ENDBRANCH   1  22
TORSDOF 7
ENDMDL
MODEL 4
REMARK VINA RESULT:      -8.7      8.653     12.013
REMARK  Name = 9884876
REMARK  7 active torsions:
REMARK  status: ('A' for Active; 'I' for Inactive)
REMARK    1  A    between atoms: C_1  and  C_22
REMARK    2  A    between atoms: C_2  and  O_13
REMARK    3  A    between atoms: C_4  and  S_7
REMARK    4  A    between atoms: S_7  and  N_10
REMARK    5  A    between atoms: O_13  and  C_14
REMARK    6  A    between atoms: C_19  and  S_20
REMARK    7  A    between atoms: C_22  and  N_23
REMARK                            x       y       z     vdW  Elec       q    Type
REMARK                         _______ _______ _______ _____ _____    ______ ____
ROOT
ATOM      1  C   UNL     1      33.539 -14.207 -23.557  0.00  0.00    -0.007 C 
ATOM      2  C   UNL     1      32.498 -13.709 -22.784  0.00  0.00    +0.139 C 
ATOM      3  C   UNL     1      34.267 -15.316 -23.144  0.00  0.00    +0.017 C 
ATOM      4  C   UNL     1      33.948 -15.936 -21.936  0.00  0.00    +0.121 C 
ATOM      5  C   UNL     1      32.181 -14.330 -21.576  0.00  0.00    +0.038 C 
ATOM      6  C   UNL     1      32.905 -15.443 -21.152  0.00  0.00    +0.023 C 
ENDROOT
BRANCH   4   7
ATOM      7  S   UNL     1      34.856 -17.332 -21.405  0.00  0.00    +0.057 S 
ATOM      8  O   UNL     1      35.587 -16.971 -20.199  0.00  0.00    -0.153 OA
ATOM      9  O   UNL     1      33.966 -18.485 -21.395  0.00  0.00    -0.153 OA
BRANCH   7  10
ATOM     10  N   UNL     1      35.966 -17.507 -22.692  0.00  0.00    -0.203 NA
ATOM     11  H   UNL     1      36.914 -17.369 -22.344  0.00  0.00    +0.144 HD
ATOM     12  H   UNL     1      35.763 -16.813 -23.413  0.00  0.00    +0.144 HD
ENDBRANCH   7  10
ENDBRANCH   4   7
BRANCH   2  13
ATOM     13  O   UNL     1      31.780 -12.623 -23.183  0.00  0.00    -0.454 OA
BRANCH  13  14
ATOM     14  C   UNL     1      31.924 -11.455 -22.454  0.00  0.00    +0.145 C 
ATOM     15  C   UNL     1      31.418 -11.396 -21.168  0.00  0.00    +0.038 C 
ATOM     16  C   UNL     1      32.569 -10.375 -23.029  0.00  0.00    +0.038 C 
ATOM     17  C   UNL     1      31.562 -10.220 -20.433  0.00  0.00    +0.009 C 
ATOM     18  C   UNL     1      32.713  -9.198 -22.295  0.00  0.00    +0.009 C 
ATOM     19  C   UNL     1      32.209  -9.120 -20.997  0.00  0.00    +0.025 C 
BRANCH  19  20
ATOM     20  S   UNL     1      32.393  -7.618 -20.057  0.00  0.00    -0.113 S 
ATOM     21  C   UNL     1      32.039  -6.406 -21.348  0.00  0.00    +0.074 C 
ENDBRANCH  19  20
ENDBRANCH  13  14
ENDBRANCH   2  13
BRANCH   1  22
ATOM     22  C   UNL     1      33.895 -13.550 -24.864  0.00  0.00    -0.047 C 
BRANCH  22  23
ATOM     23  N   UNL     1      32.919 -13.853 -25.910  0.00  0.00    +0.387 N 
ATOM     24  C   UNL     1      32.948 -15.278 -26.237  0.00  0.00    -0.100 C 
ATOM     25  C   UNL     1      33.181 -13.050 -27.103  0.00  0.00    -0.100 C 
ATOM     26  H   UNL     1      31.989 -13.621 -25.562  0.00  0.00    -0.079 HD
ENDBRANCH  22  23
ENDBRANCH   1  22
TORSDOF 7
ENDMDL
MODEL 5
REMARK VINA RESULT:      -8.6     12.933     15.996
REMARK  Name = 9884876
REMARK  7 active torsions:
REMARK  status: ('A' for Active; 'I' for Inactive)
REMARK    1  A    between atoms: C_1  and  C_22
REMARK    2  A    between atoms: C_2  and  O_13
REMARK    3  A    between atoms: C_4  and  S_7
REMARK    4  A    between atoms: S_7  and  N_10
REMARK    5  A    between atoms: O_13  and  C_14
REMARK    6  A    between atoms: C_19  and  S_20
REMARK    7  A    between atoms: C_22  and  N_23
REMARK                            x       y       z     vdW  Elec       q    Type
REMARK                         _______ _______ _______ _____ _____    ______ ____
ROOT
ATOM      1  C   UNL     1      32.874  -9.476 -22.848  0.00  0.00    -0.007 C 
ATOM      2  C   UNL     1      33.921  -8.806 -23.468  0.00  0.00    +0.139 C 
ATOM      3  C   UNL     1      32.667 -10.833 -23.064  0.00  0.00    +0.017 C 
ATOM      4  C   UNL     1      33.524 -11.531 -23.914  0.00  0.00    +0.121 C 
ATOM      5  C   UNL     1      34.777  -9.506 -24.318  0.00  0.00    +0.038 C 
ATOM      6  C   UNL     1      34.578 -10.868 -24.541  0.00  0.00    +0.023 C 
ENDROOT
BRANCH   4   7
ATOM      7  S   UNL     1      33.276 -13.238 -24.194  0.00  0.00    +0.057 S 
ATOM      8  O   UNL     1      32.059 -13.643 -23.505  0.00  0.00    -0.153 OA
ATOM      9  O   UNL     1      33.422 -13.499 -25.619  0.00  0.00    -0.153 OA
BRANCH   7  10
ATOM     10  N   UNL     1      34.621 -13.900 -23.375  0.00  0.00    -0.203 NA
ATOM     11  H   UNL     1      35.349 -14.132 -24.049  0.00  0.00    +0.144 HD
ATOM     12  H   UNL     1      34.335 -14.745 -22.878  0.00  0.00    +0.144 HD
ENDBRANCH   7  10
ENDBRANCH   4   7
BRANCH   2  13
ATOM     13  O   UNL     1      34.129  -7.476 -23.260  0.00  0.00    -0.454 OA
BRANCH  13  14
ATOM     14  C   UNL     1      33.713  -6.600 -24.248  0.00  0.00    +0.145 C 
ATOM     15  C   UNL     1      34.559  -6.327 -25.307  0.00  0.00    +0.038 C 
ATOM     16  C   UNL     1      32.462  -6.018 -24.150  0.00  0.00    +0.038 C 
ATOM     17  C   UNL     1      34.141  -5.444 -26.302  0.00  0.00    +0.009 C 
ATOM     18  C   UNL     1      32.042  -5.134 -25.144  0.00  0.00    +0.009 C 
ATOM     19  C   UNL     1      32.882  -4.847 -26.220  0.00  0.00    +0.025 C 
BRANCH  19  20
ATOM     20  S   UNL     1      32.348  -3.719 -27.492  0.00  0.00    -0.113 S 
ATOM     21  C   UNL     1      33.032  -4.549 -28.942  0.00  0.00    +0.074 C 
ENDBRANCH  19  20
ENDBRANCH  13  14
ENDBRANCH   2  13
BRANCH   1  22
ATOM     22  C   UNL     1      31.941  -8.737 -21.926  0.00  0.00    -0.047 C 
BRANCH  22  23
ATOM     23  N   UNL     1      32.551  -8.484 -20.621  0.00  0.00    +0.387 N 
ATOM     24  C   UNL     1      31.998  -9.388 -19.614  0.00  0.00    -0.100 C 
ATOM     25  C   UNL     1      32.349  -7.092 -20.224  0.00  0.00    -0.100 C 
ATOM     26  H   UNL     1      33.554  -8.657 -20.695  0.00  0.00    -0.079 HD
ENDBRANCH  22  23
ENDBRANCH   1  22
TORSDOF 7
ENDMDL
MODEL 6
REMARK VINA RESULT:      -8.5      2.814      4.432
REMARK  Name = 9884876
REMARK  7 active torsions:
REMARK  status: ('A' for Active; 'I' for Inactive)
REMARK    1  A    between atoms: C_1  and  C_22
REMARK    2  A    between atoms: C_2  and  O_13
REMARK    3  A    between atoms: C_4  and  S_7
REMARK    4  A    between atoms: S_7  and  N_10
REMARK    5  A    between atoms: O_13  and  C_14
REMARK    6  A    between atoms: C_19  and  S_20
REMARK    7  A    between atoms: C_22  and  N_23
REMARK                            x       y       z     vdW  Elec       q    Type
REMARK                         _______ _______ _______ _____ _____    ______ ____
ROOT
ATOM      1  C   UNL     1      34.344 -24.095 -14.455  0.00  0.00    -0.007 C 
ATOM      2  C   UNL     1      34.914 -23.699 -15.658  0.00  0.00    +0.139 C 
ATOM      3  C   UNL     1      35.075 -24.058 -13.274  0.00  0.00    +0.017 C 
ATOM      4  C   UNL     1      36.397 -23.617 -13.297  0.00  0.00    +0.121 C 
ATOM      5  C   UNL     1      36.237 -23.258 -15.681  0.00  0.00    +0.038 C 
ATOM      6  C   UNL     1      36.978 -23.217 -14.500  0.00  0.00    +0.023 C 
ENDROOT
BRANCH   4   7
ATOM      7  S   UNL     1      37.326 -23.564 -11.818  0.00  0.00    +0.057 S 
ATOM      8  O   UNL     1      38.188 -22.392 -11.860  0.00  0.00    -0.153 OA
ATOM      9  O   UNL     1      36.419 -23.756 -10.696  0.00  0.00    -0.153 OA
BRANCH   7  10
ATOM     10  N   UNL     1      38.290 -24.964 -11.990  0.00  0.00    -0.203 NA
ATOM     11  H   UNL     1      37.902 -25.556 -12.724  0.00  0.00    +0.144 HD
ATOM     12  H   UNL     1      38.303 -25.479 -11.109  0.00  0.00    +0.144 HD
ENDBRANCH   7  10
ENDBRANCH   4   7
BRANCH   2  13
ATOM     13  O   UNL     1      34.203 -23.732 -16.820  0.00  0.00    -0.454 OA
BRANCH  13  14
ATOM     14  C   UNL     1      34.511 -22.792 -17.788  0.00  0.00    +0.145 C 
ATOM     15  C   UNL     1      33.509 -22.324 -18.618  0.00  0.00    +0.038 C 
ATOM     16  C   UNL     1      35.815 -22.343 -17.901  0.00  0.00    +0.038 C 
ATOM     17  C   UNL     1      33.819 -21.377 -19.593  0.00  0.00    +0.009 C 
ATOM     18  C   UNL     1      36.127 -21.396 -18.877  0.00  0.00    +0.009 C 
ATOM     19  C   UNL     1      35.129 -20.913 -19.723  0.00  0.00    +0.025 C 
BRANCH  19  20
ATOM     20  S   UNL     1      35.524 -19.703 -20.969  0.00  0.00    -0.113 S 
ATOM     21  C   UNL     1      33.894 -18.961 -21.202  0.00  0.00    +0.074 C 
ENDBRANCH  19  20
ENDBRANCH  13  14
ENDBRANCH   2  13
BRANCH   1  22
ATOM     22  C   UNL     1      32.917 -24.573 -14.412  0.00  0.00    -0.047 C 
BRANCH  22  23
ATOM     23  N   UNL     1      31.972 -23.490 -14.680  0.00  0.00    +0.387 N 
ATOM     24  C   UNL     1      31.274 -23.105 -13.454  0.00  0.00    -0.100 C 
ATOM     25  C   UNL     1      31.013 -23.890 -15.709  0.00  0.00    -0.100 C 
ATOM     26  H   UNL     1      32.493 -22.682 -15.022  0.00  0.00    -0.079 HD
ENDBRANCH  22  23
ENDBRANCH   1  22
TORSDOF 7
ENDMDL
MODEL 7
REMARK VINA RESULT:      -8.4      5.702      9.402
REMARK  Name = 9884876
REMARK  7 active torsions:
REMARK  status: ('A' for Active; 'I' for Inactive)
REMARK    1  A    between atoms: C_1  and  C_22
REMARK    2  A    between atoms: C_2  and  O_13
REMARK    3  A    between atoms: C_4  and  S_7
REMARK    4  A    between atoms: S_7  and  N_10
REMARK    5  A    between atoms: O_13  and  C_14
REMARK    6  A    between atoms: C_19  and  S_20
REMARK    7  A    between atoms: C_22  and  N_23
REMARK                            x       y       z     vdW  Elec       q    Type
REMARK                         _______ _______ _______ _____ _____    ______ ____
ROOT
ATOM      1  C   UNL     1      34.875 -16.966 -23.221  0.00  0.00    -0.007 C 
ATOM      2  C   UNL     1      35.265 -17.318 -21.936  0.00  0.00    +0.139 C 
ATOM      3  C   UNL     1      34.147 -15.805 -23.452  0.00  0.00    +0.017 C 
ATOM      4  C   UNL     1      33.803 -14.984 -22.379  0.00  0.00    +0.121 C 
ATOM      5  C   UNL     1      34.921 -16.497 -20.863  0.00  0.00    +0.038 C 
ATOM      6  C   UNL     1      34.190 -15.330 -21.085  0.00  0.00    +0.023 C 
ENDROOT
BRANCH   4   7
ATOM      7  S   UNL     1      32.888 -13.522 -22.656  0.00  0.00    +0.057 S 
ATOM      8  O   UNL     1      31.961 -13.762 -23.753  0.00  0.00    -0.153 OA
ATOM      9  O   UNL     1      32.387 -13.041 -21.376  0.00  0.00    -0.153 OA
BRANCH   7  10
ATOM     10  N   UNL     1      34.118 -12.465 -23.194  0.00  0.00    -0.203 NA
ATOM     11  H   UNL     1      34.069 -12.376 -24.208  0.00  0.00    +0.144 HD
ATOM     12  H   UNL     1      35.029 -12.841 -22.929  0.00  0.00    +0.144 HD
ENDBRANCH   7  10
ENDBRANCH   4   7
BRANCH   2  13
ATOM     13  O   UNL     1      35.980 -18.454 -21.703  0.00  0.00    -0.454 OA
BRANCH  13  14
ATOM     14  C   UNL     1      35.379 -19.446 -20.948  0.00  0.00    +0.145 C 
ATOM     15  C   UNL     1      33.999 -19.546 -20.941  0.00  0.00    +0.038 C 
ATOM     16  C   UNL     1      36.172 -20.313 -20.217  0.00  0.00    +0.038 C 
ATOM     17  C   UNL     1      33.393 -20.545 -20.180  0.00  0.00    +0.009 C 
ATOM     18  C   UNL     1      35.567 -21.312 -19.455  0.00  0.00    +0.009 C 
ATOM     19  C   UNL     1      34.177 -21.428 -19.436  0.00  0.00    +0.025 C 
BRANCH  19  20
ATOM     20  S   UNL     1      33.402 -22.704 -18.464  0.00  0.00    -0.113 S 
ATOM     21  C   UNL     1      34.612 -22.850 -17.132  0.00  0.00    +0.074 C 
ENDBRANCH  19  20
ENDBRANCH  13  14
ENDBRANCH   2  13
BRANCH   1  22
ATOM     22  C   UNL     1      35.239 -17.840 -24.392  0.00  0.00    -0.047 C 
BRANCH  22  23
ATOM     23  N   UNL     1      34.358 -19.003 -24.499  0.00  0.00    +0.387 N 
ATOM     24  C   UNL     1      35.131 -20.201 -24.819  0.00  0.00    -0.100 C 
ATOM     25  C   UNL     1      33.329 -18.773 -25.510  0.00  0.00    -0.100 C 
ATOM     26  H   UNL     1      33.900 -19.145 -23.598  0.00  0.00    -0.079 HD
ENDBRANCH  22  23
ENDBRANCH   1  22
TORSDOF 7
ENDMDL
MODEL 8
REMARK VINA RESULT:      -8.1     13.498     16.586
REMARK  Name = 9884876
REMARK  7 active torsions:
REMARK  status: ('A' for Active; 'I' for Inactive)
REMARK    1  A    between atoms: C_1  and  C_22
REMARK    2  A    between atoms: C_2  and  O_13
REMARK    3  A    between atoms: C_4  and  S_7
REMARK    4  A    between atoms: S_7  and  N_10
REMARK    5  A    between atoms: O_13  and  C_14
REMARK    6  A    between atoms: C_19  and  S_20
REMARK    7  A    between atoms: C_22  and  N_23
REMARK                            x       y       z     vdW  Elec       q    Type
REMARK                         _______ _______ _______ _____ _____    ______ ____
ROOT
ATOM      1  C   UNL     1      33.243  -7.354 -22.542  0.00  0.00    -0.007 C 
ATOM      2  C   UNL     1      34.074  -7.623 -23.621  0.00  0.00    +0.139 C 
ATOM      3  C   UNL     1      32.362  -6.279 -22.571  0.00  0.00    +0.017 C 
ATOM      4  C   UNL     1      32.314  -5.460 -23.699  0.00  0.00    +0.121 C 
ATOM      5  C   UNL     1      34.025  -6.804 -24.749  0.00  0.00    +0.038 C 
ATOM      6  C   UNL     1      33.145  -5.723 -24.788  0.00  0.00    +0.023 C 
ENDROOT
BRANCH   4   7
ATOM      7  S   UNL     1      31.210  -4.106 -23.749  0.00  0.00    +0.057 S 
ATOM      8  O   UNL     1      31.988  -2.879 -23.665  0.00  0.00    -0.153 OA
ATOM      9  O   UNL     1      30.286  -4.304 -24.856  0.00  0.00    -0.153 OA
BRANCH   7  10
ATOM     10  N   UNL     1      30.363  -4.323 -22.281  0.00  0.00    -0.203 NA
ATOM     11  H   UNL     1      29.412  -4.633 -22.481  0.00  0.00    +0.144 HD
ATOM     12  H   UNL     1      30.333  -3.440 -21.771  0.00  0.00    +0.144 HD
ENDBRANCH   7  10
ENDBRANCH   4   7
BRANCH   2  13
ATOM     13  O   UNL     1      34.939  -8.675 -23.600  0.00  0.00    -0.454 OA
BRANCH  13  14
ATOM     14  C   UNL     1      34.658  -9.753 -24.421  0.00  0.00    +0.145 C 
ATOM     15  C   UNL     1      33.621 -10.605 -24.085  0.00  0.00    +0.038 C 
ATOM     16  C   UNL     1      35.422  -9.953 -25.557  0.00  0.00    +0.038 C 
ATOM     17  C   UNL     1      33.339 -11.692 -24.912  0.00  0.00    +0.009 C 
ATOM     18  C   UNL     1      35.140 -11.040 -26.385  0.00  0.00    +0.009 C 
ATOM     19  C   UNL     1      34.098 -11.910 -26.062  0.00  0.00    +0.025 C 
BRANCH  19  20
ATOM     20  S   UNL     1      33.736 -13.299 -27.118  0.00  0.00    -0.113 S 
ATOM     21  C   UNL     1      32.944 -14.393 -25.920  0.00  0.00    +0.074 C 
ENDBRANCH  19  20
ENDBRANCH  13  14
ENDBRANCH   2  13
BRANCH   1  22
ATOM     22  C   UNL     1      33.281  -8.229 -21.317  0.00  0.00    -0.047 C 
BRANCH  22  23
ATOM     23  N   UNL     1      31.948  -8.701 -20.943  0.00  0.00    +0.387 N 
ATOM     24  C   UNL     1      31.919  -9.081 -19.531  0.00  0.00    -0.100 C 
ATOM     25  C   UNL     1      31.550  -9.828 -21.784  0.00  0.00    -0.100 C 
ATOM     26  H   UNL     1      31.284  -7.940 -21.087  0.00  0.00    -0.079 HD
ENDBRANCH  22  23
ENDBRANCH   1  22
TORSDOF 7
ENDMDL
MODEL 9
REMARK VINA RESULT:      -8.1      2.777      5.749
REMARK  Name = 9884876
REMARK  7 active torsions:
REMARK  status: ('A' for Active; 'I' for Inactive)
REMARK    1  A    between atoms: C_1  and  C_22
REMARK    2  A    between atoms: C_2  and  O_13
REMARK    3  A    between atoms: C_4  and  S_7
REMARK    4  A    between atoms: S_7  and  N_10
REMARK    5  A    between atoms: O_13  and  C_14
REMARK    6  A    between atoms: C_19  and  S_20
REMARK    7  A    between atoms: C_22  and  N_23
REMARK                            x       y       z     vdW  Elec       q    Type
REMARK                         _______ _______ _______ _____ _____    ______ ____
ROOT
ATOM      1  C   UNL     1      32.865 -22.881 -17.521  0.00  0.00    -0.007 C 
ATOM      2  C   UNL     1      33.775 -22.975 -16.476  0.00  0.00    +0.139 C 
ATOM      3  C   UNL     1      31.497 -22.925 -17.282  0.00  0.00    +0.017 C 
ATOM      4  C   UNL     1      31.032 -23.064 -15.975  0.00  0.00    +0.121 C 
ATOM      5  C   UNL     1      33.309 -23.115 -15.169  0.00  0.00    +0.038 C 
ATOM      6  C   UNL     1      31.938 -23.160 -14.918  0.00  0.00    +0.023 C 
ENDROOT
BRANCH   4   7
ATOM      7  S   UNL     1      29.314 -23.120 -15.660  0.00  0.00    +0.057 S 
ATOM      8  O   UNL     1      29.000 -24.408 -15.058  0.00  0.00    -0.153 OA
ATOM      9  O   UNL     1      28.929 -21.890 -14.981  0.00  0.00    -0.153 OA
BRANCH   7  10
ATOM     10  N   UNL     1      28.691 -23.086 -17.250  0.00  0.00    -0.203 NA
ATOM     11  H   UNL     1      29.272 -22.483 -17.830  0.00  0.00    +0.144 HD
ATOM     12  H   UNL     1      27.736 -22.726 -17.234  0.00  0.00    +0.144 HD
ENDBRANCH   7  10
ENDBRANCH   4   7
BRANCH   2  13
ATOM     13  O   UNL     1      35.117 -22.932 -16.704  0.00  0.00    -0.454 OA
BRANCH  13  14
ATOM     14  C   UNL     1      35.941 -23.589 -15.806  0.00  0.00    +0.145 C 
ATOM     15  C   UNL     1      37.014 -22.912 -15.255  0.00  0.00    +0.038 C 
ATOM     16  C   UNL     1      35.671 -24.907 -15.482  0.00  0.00    +0.038 C 
ATOM     17  C   UNL     1      37.845 -23.574 -14.351  0.00  0.00    +0.009 C 
ATOM     18  C   UNL     1      36.501 -25.570 -14.578  0.00  0.00    +0.009 C 
ATOM     19  C   UNL     1      37.588 -24.903 -14.013  0.00  0.00    +0.025 C 
BRANCH  19  20
ATOM     20  S   UNL     1      38.650 -25.747 -12.857  0.00  0.00    -0.113 S 
ATOM     21  C   UNL     1      40.180 -25.776 -13.815  0.00  0.00    +0.074 C 
ENDBRANCH  19  20
ENDBRANCH  13  14
ENDBRANCH   2  13
BRANCH   1  22
ATOM     22  C   UNL     1      33.350 -22.728 -18.938  0.00  0.00    -0.047 C 
BRANCH  22  23
ATOM     23  N   UNL     1      33.953 -21.417 -19.169  0.00  0.00    +0.387 N 
ATOM     24  C   UNL     1      33.104 -20.611 -20.045  0.00  0.00    -0.100 C 
ATOM     25  C   UNL     1      35.289 -21.562 -19.746  0.00  0.00    -0.100 C 
ATOM     26  H   UNL     1      34.039 -20.938 -18.272  0.00  0.00    -0.079 HD
ENDBRANCH  22  23
ENDBRANCH   1  22
TORSDOF 7
ENDMDL
