MODEL 1
REMARK VINA RESULT:     -10.0      0.000      0.000
REMARK  Name = 1604
REMARK  4 active torsions:
REMARK  status: ('A' for Active; 'I' for Inactive)
REMARK    1  A    between atoms: N_5  and  C_12
REMARK    2  A    between atoms: C_11  and  S_20
REMARK    3  A    between atoms: C_15  and  O_18
REMARK    4  A    between atoms: S_20  and  N_23
REMARK                            x       y       z     vdW  Elec       q    Type
REMARK                         _______ _______ _______ _____ _____    ______ ____
ROOT
ATOM      1  S   UNL     1      32.467 -24.097 -13.926  0.00  0.00    +0.082 S 
ATOM      2  S   UNL     1      35.051 -24.107 -12.439  0.00  0.00    -0.048 S 
ATOM      3  O   UNL     1      31.884 -23.263 -12.894  0.00  0.00    -0.149 OA
ATOM      4  O   UNL     1      32.337 -25.540 -13.920  0.00  0.00    -0.149 OA
ATOM      5  N   UNL     1      32.075 -23.465 -15.500  0.00  0.00    -0.190 N 
ATOM      6  C   UNL     1      33.092 -23.775 -16.567  0.00  0.00    +0.121 C 
ATOM      7  C   UNL     1      34.420 -23.049 -16.265  0.00  0.00    +0.052 C 
ATOM      8  C   UNL     1      34.989 -23.377 -14.913  0.00  0.00    +0.007 C 
ATOM      9  C   UNL     1      34.201 -23.807 -13.868  0.00  0.00    +0.152 C 
ATOM     10  C   UNL     1      36.352 -23.281 -14.503  0.00  0.00    +0.024 C 
ATOM     11  C   UNL     1      36.527 -23.648 -13.183  0.00  0.00    +0.152 C 
ENDROOT
BRANCH   5  12
ATOM     12  C   UNL     1      30.683 -23.622 -15.859  0.00  0.00    +0.072 C 
ATOM     13  C   UNL     1      29.946 -22.514 -16.267  0.00  0.00    +0.053 C 
ATOM     14  C   UNL     1      30.090 -24.879 -15.796  0.00  0.00    +0.016 C 
ATOM     15  C   UNL     1      28.603 -22.665 -16.614  0.00  0.00    +0.140 C 
ATOM     16  C   UNL     1      28.747 -25.030 -16.143  0.00  0.00    +0.004 C 
ATOM     17  C   UNL     1      28.004 -23.923 -16.552  0.00  0.00    +0.037 C 
BRANCH  15  18
ATOM     18  O   UNL     1      27.878 -21.584 -17.013  0.00  0.00    -0.471 OA
ATOM     19  C   UNL     1      26.457 -21.694 -16.945  0.00  0.00    +0.252 C 
ENDBRANCH  15  18
ENDBRANCH   5  12
BRANCH  11  20
ATOM     20  S   UNL     1      37.936 -23.735 -12.135  0.00  0.00    +0.063 S 
ATOM     21  O   UNL     1      38.366 -22.377 -11.849  0.00  0.00    -0.153 OA
ATOM     22  O   UNL     1      37.634 -24.651 -11.049  0.00  0.00    -0.153 OA
BRANCH  20  23
ATOM     23  N   UNL     1      39.064 -24.467 -13.185  0.00  0.00    -0.203 NA
ATOM     24  H   UNL     1      39.128 -25.464 -12.973  0.00  0.00    +0.144 HD
ATOM     25  H   UNL     1      39.977 -24.033 -13.059  0.00  0.00    +0.144 HD
ENDBRANCH  20  23
ENDBRANCH  11  20
TORSDOF 4
ENDMDL
MODEL 2
REMARK VINA RESULT:      -9.6      2.528      8.028
REMARK  Name = 1604
REMARK  4 active torsions:
REMARK  status: ('A' for Active; 'I' for Inactive)
REMARK    1  A    between atoms: N_5  and  C_12
REMARK    2  A    between atoms: C_11  and  S_20
REMARK    3  A    between atoms: C_15  and  O_18
REMARK    4  A    between atoms: S_20  and  N_23
REMARK                            x       y       z     vdW  Elec       q    Type
REMARK                         _______ _______ _______ _____ _____    ______ ____
ROOT
ATOM      1  S   UNL     1      32.876 -24.353 -13.902  0.00  0.00    +0.082 S 
ATOM      2  S   UNL     1      30.074 -23.774 -14.742  0.00  0.00    -0.048 S 
ATOM      3  O   UNL     1      32.505 -25.727 -13.634  0.00  0.00    -0.149 OA
ATOM      4  O   UNL     1      32.886 -23.338 -12.866  0.00  0.00    -0.149 OA
ATOM      5  N   UNL     1      34.359 -24.298 -14.811  0.00  0.00    -0.190 N 
ATOM      6  C   UNL     1      34.501 -23.089 -15.700  0.00  0.00    +0.121 C 
ATOM      7  C   UNL     1      33.449 -23.129 -16.827  0.00  0.00    +0.052 C 
ATOM      8  C   UNL     1      32.035 -23.224 -16.325  0.00  0.00    +0.007 C 
ATOM      9  C   UNL     1      31.727 -23.759 -15.094  0.00  0.00    +0.152 C 
ATOM     10  C   UNL     1      30.847 -22.825 -17.008  0.00  0.00    +0.024 C 
ATOM     11  C   UNL     1      29.711 -23.067 -16.262  0.00  0.00    +0.152 C 
ENDROOT
BRANCH   5  12
ATOM     12  C   UNL     1      35.524 -24.689 -14.048  0.00  0.00    +0.072 C 
ATOM     13  C   UNL     1      36.531 -25.430 -14.658  0.00  0.00    +0.053 C 
ATOM     14  C   UNL     1      35.630 -24.320 -12.711  0.00  0.00    +0.016 C 
ATOM     15  C   UNL     1      37.655 -25.808 -13.922  0.00  0.00    +0.140 C 
ATOM     16  C   UNL     1      36.754 -24.697 -11.976  0.00  0.00    +0.004 C 
ATOM     17  C   UNL     1      37.766 -25.441 -12.582  0.00  0.00    +0.037 C 
BRANCH  15  18
ATOM     18  O   UNL     1      38.643 -26.533 -14.514  0.00  0.00    -0.471 OA
ATOM     19  C   UNL     1      39.931 -25.925 -14.604  0.00  0.00    +0.252 C 
ENDBRANCH  15  18
ENDBRANCH   5  12
BRANCH  11  20
ATOM     20  S   UNL     1      27.999 -22.799 -16.557  0.00  0.00    +0.063 S 
ATOM     21  O   UNL     1      27.303 -22.904 -15.286  0.00  0.00    -0.153 OA
ATOM     22  O   UNL     1      27.863 -21.602 -17.368  0.00  0.00    -0.153 OA
BRANCH  20  23
ATOM     23  N   UNL     1      27.627 -24.164 -17.511  0.00  0.00    -0.203 NA
ATOM     24  H   UNL     1      27.577 -24.991 -16.915  0.00  0.00    +0.144 HD
ATOM     25  H   UNL     1      28.353 -24.294 -18.215  0.00  0.00    +0.144 HD
ENDBRANCH  20  23
ENDBRANCH  11  20
TORSDOF 4
ENDMDL
MODEL 3
REMARK VINA RESULT:      -9.5     10.149     12.230
REMARK  Name = 1604
REMARK  4 active torsions:
REMARK  status: ('A' for Active; 'I' for Inactive)
REMARK    1  A    between atoms: N_5  and  C_12
REMARK    2  A    between atoms: C_11  and  S_20
REMARK    3  A    between atoms: C_15  and  O_18
REMARK    4  A    between atoms: S_20  and  N_23
REMARK                            x       y       z     vdW  Elec       q    Type
REMARK                         _______ _______ _______ _____ _____    ______ ____
ROOT
ATOM      1  S   UNL     1      33.806 -16.369 -21.246  0.00  0.00    +0.082 S 
ATOM      2  S   UNL     1      33.476 -13.579 -22.244  0.00  0.00    -0.048 S 
ATOM      3  O   UNL     1      32.455 -16.336 -20.725  0.00  0.00    -0.149 OA
ATOM      4  O   UNL     1      34.959 -16.052 -20.428  0.00  0.00    -0.149 OA
ATOM      5  N   UNL     1      34.076 -17.852 -22.117  0.00  0.00    -0.190 N 
ATOM      6  C   UNL     1      35.098 -17.750 -23.220  0.00  0.00    +0.121 C 
ATOM      7  C   UNL     1      34.582 -16.824 -24.341  0.00  0.00    +0.052 C 
ATOM      8  C   UNL     1      34.217 -15.447 -23.860  0.00  0.00    +0.007 C 
ATOM      9  C   UNL     1      33.854 -15.196 -22.555  0.00  0.00    +0.152 C 
ATOM     10  C   UNL     1      34.164 -14.248 -24.633  0.00  0.00    +0.024 C 
ATOM     11  C   UNL     1      33.776 -13.159 -23.879  0.00  0.00    +0.152 C 
ENDROOT
BRANCH   5  12
ATOM     12  C   UNL     1      34.146 -19.021 -21.268  0.00  0.00    +0.072 C 
ATOM     13  C   UNL     1      35.386 -19.524 -20.886  0.00  0.00    +0.053 C 
ATOM     14  C   UNL     1      32.972 -19.633 -20.837  0.00  0.00    +0.016 C 
ATOM     15  C   UNL     1      35.453 -20.651 -20.066  0.00  0.00    +0.140 C 
ATOM     16  C   UNL     1      33.041 -20.760 -20.017  0.00  0.00    +0.004 C 
ATOM     17  C   UNL     1      34.281 -21.269 -19.632  0.00  0.00    +0.037 C 
BRANCH  15  18
ATOM     18  O   UNL     1      36.664 -21.146 -19.691  0.00  0.00    -0.471 OA
ATOM     19  C   UNL     1      36.791 -21.595 -18.342  0.00  0.00    +0.252 C 
ENDBRANCH  15  18
ENDBRANCH   5  12
BRANCH  11  20
ATOM     20  S   UNL     1      33.533 -11.459 -24.257  0.00  0.00    +0.063 S 
ATOM     21  O   UNL     1      33.236 -11.354 -25.675  0.00  0.00    -0.153 OA
ATOM     22  O   UNL     1      32.618 -10.905 -23.275  0.00  0.00    -0.153 OA
BRANCH  20  23
ATOM     23  N   UNL     1      35.099 -10.846 -23.968  0.00  0.00    -0.203 NA
ATOM     24  H   UNL     1      35.033 -10.004 -23.394  0.00  0.00    +0.144 HD
ATOM     25  H   UNL     1      35.544 -10.619 -24.857  0.00  0.00    +0.144 HD
ENDBRANCH  20  23
ENDBRANCH  11  20
TORSDOF 4
ENDMDL
MODEL 4
REMARK VINA RESULT:      -9.4      9.688     11.794
REMARK  Name = 1604
REMARK  4 active torsions:
REMARK  status: ('A' for Active; 'I' for Inactive)
REMARK    1  A    between atoms: N_5  and  C_12
REMARK    2  A    between atoms: C_11  and  S_20
REMARK    3  A    between atoms: C_15  and  O_18
REMARK    4  A    between atoms: S_20  and  N_23
REMARK                            x       y       z     vdW  Elec       q    Type
REMARK                         _______ _______ _______ _____ _____    ______ ____
ROOT
ATOM      1  S   UNL     1      34.170 -16.889 -21.178  0.00  0.00    +0.082 S 
ATOM      2  S   UNL     1      33.548 -14.204 -22.314  0.00  0.00    -0.048 S 
ATOM      3  O   UNL     1      32.834 -16.958 -20.623  0.00  0.00    -0.149 OA
ATOM      4  O   UNL     1      35.304 -16.418 -20.410  0.00  0.00    -0.149 OA
ATOM      5  N   UNL     1      34.565 -18.386 -21.975  0.00  0.00    -0.190 N 
ATOM      6  C   UNL     1      35.547 -18.248 -23.109  0.00  0.00    +0.121 C 
ATOM      7  C   UNL     1      34.920 -17.439 -24.264  0.00  0.00    +0.052 C 
ATOM      8  C   UNL     1      34.432 -16.080 -23.848  0.00  0.00    +0.007 C 
ATOM      9  C   UNL     1      34.075 -15.792 -22.549  0.00  0.00    +0.152 C 
ATOM     10  C   UNL     1      34.246 -14.937 -24.683  0.00  0.00    +0.024 C 
ATOM     11  C   UNL     1      33.770 -13.849 -23.977  0.00  0.00    +0.152 C 
ENDROOT
BRANCH   5  12
ATOM     12  C   UNL     1      34.766 -19.493 -21.067  0.00  0.00    +0.072 C 
ATOM     13  C   UNL     1      33.667 -20.183 -20.565  0.00  0.00    +0.053 C 
ATOM     14  C   UNL     1      36.058 -19.861 -20.702  0.00  0.00    +0.016 C 
ATOM     15  C   UNL     1      33.861 -21.251 -19.689  0.00  0.00    +0.140 C 
ATOM     16  C   UNL     1      36.252 -20.930 -19.827  0.00  0.00    +0.004 C 
ATOM     17  C   UNL     1      35.153 -21.624 -19.320  0.00  0.00    +0.037 C 
BRANCH  15  18
ATOM     18  O   UNL     1      32.789 -21.929 -19.195  0.00  0.00    -0.471 OA
ATOM     19  C   UNL     1      33.000 -22.710 -18.020  0.00  0.00    +0.252 C 
ENDBRANCH  15  18
ENDBRANCH   5  12
BRANCH  11  20
ATOM     20  S   UNL     1      33.354 -12.205 -24.439  0.00  0.00    +0.063 S 
ATOM     21  O   UNL     1      33.143 -12.183 -25.877  0.00  0.00    -0.153 OA
ATOM     22  O   UNL     1      32.316 -11.732 -23.540  0.00  0.00    -0.153 OA
BRANCH  20  23
ATOM     23  N   UNL     1      34.814 -11.398 -24.078  0.00  0.00    -0.203 NA
ATOM     24  H   UNL     1      35.595 -11.907 -24.492  0.00  0.00    +0.144 HD
ATOM     25  H   UNL     1      34.935 -11.352 -23.067  0.00  0.00    +0.144 HD
ENDBRANCH  20  23
ENDBRANCH  11  20
TORSDOF 4
ENDMDL
MODEL 5
REMARK VINA RESULT:      -9.2      2.232      7.779
REMARK  Name = 1604
REMARK  4 active torsions:
REMARK  status: ('A' for Active; 'I' for Inactive)
REMARK    1  A    between atoms: N_5  and  C_12
REMARK    2  A    between atoms: C_11  and  S_20
REMARK    3  A    between atoms: C_15  and  O_18
REMARK    4  A    between atoms: S_20  and  N_23
REMARK                            x       y       z     vdW  Elec       q    Type
REMARK                         _______ _______ _______ _____ _____    ______ ____
ROOT
ATOM      1  S   UNL     1      32.833 -24.377 -14.020  0.00  0.00    +0.082 S 
ATOM      2  S   UNL     1      30.019 -23.748 -14.780  0.00  0.00    -0.048 S 
ATOM      3  O   UNL     1      32.451 -25.751 -13.766  0.00  0.00    -0.149 OA
ATOM      4  O   UNL     1      32.883 -23.380 -12.969  0.00  0.00    -0.149 OA
ATOM      5  N   UNL     1      34.294 -24.326 -14.966  0.00  0.00    -0.190 N 
ATOM      6  C   UNL     1      34.430 -23.104 -15.838  0.00  0.00    +0.121 C 
ATOM      7  C   UNL     1      33.349 -23.111 -16.939  0.00  0.00    +0.052 C 
ATOM      8  C   UNL     1      31.947 -23.197 -16.403  0.00  0.00    +0.007 C 
ATOM      9  C   UNL     1      31.663 -23.748 -15.173  0.00  0.00    +0.152 C 
ATOM     10  C   UNL     1      30.748 -22.770 -17.048  0.00  0.00    +0.024 C 
ATOM     11  C   UNL     1      29.627 -23.010 -16.278  0.00  0.00    +0.152 C 
ENDROOT
BRANCH   5  12
ATOM     12  C   UNL     1      35.472 -24.745 -14.239  0.00  0.00    +0.072 C 
ATOM     13  C   UNL     1      35.656 -24.330 -12.924  0.00  0.00    +0.053 C 
ATOM     14  C   UNL     1      36.413 -25.561 -14.860  0.00  0.00    +0.016 C 
ATOM     15  C   UNL     1      36.792 -24.735 -12.222  0.00  0.00    +0.140 C 
ATOM     16  C   UNL     1      37.549 -25.966 -14.158  0.00  0.00    +0.004 C 
ATOM     17  C   UNL     1      37.738 -25.552 -12.840  0.00  0.00    +0.037 C 
BRANCH  15  18
ATOM     18  O   UNL     1      36.976 -24.331 -10.936  0.00  0.00    -0.471 OA
ATOM     19  C   UNL     1      35.807 -24.178 -10.130  0.00  0.00    +0.252 C 
ENDBRANCH  15  18
ENDBRANCH   5  12
BRANCH  11  20
ATOM     20  S   UNL     1      27.913 -22.715 -16.525  0.00  0.00    +0.063 S 
ATOM     21  O   UNL     1      27.229 -22.962 -15.267  0.00  0.00    -0.153 OA
ATOM     22  O   UNL     1      27.767 -21.436 -17.197  0.00  0.00    -0.153 OA
BRANCH  20  23
ATOM     23  N   UNL     1      27.533 -23.966 -17.621  0.00  0.00    -0.203 NA
ATOM     24  H   UNL     1      26.704 -24.464 -17.295  0.00  0.00    +0.144 HD
ATOM     25  H   UNL     1      28.318 -24.614 -17.682  0.00  0.00    +0.144 HD
ENDBRANCH  20  23
ENDBRANCH  11  20
TORSDOF 4
ENDMDL
MODEL 6
REMARK VINA RESULT:      -9.2     10.284     12.480
REMARK  Name = 1604
REMARK  4 active torsions:
REMARK  status: ('A' for Active; 'I' for Inactive)
REMARK    1  A    between atoms: N_5  and  C_12
REMARK    2  A    between atoms: C_11  and  S_20
REMARK    3  A    between atoms: C_15  and  O_18
REMARK    4  A    between atoms: S_20  and  N_23
REMARK                            x       y       z     vdW  Elec       q    Type
REMARK                         _______ _______ _______ _____ _____    ______ ____
ROOT
ATOM      1  S   UNL     1      33.541 -15.667 -20.845  0.00  0.00    +0.082 S 
ATOM      2  S   UNL     1      32.440 -12.914 -21.164  0.00  0.00    -0.048 S 
ATOM      3  O   UNL     1      32.262 -16.112 -20.331  0.00  0.00    -0.149 OA
ATOM      4  O   UNL     1      34.621 -15.247 -19.974  0.00  0.00    -0.149 OA
ATOM      5  N   UNL     1      34.132 -16.789 -22.037  0.00  0.00    -0.190 N 
ATOM      6  C   UNL     1      35.023 -16.173 -23.085  0.00  0.00    +0.121 C 
ATOM      7  C   UNL     1      34.218 -15.190 -23.959  0.00  0.00    +0.052 C 
ATOM      8  C   UNL     1      33.539 -14.105 -23.171  0.00  0.00    +0.007 C 
ATOM      9  C   UNL     1      33.204 -14.259 -21.844  0.00  0.00    +0.152 C 
ATOM     10  C   UNL     1      33.130 -12.821 -23.644  0.00  0.00    +0.024 C 
ATOM     11  C   UNL     1      32.521 -12.072 -22.656  0.00  0.00    +0.152 C 
ENDROOT
BRANCH   5  12
ATOM     12  C   UNL     1      34.554 -18.057 -21.484  0.00  0.00    +0.072 C 
ATOM     13  C   UNL     1      33.599 -18.988 -21.086  0.00  0.00    +0.053 C 
ATOM     14  C   UNL     1      35.911 -18.337 -21.353  0.00  0.00    +0.016 C 
ATOM     15  C   UNL     1      34.006 -20.212 -20.553  0.00  0.00    +0.140 C 
ATOM     16  C   UNL     1      36.317 -19.561 -20.820  0.00  0.00    +0.004 C 
ATOM     17  C   UNL     1      35.364 -20.498 -20.420  0.00  0.00    +0.037 C 
BRANCH  15  18
ATOM     18  O   UNL     1      33.075 -21.125 -20.163  0.00  0.00    -0.471 OA
ATOM     19  C   UNL     1      33.432 -21.998 -19.092  0.00  0.00    +0.252 C 
ENDBRANCH  15  18
ENDBRANCH   5  12
BRANCH  11  20
ATOM     20  S   UNL     1      31.823 -10.459 -22.628  0.00  0.00    +0.063 S 
ATOM     21  O   UNL     1      32.472  -9.673 -23.663  0.00  0.00    -0.153 OA
ATOM     22  O   UNL     1      30.377 -10.593 -22.609  0.00  0.00    -0.153 OA
BRANCH  20  23
ATOM     23  N   UNL     1      32.352  -9.915 -21.099  0.00  0.00    -0.203 NA
ATOM     24  H   UNL     1      32.994 -10.600 -20.698  0.00  0.00    +0.144 HD
ATOM     25  H   UNL     1      31.548  -9.800 -20.483  0.00  0.00    +0.144 HD
ENDBRANCH  20  23
ENDBRANCH  11  20
TORSDOF 4
ENDMDL
MODEL 7
REMARK VINA RESULT:      -8.8      2.247      2.550
REMARK  Name = 1604
REMARK  4 active torsions:
REMARK  status: ('A' for Active; 'I' for Inactive)
REMARK    1  A    between atoms: N_5  and  C_12
REMARK    2  A    between atoms: C_11  and  S_20
REMARK    3  A    between atoms: C_15  and  O_18
REMARK    4  A    between atoms: S_20  and  N_23
REMARK                            x       y       z     vdW  Elec       q    Type
REMARK                         _______ _______ _______ _____ _____    ______ ____
ROOT
ATOM      1  S   UNL     1      34.419 -24.525 -14.194  0.00  0.00    +0.082 S 
ATOM      2  S   UNL     1      37.261 -25.354 -13.845  0.00  0.00    -0.048 S 
ATOM      3  O   UNL     1      34.336 -24.236 -12.777  0.00  0.00    -0.149 OA
ATOM      4  O   UNL     1      34.006 -25.798 -14.749  0.00  0.00    -0.149 OA
ATOM      5  N   UNL     1      33.732 -23.217 -15.114  0.00  0.00    -0.190 N 
ATOM      6  C   UNL     1      34.319 -23.048 -16.491  0.00  0.00    +0.121 C 
ATOM      7  C   UNL     1      35.796 -22.613 -16.393  0.00  0.00    +0.052 C 
ATOM      8  C   UNL     1      36.647 -23.559 -15.592  0.00  0.00    +0.007 C 
ATOM      9  C   UNL     1      36.119 -24.384 -14.624  0.00  0.00    +0.152 C 
ATOM     10  C   UNL     1      38.061 -23.734 -15.680  0.00  0.00    +0.024 C 
ATOM     11  C   UNL     1      38.526 -24.679 -14.787  0.00  0.00    +0.152 C 
ENDROOT
BRANCH   5  12
ATOM     12  C   UNL     1      32.294 -23.118 -15.000  0.00  0.00    +0.072 C 
ATOM     13  C   UNL     1      31.528 -22.852 -16.131  0.00  0.00    +0.053 C 
ATOM     14  C   UNL     1      31.685 -23.291 -13.760  0.00  0.00    +0.016 C 
ATOM     15  C   UNL     1      30.140 -22.757 -16.021  0.00  0.00    +0.140 C 
ATOM     16  C   UNL     1      30.297 -23.197 -13.651  0.00  0.00    +0.004 C 
ATOM     17  C   UNL     1      29.526 -22.929 -14.781  0.00  0.00    +0.037 C 
BRANCH  15  18
ATOM     18  O   UNL     1      29.387 -22.496 -17.124  0.00  0.00    -0.471 OA
ATOM     19  C   UNL     1      28.156 -23.206 -17.252  0.00  0.00    +0.252 C 
ENDBRANCH  15  18
ENDBRANCH   5  12
BRANCH  11  20
ATOM     20  S   UNL     1      40.126 -25.313 -14.431  0.00  0.00    +0.063 S 
ATOM     21  O   UNL     1      41.014 -24.186 -14.201  0.00  0.00    -0.153 OA
ATOM     22  O   UNL     1      39.986 -26.351 -13.425  0.00  0.00    -0.153 OA
BRANCH  20  23
ATOM     23  N   UNL     1      40.517 -26.036 -15.927  0.00  0.00    -0.203 NA
ATOM     24  H   UNL     1      41.528 -26.165 -15.987  0.00  0.00    +0.144 HD
ATOM     25  H   UNL     1      40.205 -25.433 -16.687  0.00  0.00    +0.144 HD
ENDBRANCH  20  23
ENDBRANCH  11  20
TORSDOF 4
ENDMDL
MODEL 8
REMARK VINA RESULT:      -8.7     10.057     12.266
REMARK  Name = 1604
REMARK  4 active torsions:
REMARK  status: ('A' for Active; 'I' for Inactive)
REMARK    1  A    between atoms: N_5  and  C_12
REMARK    2  A    between atoms: C_11  and  S_20
REMARK    3  A    between atoms: C_15  and  O_18
REMARK    4  A    between atoms: S_20  and  N_23
REMARK                            x       y       z     vdW  Elec       q    Type
REMARK                         _______ _______ _______ _____ _____    ______ ____
ROOT
ATOM      1  S   UNL     1      34.656 -18.142 -23.314  0.00  0.00    +0.082 S 
ATOM      2  S   UNL     1      34.217 -16.082 -25.424  0.00  0.00    -0.048 S 
ATOM      3  O   UNL     1      36.029 -18.291 -23.754  0.00  0.00    -0.149 OA
ATOM      4  O   UNL     1      33.594 -19.006 -23.788  0.00  0.00    -0.149 OA
ATOM      5  N   UNL     1      34.594 -18.009 -21.580  0.00  0.00    -0.190 N 
ATOM      6  C   UNL     1      33.425 -17.214 -21.057  0.00  0.00    +0.121 C 
ATOM      7  C   UNL     1      33.555 -15.734 -21.476  0.00  0.00    +0.052 C 
ATOM      8  C   UNL     1      33.676 -15.540 -22.961  0.00  0.00    +0.007 C 
ATOM      9  C   UNL     1      34.161 -16.524 -23.795  0.00  0.00    +0.152 C 
ATOM     10  C   UNL     1      33.351 -14.368 -23.708  0.00  0.00    +0.024 C 
ATOM     11  C   UNL     1      33.596 -14.526 -25.058  0.00  0.00    +0.152 C 
ENDROOT
BRANCH   5  12
ATOM     12  C   UNL     1      34.907 -19.240 -20.890  0.00  0.00    +0.072 C 
ATOM     13  C   UNL     1      33.879 -20.087 -20.487  0.00  0.00    +0.053 C 
ATOM     14  C   UNL     1      36.235 -19.572 -20.636  0.00  0.00    +0.016 C 
ATOM     15  C   UNL     1      34.180 -21.276 -19.822  0.00  0.00    +0.140 C 
ATOM     16  C   UNL     1      36.536 -20.762 -19.972  0.00  0.00    +0.004 C 
ATOM     17  C   UNL     1      35.509 -21.613 -19.565  0.00  0.00    +0.037 C 
BRANCH  15  18
ATOM     18  O   UNL     1      33.177 -22.106 -19.425  0.00  0.00    -0.471 OA
ATOM     19  C   UNL     1      33.332 -22.753 -18.162  0.00  0.00    +0.252 C 
ENDBRANCH  15  18
ENDBRANCH   5  12
BRANCH  11  20
ATOM     20  S   UNL     1      33.403 -13.466 -26.447  0.00  0.00    +0.063 S 
ATOM     21  O   UNL     1      33.584 -12.097 -25.995  0.00  0.00    -0.153 OA
ATOM     22  O   UNL     1      34.214 -13.991 -27.531  0.00  0.00    -0.153 OA
BRANCH  20  23
ATOM     23  N   UNL     1      31.755 -13.721 -26.810  0.00  0.00    -0.203 NA
ATOM     24  H   UNL     1      31.290 -12.820 -26.928  0.00  0.00    +0.144 HD
ATOM     25  H   UNL     1      31.315 -14.234 -26.047  0.00  0.00    +0.144 HD
ENDBRANCH  20  23
ENDBRANCH  11  20
TORSDOF 4
ENDMDL
MODEL 9
REMARK VINA RESULT:      -8.4      7.402      8.490
REMARK  Name = 1604
REMARK  4 active torsions:
REMARK  status: ('A' for Active; 'I' for Inactive)
REMARK    1  A    between atoms: N_5  and  C_12
REMARK    2  A    between atoms: C_11  and  S_20
REMARK    3  A    between atoms: C_15  and  O_18
REMARK    4  A    between atoms: S_20  and  N_23
REMARK                            x       y       z     vdW  Elec       q    Type
REMARK                         _______ _______ _______ _____ _____    ______ ____
ROOT
ATOM      1  S   UNL     1      35.857 -19.969 -20.672  0.00  0.00    +0.082 S 
ATOM      2  S   UNL     1      36.405 -21.655 -18.275  0.00  0.00    -0.048 S 
ATOM      3  O   UNL     1      36.898 -20.670 -21.396  0.00  0.00    -0.149 OA
ATOM      4  O   UNL     1      36.103 -18.719 -19.980  0.00  0.00    -0.149 OA
ATOM      5  N   UNL     1      34.427 -19.840 -21.656  0.00  0.00    -0.190 N 
ATOM      6  C   UNL     1      33.139 -19.771 -20.876  0.00  0.00    +0.121 C 
ATOM      7  C   UNL     1      32.889 -21.105 -20.141  0.00  0.00    +0.052 C 
ATOM      8  C   UNL     1      34.013 -21.506 -19.227  0.00  0.00    +0.007 C 
ATOM      9  C   UNL     1      35.306 -21.071 -19.417  0.00  0.00    +0.152 C 
ATOM     10  C   UNL     1      33.938 -22.370 -18.094  0.00  0.00    +0.024 C 
ATOM     11  C   UNL     1      35.166 -22.536 -17.483  0.00  0.00    +0.152 C 
ENDROOT
BRANCH   5  12
ATOM     12  C   UNL     1      34.566 -18.927 -22.768  0.00  0.00    +0.072 C 
ATOM     13  C   UNL     1      34.770 -17.571 -22.528  0.00  0.00    +0.053 C 
ATOM     14  C   UNL     1      34.498 -19.410 -24.072  0.00  0.00    +0.016 C 
ATOM     15  C   UNL     1      34.905 -16.690 -23.601  0.00  0.00    +0.140 C 
ATOM     16  C   UNL     1      34.634 -18.528 -25.145  0.00  0.00    +0.004 C 
ATOM     17  C   UNL     1      34.837 -17.169 -24.909  0.00  0.00    +0.037 C 
BRANCH  15  18
ATOM     18  O   UNL     1      35.103 -15.363 -23.370  0.00  0.00    -0.471 OA
ATOM     19  C   UNL     1      34.015 -14.485 -23.655  0.00  0.00    +0.252 C 
ENDBRANCH  15  18
ENDBRANCH   5  12
BRANCH  11  20
ATOM     20  S   UNL     1      35.698 -23.457 -16.084  0.00  0.00    +0.063 S 
ATOM     21  O   UNL     1      35.046 -24.755 -16.127  0.00  0.00    -0.153 OA
ATOM     22  O   UNL     1      37.145 -23.368 -16.010  0.00  0.00    -0.153 OA
BRANCH  20  23
ATOM     23  N   UNL     1      35.017 -22.533 -14.822  0.00  0.00    -0.203 NA
ATOM     24  H   UNL     1      34.028 -22.767 -14.724  0.00  0.00    +0.144 HD
ATOM     25  H   UNL     1      35.112 -21.541 -15.038  0.00  0.00    +0.144 HD
ENDBRANCH  20  23
ENDBRANCH  11  20
TORSDOF 4
ENDMDL
