MODEL 1
REMARK VINA RESULT:      -9.9      0.000      0.000
REMARK  Name = 89658382
REMARK  9 active torsions:
REMARK  status: ('A' for Active; 'I' for Inactive)
REMARK    1  A    between atoms: C_3  and  C_18
REMARK    2  A    between atoms: C_3  and  C_25
REMARK    3  A    between atoms: C_4  and  O_19
REMARK    4  A    between atoms: C_6  and  N_8
REMARK    5  A    between atoms: O_19  and  C_21
REMARK    6  A    between atoms: C_21  and  C_22
REMARK    7  A    between atoms: C_25  and  O_26
REMARK    8  A    between atoms: O_26  and  C_28
REMARK    9  A    between atoms: C_28  and  C_29
REMARK                            x       y       z     vdW  Elec       q    Type
REMARK                         _______ _______ _______ _____ _____    ______ ____
ROOT
ATOM      1  F   UNL     1      34.147 -24.649 -12.725  0.00  0.00    -0.229 F 
ATOM      2  O   UNL     1      35.031 -24.935 -16.092  0.00  0.00    -0.331 OA
ATOM      3  C   UNL     1      34.294 -23.693 -16.144  0.00  0.00    +0.189 C 
ATOM      4  C   UNL     1      33.646 -23.560 -14.762  0.00  0.00    +0.235 C 
ATOM      5  C   UNL     1      34.698 -24.172 -13.864  0.00  0.00    +0.250 C 
ATOM      6  C   UNL     1      35.249 -25.299 -14.718  0.00  0.00    +0.243 C 
ENDROOT
BRANCH   6   8
ATOM      7  O   UNL     1      36.786 -27.311 -15.951  0.00  0.00    -0.193 OA
ATOM      8  N   UNL     1      36.650 -25.517 -14.505  0.00  0.00    -0.178 N 
ATOM      9  N   UNL     1      38.710 -26.706 -14.910  0.00  0.00    -0.306 NA
ATOM     10  N   UNL     1      40.678 -26.081 -13.839  0.00  0.00    -0.332 N 
ATOM     11  C   UNL     1      37.327 -24.685 -13.626  0.00  0.00    +0.083 C 
ATOM     12  C   UNL     1      37.358 -26.554 -15.164  0.00  0.00    +0.276 C 
ATOM     13  C   UNL     1      38.626 -24.815 -13.369  0.00  0.00    +0.065 C 
ATOM     14  C   UNL     1      39.333 -25.913 -14.078  0.00  0.00    +0.193 C 
ATOM     15  H   UNL     1      41.172 -26.800 -14.295  0.00  0.00    +0.145 HD
ATOM     16  H   UNL     1      41.145 -25.482 -13.213  0.00  0.00    +0.145 HD
ENDBRANCH   6   8
BRANCH   3  18
ATOM     17 CL   UNL     1      32.270 -22.337 -17.321  0.00  0.00    -0.111 Cl
ATOM     18  C   UNL     1      33.292 -23.783 -17.294  0.00  0.00    +0.129 C 
ENDBRANCH   3  18
BRANCH   4  19
ATOM     19  O   UNL     1      32.459 -24.347 -14.693  0.00  0.00    -0.447 OA
BRANCH  19  21
ATOM     20  O   UNL     1      31.337 -23.223 -13.020  0.00  0.00    -0.250 OA
ATOM     21  C   UNL     1      31.360 -23.743 -14.128  0.00  0.00    +0.316 C 
BRANCH  21  22
ATOM     22  C   UNL     1      30.174 -23.825 -15.072  0.00  0.00    +0.099 C 
ATOM     23  C   UNL     1      29.379 -22.521 -15.058  0.00  0.00    +0.012 C 
ATOM     24  C   UNL     1      29.292 -25.007 -14.689  0.00  0.00    +0.012 C 
ENDBRANCH  21  22
ENDBRANCH  19  21
ENDBRANCH   4  19
BRANCH   3  25
ATOM     25  C   UNL     1      35.296 -22.564 -16.419  0.00  0.00    +0.240 C 
BRANCH  25  26
ATOM     26  O   UNL     1      35.653 -22.606 -17.788  0.00  0.00    -0.446 OA
BRANCH  26  28
ATOM     27  O   UNL     1      37.133 -20.846 -17.616  0.00  0.00    -0.250 OA
ATOM     28  C   UNL     1      36.346 -21.521 -18.267  0.00  0.00    +0.316 C 
BRANCH  28  29
ATOM     29  C   UNL     1      35.983 -21.271 -19.720  0.00  0.00    +0.099 C 
ATOM     30  C   UNL     1      36.678 -20.016 -20.243  0.00  0.00    +0.012 C 
ATOM     31  C   UNL     1      34.471 -21.157 -19.861  0.00  0.00    +0.012 C 
ENDBRANCH  28  29
ENDBRANCH  26  28
ENDBRANCH  25  26
ENDBRANCH   3  25
TORSDOF 9
ENDMDL
MODEL 2
REMARK VINA RESULT:      -8.4      3.106      6.106
REMARK  Name = 89658382
REMARK  9 active torsions:
REMARK  status: ('A' for Active; 'I' for Inactive)
REMARK    1  A    between atoms: C_3  and  C_18
REMARK    2  A    between atoms: C_3  and  C_25
REMARK    3  A    between atoms: C_4  and  O_19
REMARK    4  A    between atoms: C_6  and  N_8
REMARK    5  A    between atoms: O_19  and  C_21
REMARK    6  A    between atoms: C_21  and  C_22
REMARK    7  A    between atoms: C_25  and  O_26
REMARK    8  A    between atoms: O_26  and  C_28
REMARK    9  A    between atoms: C_28  and  C_29
REMARK                            x       y       z     vdW  Elec       q    Type
REMARK                         _______ _______ _______ _____ _____    ______ ____
ROOT
ATOM      1  F   UNL     1      33.372 -25.390 -13.131  0.00  0.00    -0.229 F 
ATOM      2  O   UNL     1      33.726 -22.464 -15.005  0.00  0.00    -0.331 OA
ATOM      3  C   UNL     1      34.896 -23.182 -15.461  0.00  0.00    +0.189 C 
ATOM      4  C   UNL     1      34.992 -24.403 -14.542  0.00  0.00    +0.235 C 
ATOM      5  C   UNL     1      33.534 -24.727 -14.298  0.00  0.00    +0.250 C 
ATOM      6  C   UNL     1      32.895 -23.352 -14.239  0.00  0.00    +0.243 C 
ENDROOT
BRANCH   6   8
ATOM      7  O   UNL     1      30.576 -24.190 -12.878  0.00  0.00    -0.193 OA
ATOM      8  N   UNL     1      31.567 -23.339 -14.781  0.00  0.00    -0.178 N 
ATOM      9  N   UNL     1      29.193 -23.736 -14.621  0.00  0.00    -0.306 NA
ATOM     10  N   UNL     1      27.782 -23.269 -16.409  0.00  0.00    -0.332 N 
ATOM     11  C   UNL     1      31.382 -22.881 -16.076  0.00  0.00    +0.083 C 
ATOM     12  C   UNL     1      30.446 -23.778 -14.033  0.00  0.00    +0.276 C 
ATOM     13  C   UNL     1      30.186 -22.833 -16.659  0.00  0.00    +0.065 C 
ATOM     14  C   UNL     1      29.035 -23.302 -15.843  0.00  0.00    +0.193 C 
ATOM     15  H   UNL     1      27.001 -23.574 -15.892  0.00  0.00    +0.145 HD
ATOM     16  H   UNL     1      27.666 -22.941 -17.330  0.00  0.00    +0.145 HD
ENDBRANCH   6   8
BRANCH   3  18
ATOM     17 CL   UNL     1      37.546 -23.049 -15.986  0.00  0.00    -0.111 Cl
ATOM     18  C   UNL     1      36.096 -22.241 -15.371  0.00  0.00    +0.129 C 
ENDBRANCH   3  18
BRANCH   4  19
ATOM     19  O   UNL     1      35.602 -24.047 -13.304  0.00  0.00    -0.447 OA
BRANCH  19  21
ATOM     20  O   UNL     1      36.264 -25.421 -11.574  0.00  0.00    -0.250 OA
ATOM     21  C   UNL     1      36.396 -25.004 -12.717  0.00  0.00    +0.316 C 
BRANCH  21  22
ATOM     22  C   UNL     1      37.470 -25.462 -13.690  0.00  0.00    +0.099 C 
ATOM     23  C   UNL     1      37.260 -26.924 -14.077  0.00  0.00    +0.012 C 
ATOM     24  C   UNL     1      38.846 -25.252 -13.072  0.00  0.00    +0.012 C 
ENDBRANCH  21  22
ENDBRANCH  19  21
ENDBRANCH   4  19
BRANCH   3  25
ATOM     25  C   UNL     1      34.660 -23.582 -16.923  0.00  0.00    +0.240 C 
BRANCH  25  26
ATOM     26  O   UNL     1      35.008 -22.485 -17.748  0.00  0.00    -0.446 OA
BRANCH  26  28
ATOM     27  O   UNL     1      33.094 -22.707 -19.015  0.00  0.00    -0.250 OA
ATOM     28  C   UNL     1      34.243 -22.309 -18.875  0.00  0.00    +0.316 C 
BRANCH  28  29
ATOM     29  C   UNL     1      35.036 -21.558 -19.930  0.00  0.00    +0.099 C 
ATOM     30  C   UNL     1      36.414 -21.171 -19.399  0.00  0.00    +0.012 C 
ATOM     31  C   UNL     1      34.258 -20.326 -20.378  0.00  0.00    +0.012 C 
ENDBRANCH  28  29
ENDBRANCH  26  28
ENDBRANCH  25  26
ENDBRANCH   3  25
TORSDOF 9
ENDMDL
MODEL 3
REMARK VINA RESULT:      -8.0      2.839      6.028
REMARK  Name = 89658382
REMARK  9 active torsions:
REMARK  status: ('A' for Active; 'I' for Inactive)
REMARK    1  A    between atoms: C_3  and  C_18
REMARK    2  A    between atoms: C_3  and  C_25
REMARK    3  A    between atoms: C_4  and  O_19
REMARK    4  A    between atoms: C_6  and  N_8
REMARK    5  A    between atoms: O_19  and  C_21
REMARK    6  A    between atoms: C_21  and  C_22
REMARK    7  A    between atoms: C_25  and  O_26
REMARK    8  A    between atoms: O_26  and  C_28
REMARK    9  A    between atoms: C_28  and  C_29
REMARK                            x       y       z     vdW  Elec       q    Type
REMARK                         _______ _______ _______ _____ _____    ______ ____
ROOT
ATOM      1  F   UNL     1      35.233 -25.698 -14.219  0.00  0.00    -0.229 F 
ATOM      2  O   UNL     1      34.526 -22.481 -15.382  0.00  0.00    -0.331 OA
ATOM      3  C   UNL     1      35.609 -22.825 -16.276  0.00  0.00    +0.189 C 
ATOM      4  C   UNL     1      36.175 -24.137 -15.724  0.00  0.00    +0.235 C 
ATOM      5  C   UNL     1      34.930 -24.818 -15.200  0.00  0.00    +0.250 C 
ATOM      6  C   UNL     1      34.119 -23.656 -14.659  0.00  0.00    +0.243 C 
ENDROOT
BRANCH   6   8
ATOM      7  O   UNL     1      32.462 -25.135 -12.928  0.00  0.00    -0.193 OA
ATOM      8  N   UNL     1      32.707 -23.845 -14.826  0.00  0.00    -0.178 N 
ATOM      9  N   UNL     1      30.578 -24.745 -14.134  0.00  0.00    -0.306 NA
ATOM     10  N   UNL     1      28.652 -24.342 -15.374  0.00  0.00    -0.332 N 
ATOM     11  C   UNL     1      32.082 -23.263 -15.919  0.00  0.00    +0.083 C 
ATOM     12  C   UNL     1      31.937 -24.605 -13.910  0.00  0.00    +0.276 C 
ATOM     13  C   UNL     1      30.777 -23.386 -16.151  0.00  0.00    +0.065 C 
ATOM     14  C   UNL     1      30.004 -24.191 -15.170  0.00  0.00    +0.193 C 
ATOM     15  H   UNL     1      28.115 -24.870 -14.740  0.00  0.00    +0.145 HD
ATOM     16  H   UNL     1      28.223 -23.923 -16.155  0.00  0.00    +0.145 HD
ENDBRANCH   6   8
BRANCH   3  18
ATOM     17 CL   UNL     1      37.215 -21.395 -17.918  0.00  0.00    -0.111 Cl
ATOM     18  C   UNL     1      36.609 -21.669 -16.277  0.00  0.00    +0.129 C 
ENDBRANCH   3  18
BRANCH   4  19
ATOM     19  O   UNL     1      37.058 -23.878 -14.635  0.00  0.00    -0.447 OA
BRANCH  19  21
ATOM     20  O   UNL     1      39.190 -23.781 -15.507  0.00  0.00    -0.250 OA
ATOM     21  C   UNL     1      38.355 -24.310 -14.786  0.00  0.00    +0.316 C 
BRANCH  21  22
ATOM     22  C   UNL     1      38.598 -25.545 -13.936  0.00  0.00    +0.099 C 
ATOM     23  C   UNL     1      38.099 -25.327 -12.510  0.00  0.00    +0.012 C 
ATOM     24  C   UNL     1      40.081 -25.894 -13.950  0.00  0.00    +0.012 C 
ENDBRANCH  21  22
ENDBRANCH  19  21
ENDBRANCH   4  19
BRANCH   3  25
ATOM     25  C   UNL     1      35.019 -23.000 -17.681  0.00  0.00    +0.240 C 
BRANCH  25  26
ATOM     26  O   UNL     1      34.370 -21.796 -18.047  0.00  0.00    -0.446 OA
BRANCH  26  28
ATOM     27  O   UNL     1      33.176 -22.714 -19.794  0.00  0.00    -0.250 OA
ATOM     28  C   UNL     1      33.784 -21.778 -19.289  0.00  0.00    +0.316 C 
BRANCH  28  29
ATOM     29  C   UNL     1      34.008 -20.431 -19.952  0.00  0.00    +0.099 C 
ATOM     30  C   UNL     1      32.815 -20.051 -20.825  0.00  0.00    +0.012 C 
ATOM     31  C   UNL     1      35.293 -20.468 -20.770  0.00  0.00    +0.012 C 
ENDBRANCH  28  29
ENDBRANCH  26  28
ENDBRANCH  25  26
ENDBRANCH   3  25
TORSDOF 9
ENDMDL
MODEL 4
REMARK VINA RESULT:      -7.4      2.687      5.283
REMARK  Name = 89658382
REMARK  9 active torsions:
REMARK  status: ('A' for Active; 'I' for Inactive)
REMARK    1  A    between atoms: C_3  and  C_18
REMARK    2  A    between atoms: C_3  and  C_25
REMARK    3  A    between atoms: C_4  and  O_19
REMARK    4  A    between atoms: C_6  and  N_8
REMARK    5  A    between atoms: O_19  and  C_21
REMARK    6  A    between atoms: C_21  and  C_22
REMARK    7  A    between atoms: C_25  and  O_26
REMARK    8  A    between atoms: O_26  and  C_28
REMARK    9  A    between atoms: C_28  and  C_29
REMARK                            x       y       z     vdW  Elec       q    Type
REMARK                         _______ _______ _______ _____ _____    ______ ____
ROOT
ATOM      1  F   UNL     1      32.087 -23.285 -16.593  0.00  0.00    -0.229 F 
ATOM      2  O   UNL     1      35.203 -23.170 -15.018  0.00  0.00    -0.331 OA
ATOM      3  C   UNL     1      34.767 -24.480 -14.589  0.00  0.00    +0.189 C 
ATOM      4  C   UNL     1      33.301 -24.571 -15.025  0.00  0.00    +0.235 C 
ATOM      5  C   UNL     1      33.312 -23.790 -16.321  0.00  0.00    +0.250 C 
ATOM      6  C   UNL     1      34.308 -22.683 -16.033  0.00  0.00    +0.243 C 
ENDROOT
BRANCH   6   8
ATOM      7  O   UNL     1      36.991 -21.825 -16.011  0.00  0.00    -0.193 OA
ATOM      8  N   UNL     1      35.067 -22.311 -17.191  0.00  0.00    -0.178 N 
ATOM      9  N   UNL     1      37.089 -21.543 -18.262  0.00  0.00    -0.306 NA
ATOM     10  N   UNL     1      37.182 -21.257 -20.568  0.00  0.00    -0.332 N 
ATOM     11  C   UNL     1      34.456 -22.368 -18.434  0.00  0.00    +0.083 C 
ATOM     12  C   UNL     1      36.417 -21.888 -17.101  0.00  0.00    +0.276 C 
ATOM     13  C   UNL     1      35.084 -22.042 -19.561  0.00  0.00    +0.065 C 
ATOM     14  C   UNL     1      36.497 -21.603 -19.426  0.00  0.00    +0.193 C 
ATOM     15  H   UNL     1      38.120 -20.962 -20.508  0.00  0.00    +0.145 HD
ATOM     16  H   UNL     1      36.735 -21.302 -21.443  0.00  0.00    +0.145 HD
ENDBRANCH   6   8
BRANCH   3  18
ATOM     17 CL   UNL     1      35.998 -23.247 -12.520  0.00  0.00    -0.111 Cl
ATOM     18  C   UNL     1      34.974 -24.579 -13.079  0.00  0.00    +0.129 C 
ENDBRANCH   3  18
BRANCH   4  19
ATOM     19  O   UNL     1      32.462 -23.903 -14.085  0.00  0.00    -0.447 OA
BRANCH  19  21
ATOM     20  O   UNL     1      31.568 -25.561 -12.755  0.00  0.00    -0.250 OA
ATOM     21  C   UNL     1      31.433 -24.643 -13.554  0.00  0.00    +0.316 C 
BRANCH  21  22
ATOM     22  C   UNL     1      30.102 -24.166 -14.110  0.00  0.00    +0.099 C 
ATOM     23  C   UNL     1      29.659 -25.042 -15.280  0.00  0.00    +0.012 C 
ATOM     24  C   UNL     1      30.215 -22.707 -14.533  0.00  0.00    +0.012 C 
ENDBRANCH  21  22
ENDBRANCH  19  21
ENDBRANCH   4  19
BRANCH   3  25
ATOM     25  C   UNL     1      35.642 -25.521 -15.300  0.00  0.00    +0.240 C 
BRANCH  25  26
ATOM     26  O   UNL     1      36.982 -25.064 -15.286  0.00  0.00    -0.446 OA
BRANCH  26  28
ATOM     27  O   UNL     1      37.910 -27.160 -15.027  0.00  0.00    -0.250 OA
ATOM     28  C   UNL     1      37.919 -25.953 -14.819  0.00  0.00    +0.316 C 
BRANCH  28  29
ATOM     29  C   UNL     1      38.965 -25.223 -13.996  0.00  0.00    +0.099 C 
ATOM     30  C   UNL     1      40.363 -25.758 -14.297  0.00  0.00    +0.012 C 
ATOM     31  C   UNL     1      38.638 -25.356 -12.514  0.00  0.00    +0.012 C 
ENDBRANCH  28  29
ENDBRANCH  26  28
ENDBRANCH  25  26
ENDBRANCH   3  25
TORSDOF 9
ENDMDL
