MODEL 1
REMARK VINA RESULT:     -10.8      0.000      0.000
REMARK  Name = 6102822
REMARK  5 active torsions:
REMARK  status: ('A' for Active; 'I' for Inactive)
REMARK    1  A    between atoms: N_2  and  S_21
REMARK    2  A    between atoms: C_4  and  C_12
REMARK    3  A    between atoms: C_10  and  O_32
REMARK    4  A    between atoms: C_15  and  N_18
REMARK    5  A    between atoms: S_21  and  C_26
REMARK                            x       y       z     vdW  Elec       q    Type
REMARK                         _______ _______ _______ _____ _____    ______ ____
ROOT
ATOM      1  O   UNL     1      34.682 -22.726 -16.459  0.00  0.00    -0.413 OA
ATOM      2  N   UNL     1      35.950 -21.487 -18.179  0.00  0.00    -0.158 N 
ATOM      3  N   UNL     1      36.947 -22.779 -16.381  0.00  0.00    -0.354 NA
ATOM      4  C   UNL     1      34.215 -24.143 -14.489  0.00  0.00    +0.040 C 
ATOM      5  C   UNL     1      35.050 -23.494 -15.390  0.00  0.00    +0.175 C 
ATOM      6  C   UNL     1      36.436 -23.524 -15.347  0.00  0.00    +0.156 C 
ATOM      7  C   UNL     1      34.859 -24.868 -13.482  0.00  0.00    +0.036 C 
ATOM      8  C   UNL     1      35.872 -22.336 -16.996  0.00  0.00    +0.364 C 
ATOM      9  C   UNL     1      37.066 -24.256 -14.330  0.00  0.00    +0.126 C 
ATOM     10  C   UNL     1      36.256 -24.926 -13.401  0.00  0.00    +0.123 C 
ATOM     11  H   UNL     1      36.653 -20.802 -18.267  0.00  0.00    +0.179 HD
ENDROOT
BRANCH   4  12
ATOM     12  C   UNL     1      32.781 -24.064 -14.600  0.00  0.00    +0.004 C 
ATOM     13  C   UNL     1      32.194 -23.368 -15.661  0.00  0.00    +0.014 C 
ATOM     14  C   UNL     1      31.967 -24.680 -13.646  0.00  0.00    +0.000 C 
ATOM     15  C   UNL     1      30.806 -23.291 -15.769  0.00  0.00    +0.042 C 
ATOM     16  C   UNL     1      30.578 -24.604 -13.752  0.00  0.00    +0.001 C 
ATOM     17  C   UNL     1      29.997 -23.909 -14.814  0.00  0.00    +0.014 C 
BRANCH  15  18
ATOM     18  N   UNL     1      30.219 -22.590 -16.842  0.00  0.00    -0.357 N 
ATOM     19  H   UNL     1      29.246 -22.445 -16.861  0.00  0.00    +0.142 HD
ATOM     20  H   UNL     1      30.782 -22.245 -17.572  0.00  0.00    +0.142 HD
ENDBRANCH  15  18
ENDBRANCH   4  12
BRANCH   2  21
ATOM     21  S   UNL     1      34.785 -21.716 -19.406  0.00  0.00    +0.078 S 
ATOM     22  O   UNL     1      35.151 -22.900 -20.161  0.00  0.00    -0.150 OA
ATOM     23  O   UNL     1      33.445 -21.595 -18.865  0.00  0.00    -0.150 OA
BRANCH  21  26
ATOM     24 CL   UNL     1      32.372 -19.893 -20.552  0.00  0.00    -0.081 Cl
ATOM     25 CL   UNL     1      38.280 -18.565 -22.041  0.00  0.00    -0.082 Cl
ATOM     26  C   UNL     1      35.068 -20.325 -20.463  0.00  0.00    +0.137 C 
ATOM     27  C   UNL     1      34.020 -19.558 -20.943  0.00  0.00    +0.077 C 
ATOM     28  C   UNL     1      36.384 -20.033 -20.793  0.00  0.00    +0.032 C 
ATOM     29  C   UNL     1      36.655 -18.945 -21.622  0.00  0.00    +0.059 C 
ATOM     30  C   UNL     1      34.291 -18.471 -21.773  0.00  0.00    +0.014 C 
ATOM     31  C   UNL     1      35.609 -18.164 -22.113  0.00  0.00    +0.012 C 
ENDBRANCH  21  26
ENDBRANCH   2  21
BRANCH  10  32
ATOM     32  O   UNL     1      36.842 -25.646 -12.402  0.00  0.00    -0.475 OA
ATOM     33  C   UNL     1      38.260 -25.784 -12.450  0.00  0.00    +0.252 C 
ENDBRANCH  10  32
TORSDOF 5
ENDMDL
MODEL 2
REMARK VINA RESULT:     -10.6      2.050      4.781
REMARK  Name = 6102822
REMARK  5 active torsions:
REMARK  status: ('A' for Active; 'I' for Inactive)
REMARK    1  A    between atoms: N_2  and  S_21
REMARK    2  A    between atoms: C_4  and  C_12
REMARK    3  A    between atoms: C_10  and  O_32
REMARK    4  A    between atoms: C_15  and  N_18
REMARK    5  A    between atoms: S_21  and  C_26
REMARK                            x       y       z     vdW  Elec       q    Type
REMARK                         _______ _______ _______ _____ _____    ______ ____
ROOT
ATOM      1  O   UNL     1      34.644 -22.909 -17.807  0.00  0.00    -0.413 OA
ATOM      2  N   UNL     1      34.155 -21.877 -19.998  0.00  0.00    -0.158 N 
ATOM      3  N   UNL     1      32.495 -22.380 -18.298  0.00  0.00    -0.354 NA
ATOM      4  C   UNL     1      34.285 -23.847 -15.550  0.00  0.00    +0.040 C 
ATOM      5  C   UNL     1      33.869 -23.264 -16.740  0.00  0.00    +0.175 C 
ATOM      6  C   UNL     1      32.555 -22.938 -17.044  0.00  0.00    +0.156 C 
ATOM      7  C   UNL     1      33.276 -24.106 -14.618  0.00  0.00    +0.036 C 
ATOM      8  C   UNL     1      33.749 -22.390 -18.694  0.00  0.00    +0.364 C 
ATOM      9  C   UNL     1      31.555 -23.205 -16.098  0.00  0.00    +0.126 C 
ATOM     10  C   UNL     1      31.937 -23.793 -14.883  0.00  0.00    +0.123 C 
ATOM     11  H   UNL     1      33.585 -22.001 -20.792  0.00  0.00    +0.179 HD
ENDROOT
BRANCH   4  12
ATOM     12  C   UNL     1      35.671 -24.157 -15.308  0.00  0.00    +0.004 C 
ATOM     13  C   UNL     1      36.046 -25.448 -14.923  0.00  0.00    +0.014 C 
ATOM     14  C   UNL     1      36.649 -23.169 -15.454  0.00  0.00    +0.000 C 
ATOM     15  C   UNL     1      37.388 -25.749 -14.689  0.00  0.00    +0.042 C 
ATOM     16  C   UNL     1      37.991 -23.470 -15.219  0.00  0.00    +0.001 C 
ATOM     17  C   UNL     1      38.361 -24.760 -14.837  0.00  0.00    +0.014 C 
BRANCH  15  18
ATOM     18  N   UNL     1      37.762 -27.052 -14.303  0.00  0.00    -0.357 N 
ATOM     19  H   UNL     1      38.688 -27.358 -14.435  0.00  0.00    +0.142 HD
ATOM     20  H   UNL     1      37.097 -27.657 -13.902  0.00  0.00    +0.142 HD
ENDBRANCH  15  18
ENDBRANCH   4  12
BRANCH   2  21
ATOM     21  S   UNL     1      35.648 -21.055 -20.104  0.00  0.00    +0.078 S 
ATOM     22  O   UNL     1      36.139 -20.835 -18.757  0.00  0.00    -0.150 OA
ATOM     23  O   UNL     1      36.506 -21.685 -21.089  0.00  0.00    -0.150 OA
BRANCH  21  26
ATOM     24 CL   UNL     1      37.735 -19.073 -21.579  0.00  0.00    -0.081 Cl
ATOM     25 CL   UNL     1      31.770 -17.388 -20.887  0.00  0.00    -0.082 Cl
ATOM     26  C   UNL     1      35.166 -19.475 -20.740  0.00  0.00    +0.137 C 
ATOM     27  C   UNL     1      36.077 -18.642 -21.368  0.00  0.00    +0.077 C 
ATOM     28  C   UNL     1      33.838 -19.103 -20.584  0.00  0.00    +0.032 C 
ATOM     29  C   UNL     1      33.414 -17.867 -21.070  0.00  0.00    +0.059 C 
ATOM     30  C   UNL     1      35.651 -17.405 -21.853  0.00  0.00    +0.014 C 
ATOM     31  C   UNL     1      34.320 -17.017 -21.704  0.00  0.00    +0.012 C 
ENDBRANCH  21  26
ENDBRANCH   2  21
BRANCH  10  32
ATOM     32  O   UNL     1      30.985 -24.063 -13.944  0.00  0.00    -0.475 OA
ATOM     33  C   UNL     1      29.926 -24.935 -14.330  0.00  0.00    +0.252 C 
ENDBRANCH  10  32
TORSDOF 5
ENDMDL
MODEL 3
REMARK VINA RESULT:     -10.5      6.061     11.602
REMARK  Name = 6102822
REMARK  5 active torsions:
REMARK  status: ('A' for Active; 'I' for Inactive)
REMARK    1  A    between atoms: N_2  and  S_21
REMARK    2  A    between atoms: C_4  and  C_12
REMARK    3  A    between atoms: C_10  and  O_32
REMARK    4  A    between atoms: C_15  and  N_18
REMARK    5  A    between atoms: S_21  and  C_26
REMARK                            x       y       z     vdW  Elec       q    Type
REMARK                         _______ _______ _______ _____ _____    ______ ____
ROOT
ATOM      1  O   UNL     1      33.982 -15.058 -22.257  0.00  0.00    -0.413 OA
ATOM      2  N   UNL     1      34.937 -16.769 -20.753  0.00  0.00    -0.158 N 
ATOM      3  N   UNL     1      33.499 -14.945 -20.045  0.00  0.00    -0.354 NA
ATOM      4  C   UNL     1      32.703 -13.084 -23.013  0.00  0.00    +0.040 C 
ATOM      5  C   UNL     1      33.170 -13.978 -22.058  0.00  0.00    +0.175 C 
ATOM      6  C   UNL     1      32.877 -13.913 -20.703  0.00  0.00    +0.156 C 
ATOM      7  C   UNL     1      31.879 -12.061 -22.533  0.00  0.00    +0.036 C 
ATOM      8  C   UNL     1      34.131 -15.580 -21.007  0.00  0.00    +0.364 C 
ATOM      9  C   UNL     1      32.049 -12.880 -20.239  0.00  0.00    +0.126 C 
ATOM     10  C   UNL     1      31.558 -11.958 -21.174  0.00  0.00    +0.123 C 
ATOM     11  H   UNL     1      35.474 -16.852 -19.931  0.00  0.00    +0.179 HD
ENDROOT
BRANCH   4  12
ATOM     12  C   UNL     1      33.053 -13.218 -24.404  0.00  0.00    +0.004 C 
ATOM     13  C   UNL     1      33.805 -12.226 -25.039  0.00  0.00    +0.014 C 
ATOM     14  C   UNL     1      32.641 -14.340 -25.128  0.00  0.00    +0.000 C 
ATOM     15  C   UNL     1      34.145 -12.355 -26.386  0.00  0.00    +0.042 C 
ATOM     16  C   UNL     1      32.980 -14.470 -26.475  0.00  0.00    +0.001 C 
ATOM     17  C   UNL     1      33.732 -13.477 -27.104  0.00  0.00    +0.014 C 
BRANCH  15  18
ATOM     18  N   UNL     1      34.905 -11.352 -27.021  0.00  0.00    -0.357 N 
ATOM     19  H   UNL     1      35.886 -11.357 -26.946  0.00  0.00    +0.142 HD
ATOM     20  H   UNL     1      34.455 -10.647 -27.539  0.00  0.00    +0.142 HD
ENDBRANCH  15  18
ENDBRANCH   4  12
BRANCH   2  21
ATOM     21  S   UNL     1      34.920 -18.013 -21.923  0.00  0.00    +0.078 S 
ATOM     22  O   UNL     1      33.565 -18.142 -22.424  0.00  0.00    -0.150 OA
ATOM     23  O   UNL     1      36.019 -17.849 -22.855  0.00  0.00    -0.150 OA
BRANCH  21  26
ATOM     24 CL   UNL     1      37.921 -19.088 -21.380  0.00  0.00    -0.081 Cl
ATOM     25 CL   UNL     1      33.027 -22.107 -18.966  0.00  0.00    -0.082 Cl
ATOM     26  C   UNL     1      35.248 -19.454 -20.950  0.00  0.00    +0.137 C 
ATOM     27  C   UNL     1      36.541 -19.897 -20.730  0.00  0.00    +0.077 C 
ATOM     28  C   UNL     1      34.156 -20.123 -20.414  0.00  0.00    +0.032 C 
ATOM     29  C   UNL     1      34.367 -21.264 -19.640  0.00  0.00    +0.059 C 
ATOM     30  C   UNL     1      36.752 -21.038 -19.956  0.00  0.00    +0.014 C 
ATOM     31  C   UNL     1      35.665 -21.722 -19.411  0.00  0.00    +0.012 C 
ENDBRANCH  21  26
ENDBRANCH   2  21
BRANCH  10  32
ATOM     32  O   UNL     1      30.750 -10.944 -20.750  0.00  0.00    -0.475 OA
ATOM     33  C   UNL     1      30.999 -10.420 -19.449  0.00  0.00    +0.252 C 
ENDBRANCH  10  32
TORSDOF 5
ENDMDL
MODEL 4
REMARK VINA RESULT:     -10.1      5.994     11.382
REMARK  Name = 6102822
REMARK  5 active torsions:
REMARK  status: ('A' for Active; 'I' for Inactive)
REMARK    1  A    between atoms: N_2  and  S_21
REMARK    2  A    between atoms: C_4  and  C_12
REMARK    3  A    between atoms: C_10  and  O_32
REMARK    4  A    between atoms: C_15  and  N_18
REMARK    5  A    between atoms: S_21  and  C_26
REMARK                            x       y       z     vdW  Elec       q    Type
REMARK                         _______ _______ _______ _____ _____    ______ ____
ROOT
ATOM      1  O   UNL     1      34.121 -15.203 -22.259  0.00  0.00    -0.413 OA
ATOM      2  N   UNL     1      35.175 -16.831 -20.730  0.00  0.00    -0.158 N 
ATOM      3  N   UNL     1      33.680 -15.046 -20.041  0.00  0.00    -0.354 NA
ATOM      4  C   UNL     1      32.747 -13.303 -23.042  0.00  0.00    +0.040 C 
ATOM      5  C   UNL     1      33.270 -14.150 -22.072  0.00  0.00    +0.175 C 
ATOM      6  C   UNL     1      33.003 -14.058 -20.714  0.00  0.00    +0.156 C 
ATOM      7  C   UNL     1      31.894 -12.300 -22.572  0.00  0.00    +0.036 C 
ATOM      8  C   UNL     1      34.317 -15.683 -21.000  0.00  0.00    +0.364 C 
ATOM      9  C   UNL     1      32.144 -13.046 -20.260  0.00  0.00    +0.126 C 
ATOM     10  C   UNL     1      31.596 -12.171 -21.210  0.00  0.00    +0.123 C 
ATOM     11  H   UNL     1      35.732 -16.869 -19.918  0.00  0.00    +0.179 HD
ENDROOT
BRANCH   4  12
ATOM     12  C   UNL     1      33.074 -13.463 -24.436  0.00  0.00    +0.004 C 
ATOM     13  C   UNL     1      33.738 -12.443 -25.124  0.00  0.00    +0.014 C 
ATOM     14  C   UNL     1      32.727 -14.637 -25.109  0.00  0.00    +0.000 C 
ATOM     15  C   UNL     1      34.054 -12.597 -26.474  0.00  0.00    +0.042 C 
ATOM     16  C   UNL     1      33.043 -14.791 -26.460  0.00  0.00    +0.001 C 
ATOM     17  C   UNL     1      33.707 -13.771 -27.142  0.00  0.00    +0.014 C 
BRANCH  15  18
ATOM     18  N   UNL     1      34.725 -11.566 -27.163  0.00  0.00    -0.357 N 
ATOM     19  H   UNL     1      35.695 -11.449 -27.050  0.00  0.00    +0.142 HD
ATOM     20  H   UNL     1      34.223 -10.964 -27.758  0.00  0.00    +0.142 HD
ENDBRANCH  15  18
ENDBRANCH   4  12
BRANCH   2  21
ATOM     21  S   UNL     1      35.183 -18.107 -21.865  0.00  0.00    +0.078 S 
ATOM     22  O   UNL     1      34.030 -17.949 -22.730  0.00  0.00    -0.150 OA
ATOM     23  O   UNL     1      36.503 -18.261 -22.447  0.00  0.00    -0.150 OA
BRANCH  21  26
ATOM     24 CL   UNL     1      32.210 -19.298 -21.416  0.00  0.00    -0.081 Cl
ATOM     25 CL   UNL     1      37.114 -21.990 -18.658  0.00  0.00    -0.082 Cl
ATOM     26  C   UNL     1      34.874 -19.521 -20.847  0.00  0.00    +0.137 C 
ATOM     27  C   UNL     1      33.592 -20.015 -20.669  0.00  0.00    +0.077 C 
ATOM     28  C   UNL     1      35.967 -20.118 -20.235  0.00  0.00    +0.032 C 
ATOM     29  C   UNL     1      35.770 -21.236 -19.424  0.00  0.00    +0.059 C 
ATOM     30  C   UNL     1      33.396 -21.133 -19.857  0.00  0.00    +0.014 C 
ATOM     31  C   UNL     1      34.485 -21.743 -19.235  0.00  0.00    +0.012 C 
ENDBRANCH  21  26
ENDBRANCH   2  21
BRANCH  10  32
ATOM     32  O   UNL     1      30.757 -11.178 -20.796  0.00  0.00    -0.475 OA
ATOM     33  C   UNL     1      31.087 -10.520 -19.577  0.00  0.00    +0.252 C 
ENDBRANCH  10  32
TORSDOF 5
ENDMDL
MODEL 5
REMARK VINA RESULT:      -9.6     10.629     14.408
REMARK  Name = 6102822
REMARK  5 active torsions:
REMARK  status: ('A' for Active; 'I' for Inactive)
REMARK    1  A    between atoms: N_2  and  S_21
REMARK    2  A    between atoms: C_4  and  C_12
REMARK    3  A    between atoms: C_10  and  O_32
REMARK    4  A    between atoms: C_15  and  N_18
REMARK    5  A    between atoms: S_21  and  C_26
REMARK                            x       y       z     vdW  Elec       q    Type
REMARK                         _______ _______ _______ _____ _____    ______ ____
ROOT
ATOM      1  O   UNL     1      33.885 -11.135 -23.614  0.00  0.00    -0.413 OA
ATOM      2  N   UNL     1      34.457  -8.787 -24.121  0.00  0.00    -0.158 N 
ATOM      3  N   UNL     1      34.147 -10.530 -25.782  0.00  0.00    -0.354 NA
ATOM      4  C   UNL     1      33.351 -13.523 -23.961  0.00  0.00    +0.040 C 
ATOM      5  C   UNL     1      33.672 -12.241 -24.388  0.00  0.00    +0.175 C 
ATOM      6  C   UNL     1      33.833 -11.866 -25.714  0.00  0.00    +0.156 C 
ATOM      7  C   UNL     1      33.186 -14.474 -24.973  0.00  0.00    +0.036 C 
ATOM      8  C   UNL     1      34.163 -10.158 -24.521  0.00  0.00    +0.364 C 
ATOM      9  C   UNL     1      33.664 -12.832 -26.717  0.00  0.00    +0.126 C 
ATOM     10  C   UNL     1      33.340 -14.139 -26.324  0.00  0.00    +0.123 C 
ATOM     11  H   UNL     1      35.127  -8.250 -24.604  0.00  0.00    +0.179 HD
ENDROOT
BRANCH   4  12
ATOM     12  C   UNL     1      33.201 -13.835 -22.563  0.00  0.00    +0.004 C 
ATOM     13  C   UNL     1      34.034 -14.783 -21.961  0.00  0.00    +0.014 C 
ATOM     14  C   UNL     1      32.221 -13.194 -21.801  0.00  0.00    +0.000 C 
ATOM     15  C   UNL     1      33.889 -15.086 -20.607  0.00  0.00    +0.042 C 
ATOM     16  C   UNL     1      32.076 -13.497 -20.446  0.00  0.00    +0.001 C 
ATOM     17  C   UNL     1      32.910 -14.442 -19.849  0.00  0.00    +0.014 C 
BRANCH  15  18
ATOM     18  N   UNL     1      34.732 -16.041 -20.003  0.00  0.00    -0.357 N 
ATOM     19  H   UNL     1      34.700 -16.181 -19.030  0.00  0.00    +0.142 HD
ATOM     20  H   UNL     1      35.353 -16.569 -20.555  0.00  0.00    +0.142 HD
ENDBRANCH  15  18
ENDBRANCH   4  12
BRANCH   2  21
ATOM     21  S   UNL     1      33.604  -8.142 -22.790  0.00  0.00    +0.078 S 
ATOM     22  O   UNL     1      32.515  -9.046 -22.471  0.00  0.00    -0.150 OA
ATOM     23  O   UNL     1      34.524  -7.729 -21.748  0.00  0.00    -0.150 OA
BRANCH  21  26
ATOM     24 CL   UNL     1      31.570  -6.268 -21.113  0.00  0.00    -0.081 Cl
ATOM     25 CL   UNL     1      33.067  -4.795 -26.985  0.00  0.00    -0.082 Cl
ATOM     26  C   UNL     1      32.876  -6.682 -23.477  0.00  0.00    +0.137 C 
ATOM     27  C   UNL     1      32.008  -5.894 -22.740  0.00  0.00    +0.077 C 
ATOM     28  C   UNL     1      33.212  -6.358 -24.783  0.00  0.00    +0.032 C 
ATOM     29  C   UNL     1      32.662  -5.216 -25.366  0.00  0.00    +0.059 C 
ATOM     30  C   UNL     1      31.458  -4.752 -23.324  0.00  0.00    +0.014 C 
ATOM     31  C   UNL     1      31.785  -4.413 -24.637  0.00  0.00    +0.012 C 
ENDBRANCH  21  26
ENDBRANCH   2  21
BRANCH  10  32
ATOM     32  O   UNL     1      33.169 -15.099 -27.278  0.00  0.00    -0.475 OA
ATOM     33  C   UNL     1      32.448 -16.268 -26.897  0.00  0.00    +0.252 C 
ENDBRANCH  10  32
TORSDOF 5
ENDMDL
MODEL 6
REMARK VINA RESULT:      -9.5      1.076      2.007
REMARK  Name = 6102822
REMARK  5 active torsions:
REMARK  status: ('A' for Active; 'I' for Inactive)
REMARK    1  A    between atoms: N_2  and  S_21
REMARK    2  A    between atoms: C_4  and  C_12
REMARK    3  A    between atoms: C_10  and  O_32
REMARK    4  A    between atoms: C_15  and  N_18
REMARK    5  A    between atoms: S_21  and  C_26
REMARK                            x       y       z     vdW  Elec       q    Type
REMARK                         _______ _______ _______ _____ _____    ______ ____
ROOT
ATOM      1  O   UNL     1      34.325 -22.860 -16.222  0.00  0.00    -0.413 OA
ATOM      2  N   UNL     1      35.762 -21.761 -17.905  0.00  0.00    -0.158 N 
ATOM      3  N   UNL     1      36.564 -22.813 -15.869  0.00  0.00    -0.354 NA
ATOM      4  C   UNL     1      33.657 -24.078 -14.179  0.00  0.00    +0.040 C 
ATOM      5  C   UNL     1      34.578 -23.495 -15.039  0.00  0.00    +0.175 C 
ATOM      6  C   UNL     1      35.949 -23.464 -14.827  0.00  0.00    +0.156 C 
ATOM      7  C   UNL     1      34.191 -24.665 -13.028  0.00  0.00    +0.036 C 
ATOM      8  C   UNL     1      35.561 -22.482 -16.653  0.00  0.00    +0.364 C 
ATOM      9  C   UNL     1      36.468 -24.058 -13.667  0.00  0.00    +0.126 C 
ATOM     10  C   UNL     1      35.568 -24.657 -12.774  0.00  0.00    +0.123 C 
ATOM     11  H   UNL     1      36.451 -21.061 -17.982  0.00  0.00    +0.179 HD
ENDROOT
BRANCH   4  12
ATOM     12  C   UNL     1      32.246 -24.069 -14.469  0.00  0.00    +0.004 C 
ATOM     13  C   UNL     1      31.751 -23.311 -15.534  0.00  0.00    +0.014 C 
ATOM     14  C   UNL     1      31.362 -24.816 -13.685  0.00  0.00    +0.000 C 
ATOM     15  C   UNL     1      30.385 -23.303 -15.815  0.00  0.00    +0.042 C 
ATOM     16  C   UNL     1      29.995 -24.808 -13.966  0.00  0.00    +0.001 C 
ATOM     17  C   UNL     1      29.507 -24.051 -15.031  0.00  0.00    +0.014 C 
BRANCH  15  18
ATOM     18  N   UNL     1      29.891 -22.538 -16.892  0.00  0.00    -0.357 N 
ATOM     19  H   UNL     1      28.997 -22.723 -17.258  0.00  0.00    +0.142 HD
ATOM     20  H   UNL     1      30.440 -21.818 -17.278  0.00  0.00    +0.142 HD
ENDBRANCH  15  18
ENDBRANCH   4  12
BRANCH   2  21
ATOM     21  S   UNL     1      34.764 -22.167 -19.230  0.00  0.00    +0.078 S 
ATOM     22  O   UNL     1      35.501 -23.075 -20.088  0.00  0.00    -0.150 OA
ATOM     23  O   UNL     1      33.435 -22.527 -18.774  0.00  0.00    -0.150 OA
BRANCH  21  26
ATOM     24 CL   UNL     1      37.326 -20.732 -20.586  0.00  0.00    -0.081 Cl
ATOM     25 CL   UNL     1      31.689 -18.091 -20.967  0.00  0.00    -0.082 Cl
ATOM     26  C   UNL     1      34.640 -20.628 -20.096  0.00  0.00    +0.137 C 
ATOM     27  C   UNL     1      35.750 -20.031 -20.670  0.00  0.00    +0.077 C 
ATOM     28  C   UNL     1      33.384 -20.044 -20.179  0.00  0.00    +0.032 C 
ATOM     29  C   UNL     1      33.238 -18.831 -20.852  0.00  0.00    +0.059 C 
ATOM     30  C   UNL     1      35.604 -18.818 -21.343  0.00  0.00    +0.014 C 
ATOM     31  C   UNL     1      34.348 -18.218 -21.434  0.00  0.00    +0.012 C 
ENDBRANCH  21  26
ENDBRANCH   2  21
BRANCH  10  32
ATOM     32  O   UNL     1      36.046 -25.243 -11.638  0.00  0.00    -0.475 OA
ATOM     33  C   UNL     1      35.734 -24.607 -10.402  0.00  0.00    +0.252 C 
ENDBRANCH  10  32
TORSDOF 5
ENDMDL
MODEL 7
REMARK VINA RESULT:      -9.3      1.875      4.326
REMARK  Name = 6102822
REMARK  5 active torsions:
REMARK  status: ('A' for Active; 'I' for Inactive)
REMARK    1  A    between atoms: N_2  and  S_21
REMARK    2  A    between atoms: C_4  and  C_12
REMARK    3  A    between atoms: C_10  and  O_32
REMARK    4  A    between atoms: C_15  and  N_18
REMARK    5  A    between atoms: S_21  and  C_26
REMARK                            x       y       z     vdW  Elec       q    Type
REMARK                         _______ _______ _______ _____ _____    ______ ____
ROOT
ATOM      1  O   UNL     1      34.521 -23.362 -16.833  0.00  0.00    -0.413 OA
ATOM      2  N   UNL     1      34.456 -22.468 -19.135  0.00  0.00    -0.158 N 
ATOM      3  N   UNL     1      32.501 -22.970 -17.785  0.00  0.00    -0.354 NA
ATOM      4  C   UNL     1      33.738 -24.203 -14.645  0.00  0.00    +0.040 C 
ATOM      5  C   UNL     1      33.555 -23.702 -15.928  0.00  0.00    +0.175 C 
ATOM      6  C   UNL     1      32.321 -23.460 -16.515  0.00  0.00    +0.156 C 
ATOM      7  C   UNL     1      32.568 -24.467 -13.927  0.00  0.00    +0.036 C 
ATOM      8  C   UNL     1      33.810 -22.936 -17.914  0.00  0.00    +0.364 C 
ATOM      9  C   UNL     1      31.158 -23.731 -15.780  0.00  0.00    +0.126 C 
ATOM     10  C   UNL     1      31.302 -24.237 -14.480  0.00  0.00    +0.123 C 
ATOM     11  H   UNL     1      34.069 -22.661 -20.020  0.00  0.00    +0.179 HD
ENDROOT
BRANCH   4  12
ATOM     12  C   UNL     1      35.054 -24.429 -14.106  0.00  0.00    +0.004 C 
ATOM     13  C   UNL     1      35.491 -23.707 -12.991  0.00  0.00    +0.014 C 
ATOM     14  C   UNL     1      35.904 -25.369 -14.695  0.00  0.00    +0.000 C 
ATOM     15  C   UNL     1      36.765 -23.926 -12.468  0.00  0.00    +0.042 C 
ATOM     16  C   UNL     1      37.179 -25.589 -14.172  0.00  0.00    +0.001 C 
ATOM     17  C   UNL     1      37.609 -24.867 -13.058  0.00  0.00    +0.014 C 
BRANCH  15  18
ATOM     18  N   UNL     1      37.201 -23.198 -11.342  0.00  0.00    -0.357 N 
ATOM     19  H   UNL     1      36.876 -23.437 -10.445  0.00  0.00    +0.142 HD
ATOM     20  H   UNL     1      37.830 -22.449 -11.454  0.00  0.00    +0.142 HD
ENDBRANCH  15  18
ENDBRANCH   4  12
BRANCH   2  21
ATOM     21  S   UNL     1      35.905 -21.577 -18.981  0.00  0.00    +0.078 S 
ATOM     22  O   UNL     1      35.892 -20.913 -17.691  0.00  0.00    -0.150 OA
ATOM     23  O   UNL     1      37.045 -22.389 -19.361  0.00  0.00    -0.150 OA
BRANCH  21  26
ATOM     24 CL   UNL     1      32.997 -20.507 -19.910  0.00  0.00    -0.081 Cl
ATOM     25 CL   UNL     1      38.171 -18.128 -22.455  0.00  0.00    -0.082 Cl
ATOM     26  C   UNL     1      35.707 -20.317 -20.209  0.00  0.00    +0.137 C 
ATOM     27  C   UNL     1      34.452 -19.874 -20.592  0.00  0.00    +0.077 C 
ATOM     28  C   UNL     1      36.860 -19.790 -20.773  0.00  0.00    +0.032 C 
ATOM     29  C   UNL     1      36.752 -18.795 -21.744  0.00  0.00    +0.059 C 
ATOM     30  C   UNL     1      34.345 -18.879 -21.564  0.00  0.00    +0.014 C 
ATOM     31  C   UNL     1      35.495 -18.340 -22.141  0.00  0.00    +0.012 C 
ENDBRANCH  21  26
ENDBRANCH   2  21
BRANCH  10  32
ATOM     32  O   UNL     1      30.187 -24.508 -13.742  0.00  0.00    -0.475 OA
ATOM     33  C   UNL     1      29.048 -24.994 -14.447  0.00  0.00    +0.252 C 
ENDBRANCH  10  32
TORSDOF 5
ENDMDL
MODEL 8
REMARK VINA RESULT:      -9.2      9.301     14.033
REMARK  Name = 6102822
REMARK  5 active torsions:
REMARK  status: ('A' for Active; 'I' for Inactive)
REMARK    1  A    between atoms: N_2  and  S_21
REMARK    2  A    between atoms: C_4  and  C_12
REMARK    3  A    between atoms: C_10  and  O_32
REMARK    4  A    between atoms: C_15  and  N_18
REMARK    5  A    between atoms: S_21  and  C_26
REMARK                            x       y       z     vdW  Elec       q    Type
REMARK                         _______ _______ _______ _____ _____    ______ ____
ROOT
ATOM      1  O   UNL     1      33.278 -11.319 -23.276  0.00  0.00    -0.413 OA
ATOM      2  N   UNL     1      33.520 -13.561 -24.283  0.00  0.00    -0.158 N 
ATOM      3  N   UNL     1      34.364 -11.503 -25.257  0.00  0.00    -0.354 NA
ATOM      4  C   UNL     1      33.465  -8.873 -22.980  0.00  0.00    +0.040 C 
ATOM      5  C   UNL     1      33.673 -10.068 -23.657  0.00  0.00    +0.175 C 
ATOM      6  C   UNL     1      34.337 -10.185 -24.870  0.00  0.00    +0.156 C 
ATOM      7  C   UNL     1      33.979  -7.730 -23.600  0.00  0.00    +0.036 C 
ATOM      8  C   UNL     1      33.728 -12.117 -24.284  0.00  0.00    +0.364 C 
ATOM      9  C   UNL     1      34.846  -9.028 -25.478  0.00  0.00    +0.126 C 
ATOM     10  C   UNL     1      34.656  -7.802 -24.824  0.00  0.00    +0.123 C 
ATOM     11  H   UNL     1      33.337 -14.048 -25.120  0.00  0.00    +0.179 HD
ENDROOT
BRANCH   4  12
ATOM     12  C   UNL     1      32.764  -8.832 -21.723  0.00  0.00    +0.004 C 
ATOM     13  C   UNL     1      32.132  -9.978 -21.232  0.00  0.00    +0.014 C 
ATOM     14  C   UNL     1      32.710  -7.646 -20.986  0.00  0.00    +0.000 C 
ATOM     15  C   UNL     1      31.453  -9.939 -20.014  0.00  0.00    +0.042 C 
ATOM     16  C   UNL     1      32.031  -7.606 -19.768  0.00  0.00    +0.001 C 
ATOM     17  C   UNL     1      31.402  -8.753 -19.282  0.00  0.00    +0.014 C 
BRANCH  15  18
ATOM     18  N   UNL     1      30.818 -11.098 -19.522  0.00  0.00    -0.357 N 
ATOM     19  H   UNL     1      30.367 -11.079 -18.648  0.00  0.00    +0.142 HD
ATOM     20  H   UNL     1      30.826 -11.927 -20.054  0.00  0.00    +0.142 HD
ENDBRANCH  15  18
ENDBRANCH   4  12
BRANCH   2  21
ATOM     21  S   UNL     1      33.606 -14.381 -22.788  0.00  0.00    +0.078 S 
ATOM     22  O   UNL     1      34.598 -13.715 -21.964  0.00  0.00    -0.150 OA
ATOM     23  O   UNL     1      32.276 -14.617 -22.261  0.00  0.00    -0.150 OA
BRANCH  21  26
ATOM     24 CL   UNL     1      33.356 -15.557 -25.790  0.00  0.00    -0.081 Cl
ATOM     25 CL   UNL     1      36.328 -18.820 -21.384  0.00  0.00    -0.082 Cl
ATOM     26  C   UNL     1      34.289 -15.946 -23.251  0.00  0.00    +0.137 C 
ATOM     27  C   UNL     1      34.170 -16.431 -24.543  0.00  0.00    +0.077 C 
ATOM     28  C   UNL     1      34.949 -16.669 -22.268  0.00  0.00    +0.032 C 
ATOM     29  C   UNL     1      35.504 -17.908 -22.589  0.00  0.00    +0.059 C 
ATOM     30  C   UNL     1      34.725 -17.670 -24.863  0.00  0.00    +0.014 C 
ATOM     31  C   UNL     1      35.392 -18.409 -23.885  0.00  0.00    +0.012 C 
ENDBRANCH  21  26
ENDBRANCH   2  21
BRANCH  10  32
ATOM     32  O   UNL     1      35.141  -6.661 -25.392  0.00  0.00    -0.475 OA
ATOM     33  C   UNL     1      34.186  -5.743 -25.917  0.00  0.00    +0.252 C 
ENDBRANCH  10  32
TORSDOF 5
ENDMDL
MODEL 9
REMARK VINA RESULT:      -9.2     12.395     17.561
REMARK  Name = 6102822
REMARK  5 active torsions:
REMARK  status: ('A' for Active; 'I' for Inactive)
REMARK    1  A    between atoms: N_2  and  S_21
REMARK    2  A    between atoms: C_4  and  C_12
REMARK    3  A    between atoms: C_10  and  O_32
REMARK    4  A    between atoms: C_15  and  N_18
REMARK    5  A    between atoms: S_21  and  C_26
REMARK                            x       y       z     vdW  Elec       q    Type
REMARK                         _______ _______ _______ _____ _____    ______ ____
ROOT
ATOM      1  O   UNL     1      33.309  -7.993 -24.218  0.00  0.00    -0.413 OA
ATOM      2  N   UNL     1      33.644 -10.271 -23.323  0.00  0.00    -0.158 N 
ATOM      3  N   UNL     1      32.219  -8.580 -22.319  0.00  0.00    -0.354 NA
ATOM      4  C   UNL     1      32.471  -5.677 -24.421  0.00  0.00    +0.040 C 
ATOM      5  C   UNL     1      32.567  -6.921 -23.810  0.00  0.00    +0.175 C 
ATOM      6  C   UNL     1      31.901  -7.285 -22.648  0.00  0.00    +0.156 C 
ATOM      7  C   UNL     1      31.631  -4.755 -23.788  0.00  0.00    +0.036 C 
ATOM      8  C   UNL     1      33.048  -8.940 -23.275  0.00  0.00    +0.364 C 
ATOM      9  C   UNL     1      31.063  -6.348 -22.026  0.00  0.00    +0.126 C 
ATOM     10  C   UNL     1      30.940  -5.081 -22.614  0.00  0.00    +0.123 C 
ATOM     11  H   UNL     1      33.912 -10.737 -22.497  0.00  0.00    +0.179 HD
ENDROOT
BRANCH   4  12
ATOM     12  C   UNL     1      33.195  -5.374 -25.628  0.00  0.00    +0.004 C 
ATOM     13  C   UNL     1      32.559  -4.716 -26.685  0.00  0.00    +0.014 C 
ATOM     14  C   UNL     1      34.540  -5.736 -25.752  0.00  0.00    +0.000 C 
ATOM     15  C   UNL     1      33.261  -4.422 -27.854  0.00  0.00    +0.042 C 
ATOM     16  C   UNL     1      35.242  -5.443 -26.921  0.00  0.00    +0.001 C 
ATOM     17  C   UNL     1      34.602  -4.785 -27.972  0.00  0.00    +0.014 C 
BRANCH  15  18
ATOM     18  N   UNL     1      32.615  -3.757 -28.917  0.00  0.00    -0.357 N 
ATOM     19  H   UNL     1      31.646  -3.865 -29.048  0.00  0.00    +0.142 HD
ATOM     20  H   UNL     1      33.133  -3.185 -29.528  0.00  0.00    +0.142 HD
ENDBRANCH  15  18
ENDBRANCH   4  12
BRANCH   2  21
ATOM     21  S   UNL     1      33.863 -10.994 -24.854  0.00  0.00    +0.078 S 
ATOM     22  O   UNL     1      32.707 -10.679 -25.671  0.00  0.00    -0.150 OA
ATOM     23  O   UNL     1      35.195 -10.723 -25.359  0.00  0.00    -0.150 OA
BRANCH  21  26
ATOM     24 CL   UNL     1      33.178 -13.224 -27.094  0.00  0.00    -0.081 Cl
ATOM     25 CL   UNL     1      34.234 -14.935 -21.191  0.00  0.00    -0.082 Cl
ATOM     26  C   UNL     1      33.770 -12.720 -24.475  0.00  0.00    +0.137 C 
ATOM     27  C   UNL     1      33.475 -13.658 -25.450  0.00  0.00    +0.077 C 
ATOM     28  C   UNL     1      34.005 -13.097 -23.160  0.00  0.00    +0.032 C 
ATOM     29  C   UNL     1      33.943 -14.447 -22.816  0.00  0.00    +0.059 C 
ATOM     30  C   UNL     1      33.413 -15.008 -25.104  0.00  0.00    +0.014 C 
ATOM     31  C   UNL     1      33.647 -15.403 -23.787  0.00  0.00    +0.012 C 
ENDBRANCH  21  26
ENDBRANCH   2  21
BRANCH  10  32
ATOM     32  O   UNL     1      30.131  -4.150 -22.031  0.00  0.00    -0.475 OA
ATOM     33  C   UNL     1      30.250  -2.808 -22.496  0.00  0.00    +0.252 C 
ENDBRANCH  10  32
TORSDOF 5
ENDMDL
