MODEL 1
REMARK VINA RESULT:      -9.5      0.000      0.000
REMARK  Name = 25195495
REMARK  5 active torsions:
REMARK  status: ('A' for Active; 'I' for Inactive)
REMARK    1  A    between atoms: C_3  and  C_22
REMARK    2  A    between atoms: C_8  and  C_11
REMARK    3  A    between atoms: C_12  and  C_16
REMARK    4  A    between atoms: C_22  and  N_24
REMARK    5  A    between atoms: C_25  and  C_28
REMARK                            x       y       z     vdW  Elec       q    Type
REMARK                         _______ _______ _______ _____ _____    ______ ____
ROOT
ATOM      1  O   UNL     1      30.414  -7.024 -25.139  0.00  0.00    -0.267 OA
ATOM      2  N   UNL     1      32.438  -7.297 -23.991  0.00  0.00    -0.274 N 
ATOM      3  C   UNL     1      32.377  -8.770 -24.050  0.00  0.00    +0.095 C 
ATOM      4  C   UNL     1      33.732  -9.377 -24.437  0.00  0.00    +0.022 C 
ATOM      5  C   UNL     1      34.883  -8.831 -23.598  0.00  0.00    +0.004 C 
ATOM      6  C   UNL     1      34.904  -7.309 -23.662  0.00  0.00    +0.022 C 
ATOM      7  C   UNL     1      33.565  -6.712 -23.245  0.00  0.00    +0.094 C 
ATOM      8  C   UNL     1      31.366  -6.560 -24.514  0.00  0.00    +0.276 C 
ENDROOT
BRANCH   8  11
ATOM      9  S   UNL     1      31.717  -2.608 -24.511  0.00  0.00    -0.076 S 
ATOM     10  N   UNL     1      30.667  -4.585 -23.217  0.00  0.00    -0.399 NA
ATOM     11  C   UNL     1      31.349  -5.108 -24.298  0.00  0.00    +0.176 C 
ATOM     12  C   UNL     1      31.980  -4.192 -25.114  0.00  0.00    +0.133 C 
ATOM     13  C   UNL     1      30.792  -3.276 -23.230  0.00  0.00    +0.135 C 
ATOM     14  C   UNL     1      30.195  -2.369 -22.225  0.00  0.00    +0.074 C 
BRANCH  12  16
ATOM     15  F   UNL     1      35.029  -4.892 -29.725  0.00  0.00    -0.204 F 
ATOM     16  C   UNL     1      32.769  -4.374 -26.308  0.00  0.00    -0.005 C 
ATOM     17  C   UNL     1      32.246  -4.019 -27.551  0.00  0.00    -0.001 C 
ATOM     18  C   UNL     1      34.057  -4.904 -26.219  0.00  0.00    -0.001 C 
ATOM     19  C   UNL     1      33.009  -4.194 -28.705  0.00  0.00    +0.029 C 
ATOM     20  C   UNL     1      34.820  -5.080 -27.373  0.00  0.00    +0.029 C 
ATOM     21  C   UNL     1      34.296  -4.724 -28.616  0.00  0.00    +0.140 C 
ENDBRANCH  12  16
ENDBRANCH   8  11
BRANCH   3  22
ATOM     22  C   UNL     1      31.835  -9.343 -22.737  0.00  0.00    +0.109 C 
BRANCH  22  24
ATOM     23  O   UNL     1      30.436 -11.443 -21.367  0.00  0.00    -0.270 OA
ATOM     24  N   UNL     1      32.289 -10.684 -22.541  0.00  0.00    -0.299 N 
ATOM     25  C   UNL     1      31.543 -11.645 -21.860  0.00  0.00    +0.246 C 
ATOM     26  H   UNL     1      33.167 -10.941 -22.902  0.00  0.00    +0.150 HD
BRANCH  25  28
ATOM     27  O   UNL     1      33.620 -15.465 -23.835  0.00  0.00    -0.450 OA
ATOM     28  C   UNL     1      32.167 -12.986 -21.717  0.00  0.00    +0.056 C 
ATOM     29  C   UNL     1      32.644 -13.688 -22.838  0.00  0.00    +0.042 C 
ATOM     30  C   UNL     1      32.289 -13.576 -20.452  0.00  0.00    +0.005 C 
ATOM     31  C   UNL     1      33.218 -14.940 -22.643  0.00  0.00    +0.146 C 
ATOM     32  C   UNL     1      32.706 -13.448 -24.236  0.00  0.00    +0.044 C 
ATOM     33  C   UNL     1      32.873 -14.836 -20.298  0.00  0.00    +0.003 C 
ATOM     34  C   UNL     1      33.354 -15.552 -21.398  0.00  0.00    +0.037 C 
ATOM     35  C   UNL     1      33.306 -14.555 -24.793  0.00  0.00    +0.180 C 
ENDBRANCH  25  28
ENDBRANCH  22  24
ENDBRANCH   3  22
TORSDOF 5
ENDMDL
MODEL 2
REMARK VINA RESULT:      -8.4      3.667      6.087
REMARK  Name = 25195495
REMARK  5 active torsions:
REMARK  status: ('A' for Active; 'I' for Inactive)
REMARK    1  A    between atoms: C_3  and  C_22
REMARK    2  A    between atoms: C_8  and  C_11
REMARK    3  A    between atoms: C_12  and  C_16
REMARK    4  A    between atoms: C_22  and  N_24
REMARK    5  A    between atoms: C_25  and  C_28
REMARK                            x       y       z     vdW  Elec       q    Type
REMARK                         _______ _______ _______ _____ _____    ______ ____
ROOT
ATOM      1  O   UNL     1      31.119 -10.300 -23.703  0.00  0.00    -0.267 OA
ATOM      2  N   UNL     1      33.388 -10.018 -24.215  0.00  0.00    -0.274 N 
ATOM      3  C   UNL     1      33.557 -11.420 -24.644  0.00  0.00    +0.095 C 
ATOM      4  C   UNL     1      34.361 -11.518 -25.948  0.00  0.00    +0.022 C 
ATOM      5  C   UNL     1      35.657 -10.716 -25.901  0.00  0.00    +0.004 C 
ATOM      6  C   UNL     1      35.367  -9.269 -25.523  0.00  0.00    +0.022 C 
ATOM      7  C   UNL     1      34.597  -9.178 -24.210  0.00  0.00    +0.094 C 
ATOM      8  C   UNL     1      32.142  -9.618 -23.711  0.00  0.00    +0.276 C 
ENDROOT
BRANCH   8  11
ATOM      9  S   UNL     1      31.771  -6.332 -21.517  0.00  0.00    -0.076 S 
ATOM     10  N   UNL     1      32.089  -7.165 -23.944  0.00  0.00    -0.399 NA
ATOM     11  C   UNL     1      32.028  -8.276 -23.126  0.00  0.00    +0.176 C 
ATOM     12  C   UNL     1      31.860  -8.025 -21.780  0.00  0.00    +0.133 C 
ATOM     13  C   UNL     1      31.966  -6.086 -23.204  0.00  0.00    +0.135 C 
ATOM     14  C   UNL     1      31.983  -4.703 -23.731  0.00  0.00    +0.074 C 
BRANCH  12  16
ATOM     15  F   UNL     1      31.452 -11.491 -17.436  0.00  0.00    -0.204 F 
ATOM     16  C   UNL     1      31.755  -8.923 -20.655  0.00  0.00    -0.005 C 
ATOM     17  C   UNL     1      32.159  -8.504 -19.388  0.00  0.00    -0.001 C 
ATOM     18  C   UNL     1      31.248 -10.210 -20.835  0.00  0.00    -0.001 C 
ATOM     19  C   UNL     1      32.057  -9.371 -18.301  0.00  0.00    +0.029 C 
ATOM     20  C   UNL     1      31.146 -11.078 -19.748  0.00  0.00    +0.029 C 
ATOM     21  C   UNL     1      31.550 -10.658 -18.481  0.00  0.00    +0.140 C 
ENDBRANCH  12  16
ENDBRANCH   8  11
BRANCH   3  22
ATOM     22  C   UNL     1      34.166 -12.261 -23.518  0.00  0.00    +0.109 C 
BRANCH  22  24
ATOM     23  O   UNL     1      34.611 -14.486 -21.758  0.00  0.00    -0.270 OA
ATOM     24  N   UNL     1      34.215 -13.642 -23.884  0.00  0.00    -0.299 N 
ATOM     25  C   UNL     1      34.437 -14.664 -22.961  0.00  0.00    +0.246 C 
ATOM     26  H   UNL     1      34.086 -13.883 -24.829  0.00  0.00    +0.150 HD
BRANCH  25  28
ATOM     27  O   UNL     1      35.160 -19.338 -22.300  0.00  0.00    -0.450 OA
ATOM     28  C   UNL     1      34.486 -16.045 -23.505  0.00  0.00    +0.056 C 
ATOM     29  C   UNL     1      34.805 -17.139 -22.680  0.00  0.00    +0.042 C 
ATOM     30  C   UNL     1      34.215 -16.280 -24.859  0.00  0.00    +0.005 C 
ATOM     31  C   UNL     1      34.836 -18.410 -23.245  0.00  0.00    +0.146 C 
ATOM     32  C   UNL     1      35.131 -17.317 -21.310  0.00  0.00    +0.044 C 
ATOM     33  C   UNL     1      34.256 -17.574 -25.388  0.00  0.00    +0.003 C 
ATOM     34  C   UNL     1      34.570 -18.675 -24.587  0.00  0.00    +0.037 C 
ATOM     35  C   UNL     1      35.337 -18.666 -21.133  0.00  0.00    +0.180 C 
ENDBRANCH  25  28
ENDBRANCH  22  24
ENDBRANCH   3  22
TORSDOF 5
ENDMDL
MODEL 3
REMARK VINA RESULT:      -8.3      4.564      7.105
REMARK  Name = 25195495
REMARK  5 active torsions:
REMARK  status: ('A' for Active; 'I' for Inactive)
REMARK    1  A    between atoms: C_3  and  C_22
REMARK    2  A    between atoms: C_8  and  C_11
REMARK    3  A    between atoms: C_12  and  C_16
REMARK    4  A    between atoms: C_22  and  N_24
REMARK    5  A    between atoms: C_25  and  C_28
REMARK                            x       y       z     vdW  Elec       q    Type
REMARK                         _______ _______ _______ _____ _____    ______ ____
ROOT
ATOM      1  O   UNL     1      34.872 -13.702 -22.540  0.00  0.00    -0.267 OA
ATOM      2  N   UNL     1      32.684 -13.024 -22.048  0.00  0.00    -0.274 N 
ATOM      3  C   UNL     1      32.853 -13.223 -20.595  0.00  0.00    +0.095 C 
ATOM      4  C   UNL     1      32.271 -12.051 -19.794  0.00  0.00    +0.022 C 
ATOM      5  C   UNL     1      30.849 -11.699 -20.216  0.00  0.00    +0.004 C 
ATOM      6  C   UNL     1      30.795 -11.440 -21.716  0.00  0.00    +0.022 C 
ATOM      7  C   UNL     1      31.345 -12.621 -22.509  0.00  0.00    +0.094 C 
ATOM      8  C   UNL     1      33.747 -13.363 -22.899  0.00  0.00    +0.276 C 
ENDROOT
BRANCH   8  11
ATOM      9  S   UNL     1      33.281 -12.587 -26.763  0.00  0.00    -0.076 S 
ATOM     10  N   UNL     1      33.142 -14.482 -25.009  0.00  0.00    -0.399 NA
ATOM     11  C   UNL     1      33.514 -13.328 -24.348  0.00  0.00    +0.176 C 
ATOM     12  C   UNL     1      33.641 -12.200 -25.131  0.00  0.00    +0.133 C 
ATOM     13  C   UNL     1      32.992 -14.210 -26.287  0.00  0.00    +0.135 C 
ATOM     14  C   UNL     1      32.597 -15.201 -27.313  0.00  0.00    +0.074 C 
BRANCH  12  16
ATOM     15  F   UNL     1      35.050  -6.974 -23.804  0.00  0.00    -0.204 F 
ATOM     16  C   UNL     1      34.006 -10.846 -24.788  0.00  0.00    -0.005 C 
ATOM     17  C   UNL     1      33.204 -10.107 -23.918  0.00  0.00    -0.001 C 
ATOM     18  C   UNL     1      35.161 -10.277 -25.325  0.00  0.00    -0.001 C 
ATOM     19  C   UNL     1      33.557  -8.799 -23.587  0.00  0.00    +0.029 C 
ATOM     20  C   UNL     1      35.513  -8.970 -24.994  0.00  0.00    +0.029 C 
ATOM     21  C   UNL     1      34.711  -8.231 -24.123  0.00  0.00    +0.140 C 
ENDBRANCH  12  16
ENDBRANCH   8  11
BRANCH   3  22
ATOM     22  C   UNL     1      32.273 -14.572 -20.163  0.00  0.00    +0.109 C 
BRANCH  22  24
ATOM     23  O   UNL     1      34.845 -15.839 -20.001  0.00  0.00    -0.270 OA
ATOM     24  N   UNL     1      32.759 -15.627 -20.997  0.00  0.00    -0.299 N 
ATOM     25  C   UNL     1      34.027 -16.187 -20.850  0.00  0.00    +0.246 C 
ATOM     26  H   UNL     1      32.173 -15.972 -21.708  0.00  0.00    +0.150 HD
BRANCH  25  28
ATOM     27  O   UNL     1      34.788 -20.804 -21.804  0.00  0.00    -0.450 OA
ATOM     28  C   UNL     1      34.393 -17.256 -21.814  0.00  0.00    +0.056 C 
ATOM     29  C   UNL     1      34.443 -18.605 -21.418  0.00  0.00    +0.042 C 
ATOM     30  C   UNL     1      34.696 -16.933 -23.143  0.00  0.00    +0.005 C 
ATOM     31  C   UNL     1      34.792 -19.562 -22.366  0.00  0.00    +0.146 C 
ATOM     32  C   UNL     1      34.216 -19.319 -20.213  0.00  0.00    +0.044 C 
ATOM     33  C   UNL     1      35.042 -17.925 -24.065  0.00  0.00    +0.003 C 
ATOM     34  C   UNL     1      35.099 -19.272 -23.694  0.00  0.00    +0.037 C 
ATOM     35  C   UNL     1      34.438 -20.646 -20.501  0.00  0.00    +0.180 C 
ENDBRANCH  25  28
ENDBRANCH  22  24
ENDBRANCH   3  22
TORSDOF 5
ENDMDL
MODEL 4
REMARK VINA RESULT:      -8.3      1.443      1.787
REMARK  Name = 25195495
REMARK  5 active torsions:
REMARK  status: ('A' for Active; 'I' for Inactive)
REMARK    1  A    between atoms: C_3  and  C_22
REMARK    2  A    between atoms: C_8  and  C_11
REMARK    3  A    between atoms: C_12  and  C_16
REMARK    4  A    between atoms: C_22  and  N_24
REMARK    5  A    between atoms: C_25  and  C_28
REMARK                            x       y       z     vdW  Elec       q    Type
REMARK                         _______ _______ _______ _____ _____    ______ ____
ROOT
ATOM      1  O   UNL     1      30.527  -8.204 -24.793  0.00  0.00    -0.267 OA
ATOM      2  N   UNL     1      32.672  -8.400 -23.870  0.00  0.00    -0.274 N 
ATOM      3  C   UNL     1      32.822  -9.807 -24.289  0.00  0.00    +0.095 C 
ATOM      4  C   UNL     1      34.207 -10.070 -24.894  0.00  0.00    +0.022 C 
ATOM      5  C   UNL     1      35.341  -9.555 -24.014  0.00  0.00    +0.004 C 
ATOM      6  C   UNL     1      35.133  -8.079 -23.699  0.00  0.00    +0.022 C 
ATOM      7  C   UNL     1      33.767  -7.828 -23.069  0.00  0.00    +0.094 C 
ATOM      8  C   UNL     1      31.457  -7.749 -24.129  0.00  0.00    +0.276 C 
ENDROOT
BRANCH   8  11
ATOM      9  S   UNL     1      31.243  -3.909 -23.153  0.00  0.00    -0.076 S 
ATOM     10  N   UNL     1      30.569  -6.277 -22.364  0.00  0.00    -0.399 NA
ATOM     11  C   UNL     1      31.248  -6.412 -23.558  0.00  0.00    +0.176 C 
ATOM     12  C   UNL     1      31.690  -5.241 -24.137  0.00  0.00    +0.133 C 
ATOM     13  C   UNL     1      30.506  -5.001 -22.054  0.00  0.00    +0.135 C 
ATOM     14  C   UNL     1      29.851  -4.466 -20.839  0.00  0.00    +0.074 C 
BRANCH  12  16
ATOM     15  F   UNL     1      34.509  -4.330 -28.856  0.00  0.00    -0.204 F 
ATOM     16  C   UNL     1      32.420  -5.006 -25.360  0.00  0.00    -0.005 C 
ATOM     17  C   UNL     1      31.867  -4.205 -26.359  0.00  0.00    -0.001 C 
ATOM     18  C   UNL     1      33.679  -5.578 -25.542  0.00  0.00    -0.001 C 
ATOM     19  C   UNL     1      32.572  -3.977 -27.540  0.00  0.00    +0.029 C 
ATOM     20  C   UNL     1      34.384  -5.350 -26.723  0.00  0.00    +0.029 C 
ATOM     21  C   UNL     1      33.831  -4.549 -27.722  0.00  0.00    +0.140 C 
ENDBRANCH  12  16
ENDBRANCH   8  11
BRANCH   3  22
ATOM     22  C   UNL     1      32.501 -10.755 -23.130  0.00  0.00    +0.109 C 
BRANCH  22  24
ATOM     23  O   UNL     1      31.998 -13.144 -21.619  0.00  0.00    -0.270 OA
ATOM     24  N   UNL     1      33.086 -12.041 -23.347  0.00  0.00    -0.299 N 
ATOM     25  C   UNL     1      32.785 -13.153 -22.563  0.00  0.00    +0.246 C 
ATOM     26  H   UNL     1      33.730 -12.146 -24.084  0.00  0.00    +0.150 HD
BRANCH  25  28
ATOM     27  O   UNL     1      34.022 -16.465 -25.773  0.00  0.00    -0.450 OA
ATOM     28  C   UNL     1      33.498 -14.412 -22.900  0.00  0.00    +0.056 C 
ATOM     29  C   UNL     1      33.473 -14.933 -24.206  0.00  0.00    +0.042 C 
ATOM     30  C   UNL     1      34.213 -15.104 -21.913  0.00  0.00    +0.005 C 
ATOM     31  C   UNL     1      34.159 -16.116 -24.462  0.00  0.00    +0.146 C 
ATOM     32  C   UNL     1      32.887 -14.551 -25.441  0.00  0.00    +0.044 C 
ATOM     33  C   UNL     1      34.891 -16.289 -22.212  0.00  0.00    +0.003 C 
ATOM     34  C   UNL     1      34.879 -16.826 -23.503  0.00  0.00    +0.037 C 
ATOM     35  C   UNL     1      33.251 -15.512 -26.356  0.00  0.00    +0.180 C 
ENDBRANCH  25  28
ENDBRANCH  22  24
ENDBRANCH   3  22
TORSDOF 5
ENDMDL
MODEL 5
REMARK VINA RESULT:      -7.8      3.077      8.595
REMARK  Name = 25195495
REMARK  5 active torsions:
REMARK  status: ('A' for Active; 'I' for Inactive)
REMARK    1  A    between atoms: C_3  and  C_22
REMARK    2  A    between atoms: C_8  and  C_11
REMARK    3  A    between atoms: C_12  and  C_16
REMARK    4  A    between atoms: C_22  and  N_24
REMARK    5  A    between atoms: C_25  and  C_28
REMARK                            x       y       z     vdW  Elec       q    Type
REMARK                         _______ _______ _______ _____ _____    ______ ____
ROOT
ATOM      1  O   UNL     1      31.069  -9.589 -24.011  0.00  0.00    -0.267 OA
ATOM      2  N   UNL     1      32.155  -8.566 -22.205  0.00  0.00    -0.274 N 
ATOM      3  C   UNL     1      31.864  -7.201 -22.686  0.00  0.00    +0.095 C 
ATOM      4  C   UNL     1      31.383  -6.292 -21.548  0.00  0.00    +0.022 C 
ATOM      5  C   UNL     1      32.296  -6.344 -20.327  0.00  0.00    +0.004 C 
ATOM      6  C   UNL     1      32.473  -7.784 -19.864  0.00  0.00    +0.022 C 
ATOM      7  C   UNL     1      32.983  -8.676 -20.991  0.00  0.00    +0.094 C 
ATOM      8  C   UNL     1      31.758  -9.654 -22.995  0.00  0.00    +0.276 C 
ENDROOT
BRANCH   8  11
ATOM      9  S   UNL     1      33.369 -13.247 -22.497  0.00  0.00    -0.076 S 
ATOM     10  N   UNL     1      31.667 -11.591 -21.473  0.00  0.00    -0.399 NA
ATOM     11  C   UNL     1      32.201 -10.997 -22.600  0.00  0.00    +0.176 C 
ATOM     12  C   UNL     1      33.139 -11.741 -23.286  0.00  0.00    +0.133 C 
ATOM     13  C   UNL     1      32.210 -12.778 -21.321  0.00  0.00    +0.135 C 
ATOM     14  C   UNL     1      31.886 -13.712 -20.220  0.00  0.00    +0.074 C 
BRANCH  12  16
ATOM     15  F   UNL     1      36.039 -10.600 -27.905  0.00  0.00    -0.204 F 
ATOM     16  C   UNL     1      33.891 -11.446 -24.482  0.00  0.00    -0.005 C 
ATOM     17  C   UNL     1      33.741 -12.246 -25.614  0.00  0.00    -0.001 C 
ATOM     18  C   UNL     1      34.766 -10.359 -24.506  0.00  0.00    -0.001 C 
ATOM     19  C   UNL     1      34.467 -11.960 -26.770  0.00  0.00    +0.029 C 
ATOM     20  C   UNL     1      35.491 -10.074 -25.661  0.00  0.00    +0.029 C 
ATOM     21  C   UNL     1      35.342 -10.874 -26.794  0.00  0.00    +0.140 C 
ENDBRANCH  12  16
ENDBRANCH   8  11
BRANCH   3  22
ATOM     22  C   UNL     1      33.071  -6.620 -23.428  0.00  0.00    +0.109 C 
BRANCH  22  24
ATOM     23  O   UNL     1      34.585  -5.971 -25.780  0.00  0.00    -0.270 OA
ATOM     24  N   UNL     1      32.650  -5.787 -24.510  0.00  0.00    -0.299 N 
ATOM     25  C   UNL     1      33.452  -5.523 -25.620  0.00  0.00    +0.246 C 
ATOM     26  H   UNL     1      31.754  -5.382 -24.471  0.00  0.00    +0.150 HD
BRANCH  25  28
ATOM     27  O   UNL     1      30.705  -1.786 -26.759  0.00  0.00    -0.450 OA
ATOM     28  C   UNL     1      32.879  -4.615 -26.647  0.00  0.00    +0.056 C 
ATOM     29  C   UNL     1      32.019  -3.562 -26.287  0.00  0.00    +0.042 C 
ATOM     30  C   UNL     1      33.191  -4.797 -28.002  0.00  0.00    +0.005 C 
ATOM     31  C   UNL     1      31.514  -2.745 -27.293  0.00  0.00    +0.146 C 
ATOM     32  C   UNL     1      31.478  -3.061 -25.074  0.00  0.00    +0.044 C 
ATOM     33  C   UNL     1      32.662  -3.953 -28.982  0.00  0.00    +0.003 C 
ATOM     34  C   UNL     1      31.805  -2.900 -28.648  0.00  0.00    +0.037 C 
ATOM     35  C   UNL     1      30.690  -1.986 -25.416  0.00  0.00    +0.180 C 
ENDBRANCH  25  28
ENDBRANCH  22  24
ENDBRANCH   3  22
TORSDOF 5
ENDMDL
MODEL 6
REMARK VINA RESULT:      -7.7      1.585      1.933
REMARK  Name = 25195495
REMARK  5 active torsions:
REMARK  status: ('A' for Active; 'I' for Inactive)
REMARK    1  A    between atoms: C_3  and  C_22
REMARK    2  A    between atoms: C_8  and  C_11
REMARK    3  A    between atoms: C_12  and  C_16
REMARK    4  A    between atoms: C_22  and  N_24
REMARK    5  A    between atoms: C_25  and  C_28
REMARK                            x       y       z     vdW  Elec       q    Type
REMARK                         _______ _______ _______ _____ _____    ______ ____
ROOT
ATOM      1  O   UNL     1      32.985  -5.945 -25.143  0.00  0.00    -0.267 OA
ATOM      2  N   UNL     1      32.156  -6.366 -22.993  0.00  0.00    -0.274 N 
ATOM      3  C   UNL     1      32.586  -7.777 -23.005  0.00  0.00    +0.095 C 
ATOM      4  C   UNL     1      33.252  -8.176 -21.681  0.00  0.00    +0.022 C 
ATOM      5  C   UNL     1      32.420  -7.785 -20.464  0.00  0.00    +0.004 C 
ATOM      6  C   UNL     1      32.092  -6.298 -20.507  0.00  0.00    +0.022 C 
ATOM      7  C   UNL     1      31.402  -5.915 -21.811  0.00  0.00    +0.094 C 
ATOM      8  C   UNL     1      32.361  -5.593 -24.145  0.00  0.00    +0.276 C 
ENDROOT
BRANCH   8  11
ATOM      9  S   UNL     1      31.113  -1.899 -24.887  0.00  0.00    -0.076 S 
ATOM     10  N   UNL     1      30.983  -3.808 -23.149  0.00  0.00    -0.399 NA
ATOM     11  C   UNL     1      31.777  -4.246 -24.191  0.00  0.00    +0.176 C 
ATOM     12  C   UNL     1      31.962  -3.352 -25.224  0.00  0.00    +0.133 C 
ATOM     13  C   UNL     1      30.577  -2.585 -23.409  0.00  0.00    +0.135 C 
ATOM     14  C   UNL     1      29.707  -1.786 -22.519  0.00  0.00    +0.074 C 
BRANCH  12  16
ATOM     15  F   UNL     1      34.868  -3.790 -29.958  0.00  0.00    -0.204 F 
ATOM     16  C   UNL     1      32.714  -3.465 -26.451  0.00  0.00    -0.005 C 
ATOM     17  C   UNL     1      33.923  -2.784 -26.592  0.00  0.00    -0.001 C 
ATOM     18  C   UNL     1      32.233  -4.256 -27.494  0.00  0.00    -0.001 C 
ATOM     19  C   UNL     1      34.650  -2.894 -27.777  0.00  0.00    +0.029 C 
ATOM     20  C   UNL     1      32.960  -4.365 -28.679  0.00  0.00    +0.029 C 
ATOM     21  C   UNL     1      34.169  -3.685 -28.820  0.00  0.00    +0.140 C 
ENDBRANCH  12  16
ENDBRANCH   8  11
BRANCH   3  22
ATOM     22  C   UNL     1      31.417  -8.696 -23.371  0.00  0.00    +0.109 C 
BRANCH  22  24
ATOM     23  O   UNL     1      33.247 -10.719 -24.268  0.00  0.00    -0.270 OA
ATOM     24  N   UNL     1      31.596  -9.997 -22.805  0.00  0.00    -0.299 N 
ATOM     25  C   UNL     1      32.511 -10.922 -23.305  0.00  0.00    +0.246 C 
ATOM     26  H   UNL     1      31.049 -10.250 -22.028  0.00  0.00    +0.150 HD
BRANCH  25  28
ATOM     27  O   UNL     1      33.392 -15.614 -23.439  0.00  0.00    -0.450 OA
ATOM     28  C   UNL     1      32.558 -12.240 -22.622  0.00  0.00    +0.056 C 
ATOM     29  C   UNL     1      32.958 -13.400 -23.309  0.00  0.00    +0.042 C 
ATOM     30  C   UNL     1      32.200 -12.348 -21.272  0.00  0.00    +0.005 C 
ATOM     31  C   UNL     1      32.981 -14.607 -22.617  0.00  0.00    +0.146 C 
ATOM     32  C   UNL     1      33.381 -13.704 -24.630  0.00  0.00    +0.044 C 
ATOM     33  C   UNL     1      32.237 -13.580 -20.612  0.00  0.00    +0.003 C 
ATOM     34  C   UNL     1      32.631 -14.746 -21.275  0.00  0.00    +0.037 C 
ATOM     35  C   UNL     1      33.631 -15.057 -24.655  0.00  0.00    +0.180 C 
ENDBRANCH  25  28
ENDBRANCH  22  24
ENDBRANCH   3  22
TORSDOF 5
ENDMDL
MODEL 7
REMARK VINA RESULT:      -7.7      9.596     15.655
REMARK  Name = 25195495
REMARK  5 active torsions:
REMARK  status: ('A' for Active; 'I' for Inactive)
REMARK    1  A    between atoms: C_3  and  C_22
REMARK    2  A    between atoms: C_8  and  C_11
REMARK    3  A    between atoms: C_12  and  C_16
REMARK    4  A    between atoms: C_22  and  N_24
REMARK    5  A    between atoms: C_25  and  C_28
REMARK                            x       y       z     vdW  Elec       q    Type
REMARK                         _______ _______ _______ _____ _____    ______ ____
ROOT
ATOM      1  O   UNL     1      35.641 -22.904 -18.853  0.00  0.00    -0.267 OA
ATOM      2  N   UNL     1      34.239 -21.230 -19.704  0.00  0.00    -0.274 N 
ATOM      3  C   UNL     1      35.250 -20.746 -20.664  0.00  0.00    +0.095 C 
ATOM      4  C   UNL     1      34.638 -20.491 -22.048  0.00  0.00    +0.022 C 
ATOM      5  C   UNL     1      33.376 -19.637 -21.984  0.00  0.00    +0.004 C 
ATOM      6  C   UNL     1      32.368 -20.260 -21.026  0.00  0.00    +0.022 C 
ATOM      7  C   UNL     1      32.973 -20.481 -19.644  0.00  0.00    +0.094 C 
ATOM      8  C   UNL     1      34.592 -22.263 -18.824  0.00  0.00    +0.276 C 
ENDROOT
BRANCH   8  11
ATOM      9  S   UNL     1      32.609 -23.428 -15.589  0.00  0.00    -0.076 S 
ATOM     10  N   UNL     1      32.292 -22.428 -17.952  0.00  0.00    -0.399 NA
ATOM     11  C   UNL     1      33.646 -22.622 -17.759  0.00  0.00    +0.176 C 
ATOM     12  C   UNL     1      34.010 -23.153 -16.540  0.00  0.00    +0.133 C 
ATOM     13  C   UNL     1      31.649 -22.817 -16.874  0.00  0.00    +0.135 C 
ATOM     14  C   UNL     1      30.180 -22.760 -16.709  0.00  0.00    +0.074 C 
BRANCH  12  16
ATOM     15  F   UNL     1      39.019 -24.431 -14.459  0.00  0.00    -0.204 F 
ATOM     16  C   UNL     1      35.308 -23.485 -16.002  0.00  0.00    -0.005 C 
ATOM     17  C   UNL     1      36.324 -22.529 -15.993  0.00  0.00    -0.001 C 
ATOM     18  C   UNL     1      35.545 -24.760 -15.488  0.00  0.00    -0.001 C 
ATOM     19  C   UNL     1      37.577 -22.850 -15.473  0.00  0.00    +0.029 C 
ATOM     20  C   UNL     1      36.798 -25.080 -14.967  0.00  0.00    +0.029 C 
ATOM     21  C   UNL     1      37.815 -24.124 -14.959  0.00  0.00    +0.140 C 
ENDBRANCH  12  16
ENDBRANCH   8  11
BRANCH   3  22
ATOM     22  C   UNL     1      35.977 -19.517 -20.111  0.00  0.00    +0.109 C 
BRANCH  22  24
ATOM     23  O   UNL     1      36.627 -17.931 -22.415  0.00  0.00    -0.270 OA
ATOM     24  N   UNL     1      35.329 -18.312 -20.528  0.00  0.00    -0.299 N 
ATOM     25  C   UNL     1      35.711 -17.601 -21.665  0.00  0.00    +0.246 C 
ATOM     26  H   UNL     1      34.581 -17.970 -19.989  0.00  0.00    +0.150 HD
BRANCH  25  28
ATOM     27  O   UNL     1      33.402 -14.782 -24.752  0.00  0.00    -0.450 OA
ATOM     28  C   UNL     1      34.956 -16.354 -21.948  0.00  0.00    +0.056 C 
ATOM     29  C   UNL     1      34.481 -16.070 -23.242  0.00  0.00    +0.042 C 
ATOM     30  C   UNL     1      34.703 -15.434 -20.922  0.00  0.00    +0.005 C 
ATOM     31  C   UNL     1      33.781 -14.886 -23.447  0.00  0.00    +0.146 C 
ATOM     32  C   UNL     1      34.526 -16.716 -24.505  0.00  0.00    +0.044 C 
ATOM     33  C   UNL     1      33.994 -14.255 -21.169  0.00  0.00    +0.003 C 
ATOM     34  C   UNL     1      33.513 -13.952 -22.446  0.00  0.00    +0.037 C 
ATOM     35  C   UNL     1      33.858 -15.895 -25.384  0.00  0.00    +0.180 C 
ENDBRANCH  25  28
ENDBRANCH  22  24
ENDBRANCH   3  22
TORSDOF 5
ENDMDL
MODEL 8
REMARK VINA RESULT:      -7.7      2.856      4.556
REMARK  Name = 25195495
REMARK  5 active torsions:
REMARK  status: ('A' for Active; 'I' for Inactive)
REMARK    1  A    between atoms: C_3  and  C_22
REMARK    2  A    between atoms: C_8  and  C_11
REMARK    3  A    between atoms: C_12  and  C_16
REMARK    4  A    between atoms: C_22  and  N_24
REMARK    5  A    between atoms: C_25  and  C_28
REMARK                            x       y       z     vdW  Elec       q    Type
REMARK                         _______ _______ _______ _____ _____    ______ ____
ROOT
ATOM      1  O   UNL     1      35.337  -7.687 -23.673  0.00  0.00    -0.267 OA
ATOM      2  N   UNL     1      33.191  -8.614 -23.841  0.00  0.00    -0.274 N 
ATOM      3  C   UNL     1      33.588  -9.877 -23.190  0.00  0.00    +0.095 C 
ATOM      4  C   UNL     1      32.552 -10.325 -22.151  0.00  0.00    +0.022 C 
ATOM      5  C   UNL     1      31.129 -10.324 -22.700  0.00  0.00    +0.004 C 
ATOM      6  C   UNL     1      30.792  -8.957 -23.282  0.00  0.00    +0.022 C 
ATOM      7  C   UNL     1      31.807  -8.532 -24.337  0.00  0.00    +0.094 C 
ATOM      8  C   UNL     1      34.176  -7.642 -24.075  0.00  0.00    +0.276 C 
ENDROOT
BRANCH   8  11
ATOM      9  S   UNL     1      32.753  -4.320 -25.715  0.00  0.00    -0.076 S 
ATOM     10  N   UNL     1      34.437  -6.246 -26.089  0.00  0.00    -0.399 NA
ATOM     11  C   UNL     1      33.815  -6.465 -24.876  0.00  0.00    +0.176 C 
ATOM     12  C   UNL     1      32.874  -5.529 -24.503  0.00  0.00    +0.133 C 
ATOM     13  C   UNL     1      33.957  -5.144 -26.619  0.00  0.00    +0.135 C 
ATOM     14  C   UNL     1      34.385  -4.586 -27.921  0.00  0.00    +0.074 C 
BRANCH  12  16
ATOM     15  F   UNL     1      29.666  -5.174 -19.960  0.00  0.00    -0.204 F 
ATOM     16  C   UNL     1      32.043  -5.437 -23.327  0.00  0.00    -0.005 C 
ATOM     17  C   UNL     1      32.414  -6.101 -22.158  0.00  0.00    -0.001 C 
ATOM     18  C   UNL     1      30.868  -4.685 -23.359  0.00  0.00    -0.001 C 
ATOM     19  C   UNL     1      31.611  -6.012 -21.021  0.00  0.00    +0.029 C 
ATOM     20  C   UNL     1      30.066  -4.596 -22.222  0.00  0.00    +0.029 C 
ATOM     21  C   UNL     1      30.438  -5.260 -21.052  0.00  0.00    +0.140 C 
ENDBRANCH  12  16
ENDBRANCH   8  11
BRANCH   3  22
ATOM     22  C   UNL     1      33.873 -10.959 -24.235  0.00  0.00    +0.109 C 
BRANCH  22  24
ATOM     23  O   UNL     1      32.717 -13.534 -24.762  0.00  0.00    -0.270 OA
ATOM     24  N   UNL     1      34.220 -12.195 -23.606  0.00  0.00    -0.299 N 
ATOM     25  C   UNL     1      33.606 -13.406 -23.923  0.00  0.00    +0.246 C 
ATOM     26  H   UNL     1      34.924 -12.192 -22.919  0.00  0.00    +0.150 HD
BRANCH  25  28
ATOM     27  O   UNL     1      34.942 -17.990 -23.834  0.00  0.00    -0.450 OA
ATOM     28  C   UNL     1      34.060 -14.597 -23.160  0.00  0.00    +0.056 C 
ATOM     29  C   UNL     1      34.319 -15.818 -23.808  0.00  0.00    +0.042 C 
ATOM     30  C   UNL     1      34.239 -14.519 -21.773  0.00  0.00    +0.005 C 
ATOM     31  C   UNL     1      34.742 -16.899 -23.041  0.00  0.00    +0.146 C 
ATOM     32  C   UNL     1      34.261 -16.292 -25.145  0.00  0.00    +0.044 C 
ATOM     33  C   UNL     1      34.667 -15.629 -21.038  0.00  0.00    +0.003 C 
ATOM     34  C   UNL     1      34.929 -16.853 -21.660  0.00  0.00    +0.037 C 
ATOM     35  C   UNL     1      34.648 -17.612 -25.105  0.00  0.00    +0.180 C 
ENDBRANCH  25  28
ENDBRANCH  22  24
ENDBRANCH   3  22
TORSDOF 5
ENDMDL
MODEL 9
REMARK VINA RESULT:      -7.5     10.669     17.172
REMARK  Name = 25195495
REMARK  5 active torsions:
REMARK  status: ('A' for Active; 'I' for Inactive)
REMARK    1  A    between atoms: C_3  and  C_22
REMARK    2  A    between atoms: C_8  and  C_11
REMARK    3  A    between atoms: C_12  and  C_16
REMARK    4  A    between atoms: C_22  and  N_24
REMARK    5  A    between atoms: C_25  and  C_28
REMARK                            x       y       z     vdW  Elec       q    Type
REMARK                         _______ _______ _______ _____ _____    ______ ____
ROOT
ATOM      1  O   UNL     1      37.346 -22.259 -16.299  0.00  0.00    -0.267 OA
ATOM      2  N   UNL     1      35.746 -22.178 -18.009  0.00  0.00    -0.274 N 
ATOM      3  C   UNL     1      36.647 -21.472 -18.941  0.00  0.00    +0.095 C 
ATOM      4  C   UNL     1      36.583 -22.074 -20.351  0.00  0.00    +0.022 C 
ATOM      5  C   UNL     1      35.154 -22.231 -20.860  0.00  0.00    +0.004 C 
ATOM      6  C   UNL     1      34.327 -23.035 -19.864  0.00  0.00    +0.022 C 
ATOM      7  C   UNL     1      34.368 -22.413 -18.472  0.00  0.00    +0.094 C 
ATOM      8  C   UNL     1      36.203 -22.447 -16.711  0.00  0.00    +0.276 C 
ENDROOT
BRANCH   8  11
ATOM      9  S   UNL     1      34.176 -24.262 -13.822  0.00  0.00    -0.076 S 
ATOM     10  N   UNL     1      33.921 -22.609 -15.793  0.00  0.00    -0.399 NA
ATOM     11  C   UNL     1      35.247 -22.990 -15.737  0.00  0.00    +0.176 C 
ATOM     12  C   UNL     1      35.577 -23.879 -14.735  0.00  0.00    +0.133 C 
ATOM     13  C   UNL     1      33.263 -23.217 -14.831  0.00  0.00    +0.135 C 
ATOM     14  C   UNL     1      31.815 -23.056 -14.577  0.00  0.00    +0.074 C 
BRANCH  12  16
ATOM     15  F   UNL     1      40.450 -26.211 -13.371  0.00  0.00    -0.204 F 
ATOM     16  C   UNL     1      36.839 -24.483 -14.382  0.00  0.00    -0.005 C 
ATOM     17  C   UNL     1      37.583 -23.972 -13.319  0.00  0.00    -0.001 C 
ATOM     18  C   UNL     1      37.315 -25.577 -15.105  0.00  0.00    -0.001 C 
ATOM     19  C   UNL     1      38.803 -24.556 -12.978  0.00  0.00    +0.029 C 
ATOM     20  C   UNL     1      38.535 -26.161 -14.764  0.00  0.00    +0.029 C 
ATOM     21  C   UNL     1      39.278 -25.650 -13.699  0.00  0.00    +0.140 C 
ENDBRANCH  12  16
ENDBRANCH   8  11
BRANCH   3  22
ATOM     22  C   UNL     1      36.362 -19.967 -18.935  0.00  0.00    +0.109 C 
BRANCH  22  24
ATOM     23  O   UNL     1      33.861 -19.204 -20.121  0.00  0.00    -0.270 OA
ATOM     24  N   UNL     1      36.162 -19.482 -20.264  0.00  0.00    -0.299 N 
ATOM     25  C   UNL     1      34.907 -19.133 -20.763  0.00  0.00    +0.246 C 
ATOM     26  H   UNL     1      36.943 -19.390 -20.854  0.00  0.00    +0.150 HD
BRANCH  25  28
ATOM     27  O   UNL     1      34.618 -15.576 -23.937  0.00  0.00    -0.450 OA
ATOM     28  C   UNL     1      34.863 -18.671 -22.174  0.00  0.00    +0.056 C 
ATOM     29  C   UNL     1      34.758 -17.304 -22.487  0.00  0.00    +0.042 C 
ATOM     30  C   UNL     1      34.925 -19.599 -23.222  0.00  0.00    +0.005 C 
ATOM     31  C   UNL     1      34.720 -16.931 -23.827  0.00  0.00    +0.146 C 
ATOM     32  C   UNL     1      34.672 -16.095 -21.748  0.00  0.00    +0.044 C 
ATOM     33  C   UNL     1      34.885 -19.183 -24.556  0.00  0.00    +0.003 C 
ATOM     34  C   UNL     1      34.780 -17.830 -24.891  0.00  0.00    +0.037 C 
ATOM     35  C   UNL     1      34.589 -15.080 -22.673  0.00  0.00    +0.180 C 
ENDBRANCH  25  28
ENDBRANCH  22  24
ENDBRANCH   3  22
TORSDOF 5
ENDMDL
