MODEL 1
REMARK VINA RESULT:      -8.9      0.000      0.000
REMARK  Name = 3308
REMARK  5 active torsions:
REMARK  status: ('A' for Active; 'I' for Inactive)
REMARK    1  A    between atoms: C_3  and  C_15
REMARK    2  A    between atoms: C_3  and  C_19
REMARK    3  A    between atoms: C_10  and  C_17
REMARK    4  A    between atoms: C_19  and  C_21
REMARK    5  A    between atoms: C_21  and  O_22
REMARK                            x       y       z     vdW  Elec       q    Type
REMARK                         _______ _______ _______ _____ _____    ______ ____
ROOT
ATOM      1  O   UNL     1      35.691 -24.945 -13.088  0.00  0.00    -0.352 OA
ATOM      2  N   UNL     1      36.363 -22.949 -16.139  0.00  0.00    -0.355 N 
ATOM      3  C   UNL     1      36.574 -24.085 -13.859  0.00  0.00    +0.136 C 
ATOM      4  C   UNL     1      35.829 -23.622 -15.075  0.00  0.00    +0.055 A 
ATOM      5  C   UNL     1      34.478 -23.775 -15.299  0.00  0.00    -0.005 A 
ATOM      6  C   UNL     1      33.622 -24.472 -14.306  0.00  0.00    +0.060 C 
ATOM      7  C   UNL     1      34.175 -23.185 -16.554  0.00  0.00    +0.013 A 
ATOM      8  C   UNL     1      34.337 -24.484 -12.947  0.00  0.00    +0.147 C 
ATOM      9  C   UNL     1      35.375 -22.674 -17.061  0.00  0.00    +0.052 A 
ATOM     10  C   UNL     1      35.452 -22.017 -18.294  0.00  0.00    -0.007 C 
ATOM     11  C   UNL     1      32.998 -23.033 -17.316  0.00  0.00    +0.001 C 
ATOM     12  C   UNL     1      34.273 -21.879 -19.031  0.00  0.00    -0.003 C 
ATOM     13  C   UNL     1      33.064 -22.378 -18.551  0.00  0.00    -0.000 C 
ATOM     14  H   UNL     1      37.310 -22.699 -16.233  0.00  0.00    +0.166 HD
ENDROOT
BRANCH   3  15
ATOM     15  C   UNL     1      37.776 -24.954 -14.239  0.00  0.00    +0.033 C 
ATOM     16  C   UNL     1      37.336 -26.327 -14.704  0.00  0.00    +0.003 C 
ENDBRANCH   3  15
BRANCH  10  17
ATOM     17  C   UNL     1      36.729 -21.470 -18.838  0.00  0.00    +0.028 C 
ATOM     18  C   UNL     1      36.506 -20.573 -20.052  0.00  0.00    +0.005 C 
ENDBRANCH  10  17
BRANCH   3  19
ATOM     19  C   UNL     1      37.030 -22.908 -12.994  0.00  0.00    +0.142 C 
BRANCH  19  21
ATOM     20  O   UNL     1      39.069 -23.213 -11.694  0.00  0.00    -0.250 OA
ATOM     21  C   UNL     1      37.865 -23.367 -11.832  0.00  0.00    +0.317 C 
BRANCH  21  22
ATOM     22  O   UNL     1      37.076 -23.997 -10.925  0.00  0.00    -0.480 OA
ATOM     23  H   UNL     1      36.275 -23.600 -10.645  0.00  0.00    +0.295 HD
ENDBRANCH  21  22
ENDBRANCH  19  21
ENDBRANCH   3  19
TORSDOF 5
ENDMDL
MODEL 2
REMARK VINA RESULT:      -8.2      2.158      4.427
REMARK  Name = 3308
REMARK  5 active torsions:
REMARK  status: ('A' for Active; 'I' for Inactive)
REMARK    1  A    between atoms: C_3  and  C_15
REMARK    2  A    between atoms: C_3  and  C_19
REMARK    3  A    between atoms: C_10  and  C_17
REMARK    4  A    between atoms: C_19  and  C_21
REMARK    5  A    between atoms: C_21  and  O_22
REMARK                            x       y       z     vdW  Elec       q    Type
REMARK                         _______ _______ _______ _____ _____    ______ ____
ROOT
ATOM      1  O   UNL     1      37.805 -23.729 -13.925  0.00  0.00    -0.352 OA
ATOM      2  N   UNL     1      34.205 -24.608 -13.909  0.00  0.00    -0.355 N 
ATOM      3  C   UNL     1      36.710 -24.533 -13.409  0.00  0.00    +0.136 C 
ATOM      4  C   UNL     1      35.478 -24.203 -14.197  0.00  0.00    +0.055 A 
ATOM      5  C   UNL     1      35.439 -23.462 -15.359  0.00  0.00    -0.005 A 
ATOM      6  C   UNL     1      36.682 -22.885 -15.929  0.00  0.00    +0.060 C 
ATOM      7  C   UNL     1      34.088 -23.399 -15.791  0.00  0.00    +0.013 A 
ATOM      8  C   UNL     1      37.893 -23.636 -15.357  0.00  0.00    +0.147 C 
ATOM      9  C   UNL     1      33.334 -24.126 -14.863  0.00  0.00    +0.052 A 
ATOM     10  C   UNL     1      31.947 -24.278 -14.975  0.00  0.00    -0.007 C 
ATOM     11  C   UNL     1      33.426 -22.795 -16.879  0.00  0.00    +0.001 C 
ATOM     12  C   UNL     1      31.313 -23.670 -16.062  0.00  0.00    -0.003 C 
ATOM     13  C   UNL     1      32.040 -22.941 -17.001  0.00  0.00    -0.000 C 
ATOM     14  H   UNL     1      33.947 -25.160 -13.136  0.00  0.00    +0.166 HD
ENDROOT
BRANCH   3  15
ATOM     15  C   UNL     1      36.555 -24.135 -11.939  0.00  0.00    +0.033 C 
ATOM     16  C   UNL     1      37.273 -22.834 -11.644  0.00  0.00    +0.003 C 
ENDBRANCH   3  15
BRANCH  10  17
ATOM     17  C   UNL     1      31.138 -25.053 -13.989  0.00  0.00    +0.028 C 
ATOM     18  C   UNL     1      29.756 -25.413 -14.528  0.00  0.00    +0.005 C 
ENDBRANCH  10  17
BRANCH   3  19
ATOM     19  C   UNL     1      37.067 -26.018 -13.517  0.00  0.00    +0.142 C 
BRANCH  19  21
ATOM     20  O   UNL     1      36.107 -26.774 -15.626  0.00  0.00    -0.250 OA
ATOM     21  C   UNL     1      37.079 -26.481 -14.946  0.00  0.00    +0.317 C 
BRANCH  21  22
ATOM     22  O   UNL     1      38.359 -26.532 -15.398  0.00  0.00    -0.480 OA
ATOM     23  H   UNL     1      39.044 -26.827 -14.831  0.00  0.00    +0.295 HD
ENDBRANCH  21  22
ENDBRANCH  19  21
ENDBRANCH   3  19
TORSDOF 5
ENDMDL
MODEL 3
REMARK VINA RESULT:      -8.1     14.874     17.729
REMARK  Name = 3308
REMARK  5 active torsions:
REMARK  status: ('A' for Active; 'I' for Inactive)
REMARK    1  A    between atoms: C_3  and  C_15
REMARK    2  A    between atoms: C_3  and  C_19
REMARK    3  A    between atoms: C_10  and  C_17
REMARK    4  A    between atoms: C_19  and  C_21
REMARK    5  A    between atoms: C_21  and  O_22
REMARK                            x       y       z     vdW  Elec       q    Type
REMARK                         _______ _______ _______ _____ _____    ______ ____
ROOT
ATOM      1  O   UNL     1      32.696  -5.805 -22.513  0.00  0.00    -0.352 OA
ATOM      2  N   UNL     1      32.239  -9.464 -22.888  0.00  0.00    -0.355 N 
ATOM      3  C   UNL     1      32.493  -6.966 -23.363  0.00  0.00    +0.136 C 
ATOM      4  C   UNL     1      32.283  -8.160 -22.481  0.00  0.00    +0.055 A 
ATOM      5  C   UNL     1      32.071  -8.128 -21.120  0.00  0.00    -0.005 A 
ATOM      6  C   UNL     1      32.060  -6.837 -20.387  0.00  0.00    +0.060 C 
ATOM      7  C   UNL     1      31.903  -9.465 -20.673  0.00  0.00    +0.013 A 
ATOM      8  C   UNL     1      31.813  -5.695 -21.383  0.00  0.00    +0.147 C 
ATOM      9  C   UNL     1      32.013 -10.284 -21.802  0.00  0.00    +0.052 A 
ATOM     10  C   UNL     1      31.899 -11.678 -21.735  0.00  0.00    -0.007 C 
ATOM     11  C   UNL     1      31.670 -10.066 -19.420  0.00  0.00    +0.001 C 
ATOM     12  C   UNL     1      31.668 -12.250 -20.482  0.00  0.00    -0.003 C 
ATOM     13  C   UNL     1      31.554 -11.459 -19.340  0.00  0.00    -0.000 C 
ATOM     14  H   UNL     1      32.351  -9.772 -23.816  0.00  0.00    +0.166 HD
ENDROOT
BRANCH   3  15
ATOM     15  C   UNL     1      33.772  -7.104 -24.194  0.00  0.00    +0.033 C 
ATOM     16  C   UNL     1      34.946  -7.516 -23.330  0.00  0.00    +0.003 C 
ENDBRANCH   3  15
BRANCH  10  17
ATOM     17  C   UNL     1      32.014 -12.556 -22.936  0.00  0.00    +0.028 C 
ATOM     18  C   UNL     1      32.595 -13.926 -22.600  0.00  0.00    +0.005 C 
ENDBRANCH  10  17
BRANCH   3  19
ATOM     19  C   UNL     1      31.293  -6.727 -24.283  0.00  0.00    +0.142 C 
BRANCH  19  21
ATOM     20  O   UNL     1      31.982  -4.992 -25.850  0.00  0.00    -0.250 OA
ATOM     21  C   UNL     1      31.324  -5.351 -24.885  0.00  0.00    +0.317 C 
BRANCH  21  22
ATOM     22  O   UNL     1      30.496  -4.530 -24.190  0.00  0.00    -0.480 OA
ATOM     23  H   UNL     1      29.626  -4.371 -24.500  0.00  0.00    +0.295 HD
ENDBRANCH  21  22
ENDBRANCH  19  21
ENDBRANCH   3  19
TORSDOF 5
ENDMDL
MODEL 4
REMARK VINA RESULT:      -7.8      6.935     10.165
REMARK  Name = 3308
REMARK  5 active torsions:
REMARK  status: ('A' for Active; 'I' for Inactive)
REMARK    1  A    between atoms: C_3  and  C_15
REMARK    2  A    between atoms: C_3  and  C_19
REMARK    3  A    between atoms: C_10  and  C_17
REMARK    4  A    between atoms: C_19  and  C_21
REMARK    5  A    between atoms: C_21  and  O_22
REMARK                            x       y       z     vdW  Elec       q    Type
REMARK                         _______ _______ _______ _____ _____    ______ ____
ROOT
ATOM      1  O   UNL     1      35.346 -19.414 -22.936  0.00  0.00    -0.352 OA
ATOM      2  N   UNL     1      33.717 -16.409 -21.504  0.00  0.00    -0.355 N 
ATOM      3  C   UNL     1      34.631 -18.770 -21.846  0.00  0.00    +0.136 C 
ATOM      4  C   UNL     1      34.241 -17.394 -22.293  0.00  0.00    +0.055 A 
ATOM      5  C   UNL     1      34.321 -16.912 -23.582  0.00  0.00    -0.005 A 
ATOM      6  C   UNL     1      34.854 -17.764 -24.675  0.00  0.00    +0.060 C 
ATOM      7  C   UNL     1      33.840 -15.577 -23.580  0.00  0.00    +0.013 A 
ATOM      8  C   UNL     1      34.781 -19.237 -24.246  0.00  0.00    +0.147 C 
ATOM      9  C   UNL     1      33.467 -15.285 -22.263  0.00  0.00    +0.052 A 
ATOM     10  C   UNL     1      32.943 -14.042 -21.887  0.00  0.00    -0.007 C 
ATOM     11  C   UNL     1      33.683 -14.581 -24.566  0.00  0.00    +0.001 C 
ATOM     12  C   UNL     1      32.797 -13.072 -22.882  0.00  0.00    -0.003 C 
ATOM     13  C   UNL     1      33.161 -13.335 -24.201  0.00  0.00    -0.000 C 
ATOM     14  H   UNL     1      33.543 -16.489 -20.538  0.00  0.00    +0.166 HD
ENDROOT
BRANCH   3  15
ATOM     15  C   UNL     1      35.615 -18.718 -20.675  0.00  0.00    +0.033 C 
ATOM     16  C   UNL     1      37.023 -19.053 -21.124  0.00  0.00    +0.003 C 
ENDBRANCH   3  15
BRANCH  10  17
ATOM     17  C   UNL     1      32.543 -13.726 -20.485  0.00  0.00    +0.028 C 
ATOM     18  C   UNL     1      31.891 -12.351 -20.363  0.00  0.00    +0.005 C 
ENDBRANCH  10  17
BRANCH   3  19
ATOM     19  C   UNL     1      33.408 -19.608 -21.467  0.00  0.00    +0.142 C 
BRANCH  19  21
ATOM     20  O   UNL     1      34.735 -21.195 -20.178  0.00  0.00    -0.250 OA
ATOM     21  C   UNL     1      33.711 -20.547 -20.334  0.00  0.00    +0.317 C 
BRANCH  21  22
ATOM     22  O   UNL     1      32.659 -20.580 -19.476  0.00  0.00    -0.480 OA
ATOM     23  H   UNL     1      32.552 -19.901 -18.840  0.00  0.00    +0.295 HD
ENDBRANCH  21  22
ENDBRANCH  19  21
ENDBRANCH   3  19
TORSDOF 5
ENDMDL
MODEL 5
REMARK VINA RESULT:      -7.7      1.826      2.640
REMARK  Name = 3308
REMARK  5 active torsions:
REMARK  status: ('A' for Active; 'I' for Inactive)
REMARK    1  A    between atoms: C_3  and  C_15
REMARK    2  A    between atoms: C_3  and  C_19
REMARK    3  A    between atoms: C_10  and  C_17
REMARK    4  A    between atoms: C_19  and  C_21
REMARK    5  A    between atoms: C_21  and  O_22
REMARK                            x       y       z     vdW  Elec       q    Type
REMARK                         _______ _______ _______ _____ _____    ______ ____
ROOT
ATOM      1  O   UNL     1      36.201 -25.170 -12.853  0.00  0.00    -0.352 OA
ATOM      2  N   UNL     1      34.909 -23.830 -16.057  0.00  0.00    -0.355 N 
ATOM      3  C   UNL     1      36.444 -24.673 -14.196  0.00  0.00    +0.136 C 
ATOM      4  C   UNL     1      35.139 -24.199 -14.761  0.00  0.00    +0.055 A 
ATOM      5  C   UNL     1      33.968 -24.031 -14.054  0.00  0.00    -0.005 A 
ATOM      6  C   UNL     1      33.908 -24.350 -12.605  0.00  0.00    +0.060 C 
ATOM      7  C   UNL     1      32.979 -23.554 -14.954  0.00  0.00    +0.013 A 
ATOM      8  C   UNL     1      35.334 -24.366 -12.035  0.00  0.00    +0.147 C 
ATOM      9  C   UNL     1      33.595 -23.436 -16.205  0.00  0.00    +0.052 A 
ATOM     10  C   UNL     1      32.912 -22.988 -17.341  0.00  0.00    -0.007 C 
ATOM     11  C   UNL     1      31.618 -23.209 -14.834  0.00  0.00    +0.001 C 
ATOM     12  C   UNL     1      31.563 -22.653 -17.197  0.00  0.00    -0.003 C 
ATOM     13  C   UNL     1      30.924 -22.760 -15.963  0.00  0.00    -0.000 C 
ATOM     14  H   UNL     1      35.579 -23.843 -16.778  0.00  0.00    +0.166 HD
ENDROOT
BRANCH   3  15
ATOM     15  C   UNL     1      36.996 -25.861 -14.988  0.00  0.00    +0.033 C 
ATOM     16  C   UNL     1      37.225 -27.060 -14.091  0.00  0.00    +0.003 C 
ENDBRANCH   3  15
BRANCH  10  17
ATOM     17  C   UNL     1      33.564 -22.860 -18.677  0.00  0.00    +0.028 C 
ATOM     18  C   UNL     1      33.301 -21.503 -19.324  0.00  0.00    +0.005 C 
ENDBRANCH  10  17
BRANCH   3  19
ATOM     19  C   UNL     1      37.480 -23.546 -14.149  0.00  0.00    +0.142 C 
BRANCH  19  21
ATOM     20  O   UNL     1      39.494 -24.125 -15.393  0.00  0.00    -0.250 OA
ATOM     21  C   UNL     1      38.397 -23.590 -15.338  0.00  0.00    +0.317 C 
BRANCH  21  22
ATOM     22  O   UNL     1      37.826 -22.932 -16.379  0.00  0.00    -0.480 OA
ATOM     23  H   UNL     1      37.275 -23.394 -16.979  0.00  0.00    +0.295 HD
ENDBRANCH  21  22
ENDBRANCH  19  21
ENDBRANCH   3  19
TORSDOF 5
ENDMDL
MODEL 6
REMARK VINA RESULT:      -7.5      9.570     13.044
REMARK  Name = 3308
REMARK  5 active torsions:
REMARK  status: ('A' for Active; 'I' for Inactive)
REMARK    1  A    between atoms: C_3  and  C_15
REMARK    2  A    between atoms: C_3  and  C_19
REMARK    3  A    between atoms: C_10  and  C_17
REMARK    4  A    between atoms: C_19  and  C_21
REMARK    5  A    between atoms: C_21  and  O_22
REMARK                            x       y       z     vdW  Elec       q    Type
REMARK                         _______ _______ _______ _____ _____    ______ ____
ROOT
ATOM      1  O   UNL     1      32.425 -13.348 -25.108  0.00  0.00    -0.352 OA
ATOM      2  N   UNL     1      34.137 -15.759 -22.875  0.00  0.00    -0.355 N 
ATOM      3  C   UNL     1      33.115 -13.636 -23.862  0.00  0.00    +0.136 C 
ATOM      4  C   UNL     1      33.603 -15.052 -23.915  0.00  0.00    +0.055 A 
ATOM      5  C   UNL     1      33.618 -15.857 -25.033  0.00  0.00    -0.005 A 
ATOM      6  C   UNL     1      33.099 -15.358 -26.331  0.00  0.00    +0.060 C 
ATOM      7  C   UNL     1      34.171 -17.111 -24.661  0.00  0.00    +0.013 A 
ATOM      8  C   UNL     1      33.069 -13.823 -26.303  0.00  0.00    +0.147 C 
ATOM      9  C   UNL     1      34.488 -17.023 -23.301  0.00  0.00    +0.052 A 
ATOM     10  C   UNL     1      35.058 -18.086 -22.591  0.00  0.00    -0.007 C 
ATOM     11  C   UNL     1      34.434 -18.316 -25.342  0.00  0.00    +0.001 C 
ATOM     12  C   UNL     1      35.310 -19.271 -23.288  0.00  0.00    -0.003 C 
ATOM     13  C   UNL     1      35.004 -19.386 -24.643  0.00  0.00    -0.000 C 
ATOM     14  H   UNL     1      34.254 -15.419 -21.958  0.00  0.00    +0.166 HD
ENDROOT
BRANCH   3  15
ATOM     15  C   UNL     1      32.074 -13.446 -22.755  0.00  0.00    +0.033 C 
ATOM     16  C   UNL     1      32.717 -13.474 -21.385  0.00  0.00    +0.003 C 
ENDBRANCH   3  15
BRANCH  10  17
ATOM     17  C   UNL     1      35.400 -17.998 -21.141  0.00  0.00    +0.028 C 
ATOM     18  C   UNL     1      36.310 -19.136 -20.689  0.00  0.00    +0.005 C 
ENDBRANCH  10  17
BRANCH   3  19
ATOM     19  C   UNL     1      34.269 -12.648 -23.672  0.00  0.00    +0.142 C 
BRANCH  19  21
ATOM     20  O   UNL     1      33.173 -10.474 -23.552  0.00  0.00    -0.250 OA
ATOM     21  C   UNL     1      33.896 -11.268 -24.135  0.00  0.00    +0.317 C 
BRANCH  21  22
ATOM     22  O   UNL     1      34.489 -11.011 -25.328  0.00  0.00    -0.480 OA
ATOM     23  H   UNL     1      35.331 -11.375 -25.520  0.00  0.00    +0.295 HD
ENDBRANCH  21  22
ENDBRANCH  19  21
ENDBRANCH   3  19
TORSDOF 5
ENDMDL
MODEL 7
REMARK VINA RESULT:      -7.4      3.418      5.585
REMARK  Name = 3308
REMARK  5 active torsions:
REMARK  status: ('A' for Active; 'I' for Inactive)
REMARK    1  A    between atoms: C_3  and  C_15
REMARK    2  A    between atoms: C_3  and  C_19
REMARK    3  A    between atoms: C_10  and  C_17
REMARK    4  A    between atoms: C_19  and  C_21
REMARK    5  A    between atoms: C_21  and  O_22
REMARK                            x       y       z     vdW  Elec       q    Type
REMARK                         _______ _______ _______ _____ _____    ______ ____
ROOT
ATOM      1  O   UNL     1      31.423 -23.819 -14.099  0.00  0.00    -0.352 OA
ATOM      2  N   UNL     1      32.087 -22.540 -17.514  0.00  0.00    -0.355 N 
ATOM      3  C   UNL     1      30.951 -23.504 -15.437  0.00  0.00    +0.136 C 
ATOM      4  C   UNL     1      32.132 -23.086 -16.261  0.00  0.00    +0.055 A 
ATOM      5  C   UNL     1      33.455 -23.215 -15.898  0.00  0.00    -0.005 A 
ATOM      6  C   UNL     1      33.823 -23.787 -14.578  0.00  0.00    +0.060 C 
ATOM      7  C   UNL     1      34.251 -22.717 -16.962  0.00  0.00    +0.013 A 
ATOM      8  C   UNL     1      32.635 -24.590 -14.028  0.00  0.00    +0.147 C 
ATOM      9  C   UNL     1      33.368 -22.300 -17.964  0.00  0.00    +0.052 A 
ATOM     10  C   UNL     1      33.808 -21.749 -19.173  0.00  0.00    -0.007 C 
ATOM     11  C   UNL     1      35.637 -22.577 -17.178  0.00  0.00    +0.001 C 
ATOM     12  C   UNL     1      35.186 -21.619 -19.364  0.00  0.00    -0.003 C 
ATOM     13  C   UNL     1      36.088 -22.027 -18.383  0.00  0.00    -0.000 C 
ATOM     14  H   UNL     1      31.264 -22.348 -18.019  0.00  0.00    +0.166 HD
ENDROOT
BRANCH   3  15
ATOM     15  C   UNL     1      29.954 -22.354 -15.268  0.00  0.00    +0.033 C 
ATOM     16  C   UNL     1      28.928 -22.349 -16.382  0.00  0.00    +0.003 C 
ENDBRANCH   3  15
BRANCH  10  17
ATOM     17  C   UNL     1      32.871 -21.303 -20.246  0.00  0.00    +0.028 C 
ATOM     18  C   UNL     1      33.095 -19.846 -20.644  0.00  0.00    +0.005 C 
ENDBRANCH  10  17
BRANCH   3  19
ATOM     19  C   UNL     1      30.249 -24.725 -16.036  0.00  0.00    +0.142 C 
BRANCH  19  21
ATOM     20  O   UNL     1      28.215 -25.094 -14.744  0.00  0.00    -0.250 OA
ATOM     21  C   UNL     1      29.363 -25.402 -15.028  0.00  0.00    +0.317 C 
BRANCH  21  22
ATOM     22  O   UNL     1      30.031 -26.436 -14.456  0.00  0.00    -0.480 OA
ATOM     23  H   UNL     1      29.997 -26.559 -13.528  0.00  0.00    +0.295 HD
ENDBRANCH  21  22
ENDBRANCH  19  21
ENDBRANCH   3  19
TORSDOF 5
ENDMDL
MODEL 8
REMARK VINA RESULT:      -7.2     10.737     13.905
REMARK  Name = 3308
REMARK  5 active torsions:
REMARK  status: ('A' for Active; 'I' for Inactive)
REMARK    1  A    between atoms: C_3  and  C_15
REMARK    2  A    between atoms: C_3  and  C_19
REMARK    3  A    between atoms: C_10  and  C_17
REMARK    4  A    between atoms: C_19  and  C_21
REMARK    5  A    between atoms: C_21  and  O_22
REMARK                            x       y       z     vdW  Elec       q    Type
REMARK                         _______ _______ _______ _____ _____    ______ ____
ROOT
ATOM      1  O   UNL     1      32.362 -14.774 -22.379  0.00  0.00    -0.352 OA
ATOM      2  N   UNL     1      34.411 -12.237 -24.140  0.00  0.00    -0.355 N 
ATOM      3  C   UNL     1      33.557 -14.422 -23.128  0.00  0.00    +0.136 C 
ATOM      4  C   UNL     1      33.559 -12.937 -23.333  0.00  0.00    +0.055 A 
ATOM      5  C   UNL     1      32.719 -12.037 -22.714  0.00  0.00    -0.005 A 
ATOM      6  C   UNL     1      31.676 -12.506 -21.766  0.00  0.00    +0.060 C 
ATOM      7  C   UNL     1      33.060 -10.737 -23.169  0.00  0.00    +0.013 A 
ATOM      8  C   UNL     1      32.042 -13.914 -21.273  0.00  0.00    +0.147 C 
ATOM      9  C   UNL     1      34.125 -10.889 -24.063  0.00  0.00    +0.052 A 
ATOM     10  C   UNL     1      34.724  -9.804 -24.713  0.00  0.00    -0.007 C 
ATOM     11  C   UNL     1      32.570  -9.440 -22.912  0.00  0.00    +0.001 C 
ATOM     12  C   UNL     1      34.222  -8.528 -24.443  0.00  0.00    -0.003 C 
ATOM     13  C   UNL     1      33.162  -8.347 -23.556  0.00  0.00    -0.000 C 
ATOM     14  H   UNL     1      35.122 -12.633 -24.693  0.00  0.00    +0.166 HD
ENDROOT
BRANCH   3  15
ATOM     15  C   UNL     1      33.449 -15.169 -24.461  0.00  0.00    +0.033 C 
ATOM     16  C   UNL     1      32.747 -14.328 -25.506  0.00  0.00    +0.003 C 
ENDBRANCH   3  15
BRANCH  10  17
ATOM     17  C   UNL     1      35.861  -9.961 -25.666  0.00  0.00    +0.028 C 
ATOM     18  C   UNL     1      35.484 -10.796 -26.887  0.00  0.00    +0.005 C 
ENDBRANCH  10  17
BRANCH   3  19
ATOM     19  C   UNL     1      34.799 -14.888 -22.364  0.00  0.00    +0.142 C 
BRANCH  19  21
ATOM     20  O   UNL     1      35.557 -17.154 -22.848  0.00  0.00    -0.250 OA
ATOM     21  C   UNL     1      34.836 -16.384 -22.230  0.00  0.00    +0.317 C 
BRANCH  21  22
ATOM     22  O   UNL     1      33.930 -16.781 -21.301  0.00  0.00    -0.480 OA
ATOM     23  H   UNL     1      34.135 -17.487 -20.719  0.00  0.00    +0.295 HD
ENDBRANCH  21  22
ENDBRANCH  19  21
ENDBRANCH   3  19
TORSDOF 5
ENDMDL
MODEL 9
REMARK VINA RESULT:      -6.8      2.924      5.841
REMARK  Name = 3308
REMARK  5 active torsions:
REMARK  status: ('A' for Active; 'I' for Inactive)
REMARK    1  A    between atoms: C_3  and  C_15
REMARK    2  A    between atoms: C_3  and  C_19
REMARK    3  A    between atoms: C_10  and  C_17
REMARK    4  A    between atoms: C_19  and  C_21
REMARK    5  A    between atoms: C_21  and  O_22
REMARK                            x       y       z     vdW  Elec       q    Type
REMARK                         _______ _______ _______ _____ _____    ______ ____
ROOT
ATOM      1  O   UNL     1      31.468 -23.678 -16.597  0.00  0.00    -0.352 OA
ATOM      2  N   UNL     1      33.888 -24.337 -13.868  0.00  0.00    -0.355 N 
ATOM      3  C   UNL     1      31.741 -23.926 -15.191  0.00  0.00    +0.136 C 
ATOM      4  C   UNL     1      33.227 -23.955 -15.002  0.00  0.00    +0.055 A 
ATOM      5  C   UNL     1      34.166 -23.571 -15.935  0.00  0.00    -0.005 A 
ATOM      6  C   UNL     1      33.746 -23.098 -17.279  0.00  0.00    +0.060 C 
ATOM      7  C   UNL     1      35.451 -23.737 -15.356  0.00  0.00    +0.013 A 
ATOM      8  C   UNL     1      32.274 -22.665 -17.221  0.00  0.00    +0.147 C 
ATOM      9  C   UNL     1      35.249 -24.219 -14.058  0.00  0.00    +0.052 A 
ATOM     10  C   UNL     1      36.307 -24.500 -13.186  0.00  0.00    -0.007 C 
ATOM     11  C   UNL     1      36.771 -23.527 -15.803  0.00  0.00    +0.001 C 
ATOM     12  C   UNL     1      37.607 -24.284 -13.651  0.00  0.00    -0.003 C 
ATOM     13  C   UNL     1      37.837 -23.804 -14.940  0.00  0.00    -0.000 C 
ATOM     14  H   UNL     1      33.458 -24.650 -13.040  0.00  0.00    +0.166 HD
ENDROOT
BRANCH   3  15
ATOM     15  C   UNL     1      31.111 -25.285 -14.877  0.00  0.00    +0.033 C 
ATOM     16  C   UNL     1      29.707 -25.383 -15.436  0.00  0.00    +0.003 C 
ENDBRANCH   3  15
BRANCH  10  17
ATOM     17  C   UNL     1      36.097 -25.013 -11.800  0.00  0.00    +0.028 C 
ATOM     18  C   UNL     1      36.083 -23.894 -10.763  0.00  0.00    +0.005 C 
ENDBRANCH  10  17
BRANCH   3  19
ATOM     19  C   UNL     1      31.086 -22.835 -14.340  0.00  0.00    +0.142 C 
BRANCH  19  21
ATOM     20  O   UNL     1      30.344 -23.955 -12.306  0.00  0.00    -0.250 OA
ATOM     21  C   UNL     1      31.104 -23.188 -12.880  0.00  0.00    +0.317 C 
BRANCH  21  22
ATOM     22  O   UNL     1      32.110 -22.520 -12.261  0.00  0.00    -0.480 OA
ATOM     23  H   UNL     1      32.034 -22.293 -11.355  0.00  0.00    +0.295 HD
ENDBRANCH  21  22
ENDBRANCH  19  21
ENDBRANCH   3  19
TORSDOF 5
ENDMDL
