MODEL 1
REMARK VINA RESULT:      -9.3      0.000      0.000
REMARK  Name = 9796181
REMARK  3 active torsions:
REMARK  status: ('A' for Active; 'I' for Inactive)
REMARK    1  A    between atoms: N_2  and  C_10
REMARK    2  A    between atoms: C_4  and  C_20
REMARK    3  A    between atoms: C_20  and  N_21
REMARK                            x       y       z     vdW  Elec       q    Type
REMARK                         _______ _______ _______ _____ _____    ______ ____
ROOT
ATOM      1  S   UNL     1      34.519 -15.557 -20.587  0.00  0.00    -0.018 S 
ATOM      2  N   UNL     1      34.698 -17.290 -22.779  0.00  0.00    -0.276 N 
ATOM      3  N   UNL     1      34.186 -15.152 -23.264  0.00  0.00    -0.294 N 
ATOM      4  C   UNL     1      34.541 -17.145 -24.157  0.00  0.00    +0.023 C 
ATOM      5  C   UNL     1      34.474 -16.015 -22.181  0.00  0.00    +0.142 C 
ATOM      6  C   UNL     1      34.236 -15.867 -24.430  0.00  0.00    +0.072 C 
ATOM      7  H   UNL     1      33.981 -14.191 -23.190  0.00  0.00    +0.154 HD
ENDROOT
BRANCH   2  10
ATOM      8  F   UNL     1      37.124 -21.904 -18.958  0.00  0.00    -0.204 F 
ATOM      9  F   UNL     1      32.504 -22.663 -18.326  0.00  0.00    -0.204 F 
ATOM     10  C   UNL     1      35.029 -18.533 -22.127  0.00  0.00    +0.083 C 
ATOM     11  C   UNL     1      36.303 -18.393 -21.295  0.00  0.00    +0.025 C 
ATOM     12  C   UNL     1      33.869 -19.001 -21.243  0.00  0.00    +0.046 C 
ATOM     13  C   UNL     1      36.713 -19.744 -20.712  0.00  0.00    +0.030 C 
ATOM     14  C   UNL     1      34.230 -20.164 -20.353  0.00  0.00    -0.020 C 
ATOM     15  C   UNL     1      35.569 -20.488 -20.071  0.00  0.00    +0.002 C 
ATOM     16  C   UNL     1      33.201 -20.902 -19.747  0.00  0.00    +0.025 C 
ATOM     17  C   UNL     1      35.852 -21.567 -19.218  0.00  0.00    +0.138 C 
ATOM     18  C   UNL     1      33.495 -21.964 -18.893  0.00  0.00    +0.142 C 
ATOM     19  C   UNL     1      34.821 -22.298 -18.630  0.00  0.00    +0.059 C 
ENDBRANCH   2  10
BRANCH   4  20
ATOM     20  C   UNL     1      34.701 -18.271 -25.108  0.00  0.00    -0.042 C 
BRANCH  20  21
ATOM     21  N   UNL     1      33.421 -18.857 -25.496  0.00  0.00    +0.384 N 
ATOM     22  H   UNL     1      33.200 -19.633 -24.873  0.00  0.00    -0.089 HD
ATOM     23  H   UNL     1      33.481 -19.198 -26.456  0.00  0.00    -0.089 HD
ATOM     24  H   UNL     1      32.690 -18.150 -25.432  0.00  0.00    -0.089 HD
ENDBRANCH  20  21
ENDBRANCH   4  20
TORSDOF 3
ENDMDL
MODEL 2
REMARK VINA RESULT:      -9.1      1.612      2.413
REMARK  Name = 9796181
REMARK  3 active torsions:
REMARK  status: ('A' for Active; 'I' for Inactive)
REMARK    1  A    between atoms: N_2  and  C_10
REMARK    2  A    between atoms: C_4  and  C_20
REMARK    3  A    between atoms: C_20  and  N_21
REMARK                            x       y       z     vdW  Elec       q    Type
REMARK                         _______ _______ _______ _____ _____    ______ ____
ROOT
ATOM      1  S   UNL     1      34.512 -18.967 -25.354  0.00  0.00    -0.018 S 
ATOM      2  N   UNL     1      34.779 -17.862 -22.795  0.00  0.00    -0.276 N 
ATOM      3  N   UNL     1      34.266 -16.410 -24.438  0.00  0.00    -0.294 N 
ATOM      4  C   UNL     1      34.666 -16.576 -22.268  0.00  0.00    +0.023 C 
ATOM      5  C   UNL     1      34.524 -17.779 -24.196  0.00  0.00    +0.142 C 
ATOM      6  C   UNL     1      34.361 -15.723 -23.257  0.00  0.00    +0.072 C 
ATOM      7  H   UNL     1      34.054 -16.015 -25.314  0.00  0.00    +0.154 HD
ENDROOT
BRANCH   2  10
ATOM      8  F   UNL     1      37.080 -22.054 -18.447  0.00  0.00    -0.204 F 
ATOM      9  F   UNL     1      32.449 -22.878 -18.006  0.00  0.00    -0.204 F 
ATOM     10  C   UNL     1      35.099 -19.033 -22.016  0.00  0.00    +0.083 C 
ATOM     11  C   UNL     1      36.320 -18.786 -21.131  0.00  0.00    +0.025 C 
ATOM     12  C   UNL     1      33.900 -19.453 -21.160  0.00  0.00    +0.046 C 
ATOM     13  C   UNL     1      36.724 -20.069 -20.408  0.00  0.00    +0.030 C 
ATOM     14  C   UNL     1      34.235 -20.522 -20.150  0.00  0.00    -0.020 C 
ATOM     15  C   UNL     1      35.562 -20.784 -19.767  0.00  0.00    +0.002 C 
ATOM     16  C   UNL     1      33.188 -21.231 -19.538  0.00  0.00    +0.025 C 
ATOM     17  C   UNL     1      35.819 -21.776 -18.807  0.00  0.00    +0.138 C 
ATOM     18  C   UNL     1      33.456 -22.206 -18.578  0.00  0.00    +0.142 C 
ATOM     19  C   UNL     1      34.772 -22.480 -18.213  0.00  0.00    +0.059 C 
ENDBRANCH   2  10
BRANCH   4  20
ATOM     20  C   UNL     1      34.866 -16.276 -20.830  0.00  0.00    -0.042 C 
BRANCH  20  21
ATOM     21  N   UNL     1      34.419 -14.932 -20.474  0.00  0.00    +0.384 N 
ATOM     22  H   UNL     1      34.471 -14.329 -21.295  0.00  0.00    -0.089 HD
ATOM     23  H   UNL     1      35.019 -14.558 -19.738  0.00  0.00    -0.089 HD
ATOM     24  H   UNL     1      33.457 -14.972 -20.141  0.00  0.00    -0.089 HD
ENDBRANCH  20  21
ENDBRANCH   4  20
TORSDOF 3
ENDMDL
MODEL 3
REMARK VINA RESULT:      -9.0      1.697      3.229
REMARK  Name = 9796181
REMARK  3 active torsions:
REMARK  status: ('A' for Active; 'I' for Inactive)
REMARK    1  A    between atoms: N_2  and  C_10
REMARK    2  A    between atoms: C_4  and  C_20
REMARK    3  A    between atoms: C_20  and  N_21
REMARK                            x       y       z     vdW  Elec       q    Type
REMARK                         _______ _______ _______ _____ _____    ______ ____
ROOT
ATOM      1  S   UNL     1      34.943 -19.403 -24.598  0.00  0.00    -0.018 S 
ATOM      2  N   UNL     1      34.647 -17.565 -22.506  0.00  0.00    -0.276 N 
ATOM      3  N   UNL     1      35.062 -16.679 -24.535  0.00  0.00    -0.294 N 
ATOM      4  C   UNL     1      34.695 -16.175 -22.412  0.00  0.00    +0.023 C 
ATOM      5  C   UNL     1      34.880 -17.913 -23.869  0.00  0.00    +0.142 C 
ATOM      6  C   UNL     1      34.943 -15.662 -23.626  0.00  0.00    +0.072 C 
ATOM      7  H   UNL     1      35.244 -16.569 -25.496  0.00  0.00    +0.154 HD
ENDROOT
BRANCH   2  10
ATOM      8  F   UNL     1      32.789 -22.395 -18.634  0.00  0.00    -0.204 F 
ATOM      9  F   UNL     1      37.431 -22.379 -17.754  0.00  0.00    -0.204 F 
ATOM     10  C   UNL     1      34.401 -18.446 -21.392  0.00  0.00    +0.083 C 
ATOM     11  C   UNL     1      33.288 -19.442 -21.716  0.00  0.00    +0.025 C 
ATOM     12  C   UNL     1      35.681 -19.191 -21.004  0.00  0.00    +0.046 C 
ATOM     13  C   UNL     1      32.950 -20.285 -20.487  0.00  0.00    +0.030 C 
ATOM     14  C   UNL     1      35.448 -20.298 -20.005  0.00  0.00    -0.020 C 
ATOM     15  C   UNL     1      34.168 -20.839 -19.792  0.00  0.00    +0.002 C 
ATOM     16  C   UNL     1      36.547 -20.835 -19.316  0.00  0.00    +0.025 C 
ATOM     17  C   UNL     1      34.006 -21.883 -18.867  0.00  0.00    +0.138 C 
ATOM     18  C   UNL     1      36.375 -21.879 -18.408  0.00  0.00    +0.142 C 
ATOM     19  C   UNL     1      35.104 -22.402 -18.181  0.00  0.00    +0.059 C 
ENDBRANCH   2  10
BRANCH   4  20
ATOM     20  C   UNL     1      34.495 -15.448 -21.135  0.00  0.00    -0.042 C 
BRANCH  20  21
ATOM     21  N   UNL     1      33.216 -14.745 -21.090  0.00  0.00    +0.384 N 
ATOM     22  H   UNL     1      33.304 -13.918 -20.500  0.00  0.00    -0.089 HD
ATOM     23  H   UNL     1      32.502 -15.363 -20.705  0.00  0.00    -0.089 HD
ATOM     24  H   UNL     1      32.950 -14.463 -22.033  0.00  0.00    -0.089 HD
ENDBRANCH  20  21
ENDBRANCH   4  20
TORSDOF 3
ENDMDL
MODEL 4
REMARK VINA RESULT:      -8.7      6.684      9.680
REMARK  Name = 9796181
REMARK  3 active torsions:
REMARK  status: ('A' for Active; 'I' for Inactive)
REMARK    1  A    between atoms: N_2  and  C_10
REMARK    2  A    between atoms: C_4  and  C_20
REMARK    3  A    between atoms: C_20  and  N_21
REMARK                            x       y       z     vdW  Elec       q    Type
REMARK                         _______ _______ _______ _____ _____    ______ ____
ROOT
ATOM      1  S   UNL     1      34.433 -14.774 -21.754  0.00  0.00    -0.018 S 
ATOM      2  N   UNL     1      33.389 -14.054 -24.250  0.00  0.00    -0.276 N 
ATOM      3  N   UNL     1      34.236 -16.136 -24.108  0.00  0.00    -0.294 N 
ATOM      4  C   UNL     1      33.260 -14.699 -25.479  0.00  0.00    +0.023 C 
ATOM      5  C   UNL     1      34.017 -14.964 -23.349  0.00  0.00    +0.142 C 
ATOM      6  C   UNL     1      33.768 -15.937 -25.380  0.00  0.00    +0.072 C 
ATOM      7  H   UNL     1      34.657 -16.961 -23.776  0.00  0.00    +0.154 HD
ENDROOT
BRANCH   2  10
ATOM      8  F   UNL     1      31.432  -8.515 -21.556  0.00  0.00    -0.204 F 
ATOM      9  F   UNL     1      35.150  -6.958 -24.019  0.00  0.00    -0.204 F 
ATOM     10  C   UNL     1      32.949 -12.705 -23.991  0.00  0.00    +0.083 C 
ATOM     11  C   UNL     1      32.357 -12.582 -22.587  0.00  0.00    +0.025 C 
ATOM     12  C   UNL     1      34.108 -11.720 -24.165  0.00  0.00    +0.046 C 
ATOM     13  C   UNL     1      31.781 -11.185 -22.371  0.00  0.00    +0.030 C 
ATOM     14  C   UNL     1      33.784 -10.327 -23.684  0.00  0.00    -0.020 C 
ATOM     15  C   UNL     1      32.712 -10.082 -22.808  0.00  0.00    +0.002 C 
ATOM     16  C   UNL     1      34.609  -9.262 -24.079  0.00  0.00    +0.025 C 
ATOM     17  C   UNL     1      32.464  -8.770 -22.373  0.00  0.00    +0.138 C 
ATOM     18  C   UNL     1      34.359  -7.966 -23.631  0.00  0.00    +0.142 C 
ATOM     19  C   UNL     1      33.285  -7.719 -22.779  0.00  0.00    +0.059 C 
ENDBRANCH   2  10
BRANCH   4  20
ATOM     20  C   UNL     1      32.646 -14.055 -26.665  0.00  0.00    -0.042 C 
BRANCH  20  21
ATOM     21  N   UNL     1      33.625 -13.334 -27.475  0.00  0.00    +0.384 N 
ATOM     22  H   UNL     1      33.666 -12.362 -27.173  0.00  0.00    -0.089 HD
ATOM     23  H   UNL     1      33.349 -13.375 -28.457  0.00  0.00    -0.089 HD
ATOM     24  H   UNL     1      34.542 -13.765 -27.363  0.00  0.00    -0.089 HD
ENDBRANCH  20  21
ENDBRANCH   4  20
TORSDOF 3
ENDMDL
MODEL 5
REMARK VINA RESULT:      -8.4      8.433     10.503
REMARK  Name = 9796181
REMARK  3 active torsions:
REMARK  status: ('A' for Active; 'I' for Inactive)
REMARK    1  A    between atoms: N_2  and  C_10
REMARK    2  A    between atoms: C_4  and  C_20
REMARK    3  A    between atoms: C_20  and  N_21
REMARK                            x       y       z     vdW  Elec       q    Type
REMARK                         _______ _______ _______ _____ _____    ______ ____
ROOT
ATOM      1  S   UNL     1      36.856 -26.846 -15.302  0.00  0.00    -0.018 S 
ATOM      2  N   UNL     1      36.648 -24.651 -13.576  0.00  0.00    -0.276 N 
ATOM      3  N   UNL     1      38.414 -26.004 -13.228  0.00  0.00    -0.294 N 
ATOM      4  C   UNL     1      37.404 -24.171 -12.508  0.00  0.00    +0.023 C 
ATOM      5  C   UNL     1      37.281 -25.835 -14.057  0.00  0.00    +0.142 C 
ATOM      6  C   UNL     1      38.452 -24.987 -12.313  0.00  0.00    +0.072 C 
ATOM      7  H   UNL     1      39.069 -26.736 -13.297  0.00  0.00    +0.154 HD
ENDROOT
BRANCH   2  10
ATOM      8  F   UNL     1      31.790 -22.393 -17.192  0.00  0.00    -0.204 F 
ATOM      9  F   UNL     1      29.346 -24.837 -13.972  0.00  0.00    -0.204 F 
ATOM     10  C   UNL     1      35.445 -24.023 -14.066  0.00  0.00    +0.083 C 
ATOM     11  C   UNL     1      35.502 -23.840 -15.583  0.00  0.00    +0.025 C 
ATOM     12  C   UNL     1      34.214 -24.846 -13.678  0.00  0.00    +0.046 C 
ATOM     13  C   UNL     1      34.282 -23.062 -16.072  0.00  0.00    +0.030 C 
ATOM     14  C   UNL     1      32.948 -24.379 -14.353  0.00  0.00    -0.020 C 
ATOM     15  C   UNL     1      32.982 -23.572 -15.504  0.00  0.00    +0.002 C 
ATOM     16  C   UNL     1      31.710 -24.809 -13.850  0.00  0.00    +0.025 C 
ATOM     17  C   UNL     1      31.776 -23.181 -16.108  0.00  0.00    +0.138 C 
ATOM     18  C   UNL     1      30.520 -24.423 -14.465  0.00  0.00    +0.142 C 
ATOM     19  C   UNL     1      30.552 -23.607 -15.593  0.00  0.00    +0.059 C 
ENDBRANCH   2  10
BRANCH   4  20
ATOM     20  C   UNL     1      37.045 -22.946 -11.754  0.00  0.00    -0.042 C 
BRANCH  20  21
ATOM     21  N   UNL     1      36.677 -23.232 -10.371  0.00  0.00    +0.384 N 
ATOM     22  H   UNL     1      37.301 -23.944  -9.994  0.00  0.00    -0.089 HD
ATOM     23  H   UNL     1      35.714 -23.570 -10.339  0.00  0.00    -0.089 HD
ATOM     24  H   UNL     1      36.756 -22.381  -9.816  0.00  0.00    -0.089 HD
ENDBRANCH  20  21
ENDBRANCH   4  20
TORSDOF 3
ENDMDL
MODEL 6
REMARK VINA RESULT:      -8.4      7.912      9.619
REMARK  Name = 9796181
REMARK  3 active torsions:
REMARK  status: ('A' for Active; 'I' for Inactive)
REMARK    1  A    between atoms: N_2  and  C_10
REMARK    2  A    between atoms: C_4  and  C_20
REMARK    3  A    between atoms: C_20  and  N_21
REMARK                            x       y       z     vdW  Elec       q    Type
REMARK                         _______ _______ _______ _____ _____    ______ ____
ROOT
ATOM      1  S   UNL     1      36.979 -21.924 -16.357  0.00  0.00    -0.018 S 
ATOM      2  N   UNL     1      36.754 -24.409 -15.087  0.00  0.00    -0.276 N 
ATOM      3  N   UNL     1      38.828 -23.833 -15.746  0.00  0.00    -0.294 N 
ATOM      4  C   UNL     1      37.652 -25.420 -14.749  0.00  0.00    +0.023 C 
ATOM      5  C   UNL     1      37.491 -23.374 -15.732  0.00  0.00    +0.142 C 
ATOM      6  C   UNL     1      38.882 -25.063 -15.148  0.00  0.00    +0.072 C 
ATOM      7  H   UNL     1      39.595 -23.348 -16.126  0.00  0.00    +0.154 HD
ENDROOT
BRANCH   2  10
ATOM      8  F   UNL     1      30.810 -23.549 -12.697  0.00  0.00    -0.204 F 
ATOM      9  F   UNL     1      30.010 -22.579 -17.250  0.00  0.00    -0.204 F 
ATOM     10  C   UNL     1      35.339 -24.455 -14.809  0.00  0.00    +0.083 C 
ATOM     11  C   UNL     1      35.032 -23.872 -13.430  0.00  0.00    +0.025 C 
ATOM     12  C   UNL     1      34.556 -23.702 -15.889  0.00  0.00    +0.046 C 
ATOM     13  C   UNL     1      33.551 -24.041 -13.097  0.00  0.00    +0.030 C 
ATOM     14  C   UNL     1      33.100 -23.507 -15.543  0.00  0.00    -0.020 C 
ATOM     15  C   UNL     1      32.635 -23.627 -14.221  0.00  0.00    +0.002 C 
ATOM     16  C   UNL     1      32.203 -23.141 -16.558  0.00  0.00    +0.025 C 
ATOM     17  C   UNL     1      31.275 -23.415 -13.947  0.00  0.00    +0.138 C 
ATOM     18  C   UNL     1      30.856 -22.922 -16.272  0.00  0.00    +0.142 C 
ATOM     19  C   UNL     1      30.391 -23.061 -14.966  0.00  0.00    +0.059 C 
ENDBRANCH   2  10
BRANCH   4  20
ATOM     20  C   UNL     1      37.239 -26.666 -14.057  0.00  0.00    -0.042 C 
BRANCH  20  21
ATOM     21  N   UNL     1      37.400 -26.577 -12.609  0.00  0.00    +0.384 N 
ATOM     22  H   UNL     1      38.184 -27.161 -12.318  0.00  0.00    -0.089 HD
ATOM     23  H   UNL     1      36.547 -26.900 -12.152  0.00  0.00    -0.089 HD
ATOM     24  H   UNL     1      37.581 -25.609 -12.346  0.00  0.00    -0.089 HD
ENDBRANCH  20  21
ENDBRANCH   4  20
TORSDOF 3
ENDMDL
MODEL 7
REMARK VINA RESULT:      -8.4      4.420      6.716
REMARK  Name = 9796181
REMARK  3 active torsions:
REMARK  status: ('A' for Active; 'I' for Inactive)
REMARK    1  A    between atoms: N_2  and  C_10
REMARK    2  A    between atoms: C_4  and  C_20
REMARK    3  A    between atoms: C_20  and  N_21
REMARK                            x       y       z     vdW  Elec       q    Type
REMARK                         _______ _______ _______ _____ _____    ______ ____
ROOT
ATOM      1  S   UNL     1      34.750 -10.774 -25.257  0.00  0.00    -0.018 S 
ATOM      2  N   UNL     1      32.928 -11.713 -23.349  0.00  0.00    -0.276 N 
ATOM      3  N   UNL     1      33.194  -9.479 -23.430  0.00  0.00    -0.294 N 
ATOM      4  C   UNL     1      32.110 -11.108 -22.396  0.00  0.00    +0.023 C 
ATOM      5  C   UNL     1      33.637 -10.680 -24.029  0.00  0.00    +0.142 C 
ATOM      6  C   UNL     1      32.280  -9.778 -22.456  0.00  0.00    +0.072 C 
ATOM      7  H   UNL     1      33.495  -8.574 -23.673  0.00  0.00    +0.154 HD
ENDROOT
BRANCH   2  10
ATOM      8  F   UNL     1      34.034 -17.643 -25.671  0.00  0.00    -0.204 F 
ATOM      9  F   UNL     1      35.960 -18.072 -21.379  0.00  0.00    -0.204 F 
ATOM     10  C   UNL     1      33.004 -13.137 -23.566  0.00  0.00    +0.083 C 
ATOM     11  C   UNL     1      33.342 -13.452 -25.023  0.00  0.00    +0.025 C 
ATOM     12  C   UNL     1      34.043 -13.768 -22.634  0.00  0.00    +0.046 C 
ATOM     13  C   UNL     1      33.295 -14.959 -25.269  0.00  0.00    +0.030 C 
ATOM     14  C   UNL     1      34.345 -15.208 -22.965  0.00  0.00    -0.020 C 
ATOM     15  C   UNL     1      34.029 -15.757 -24.221  0.00  0.00    +0.002 C 
ATOM     16  C   UNL     1      35.009 -16.000 -22.015  0.00  0.00    +0.025 C 
ATOM     17  C   UNL     1      34.350 -17.097 -24.488  0.00  0.00    +0.138 C 
ATOM     18  C   UNL     1      35.332 -17.327 -22.296  0.00  0.00    +0.142 C 
ATOM     19  C   UNL     1      35.001 -17.876 -23.532  0.00  0.00    +0.059 C 
ENDBRANCH   2  10
BRANCH   4  20
ATOM     20  C   UNL     1      31.220 -11.877 -21.494  0.00  0.00    -0.042 C 
BRANCH  20  21
ATOM     21  N   UNL     1      31.622 -11.772 -20.094  0.00  0.00    +0.384 N 
ATOM     22  H   UNL     1      32.401 -12.405 -19.916  0.00  0.00    -0.089 HD
ATOM     23  H   UNL     1      30.834 -12.024 -19.495  0.00  0.00    -0.089 HD
ATOM     24  H   UNL     1      31.908 -10.815 -19.894  0.00  0.00    -0.089 HD
ENDBRANCH  20  21
ENDBRANCH   4  20
TORSDOF 3
ENDMDL
MODEL 8
REMARK VINA RESULT:      -8.3      7.258     10.167
REMARK  Name = 9796181
REMARK  3 active torsions:
REMARK  status: ('A' for Active; 'I' for Inactive)
REMARK    1  A    between atoms: N_2  and  C_10
REMARK    2  A    between atoms: C_4  and  C_20
REMARK    3  A    between atoms: C_20  and  N_21
REMARK                            x       y       z     vdW  Elec       q    Type
REMARK                         _______ _______ _______ _____ _____    ______ ____
ROOT
ATOM      1  S   UNL     1      33.070 -12.940 -27.064  0.00  0.00    -0.018 S 
ATOM      2  N   UNL     1      33.818 -13.302 -24.390  0.00  0.00    -0.276 N 
ATOM      3  N   UNL     1      33.294 -15.178 -25.521  0.00  0.00    -0.294 N 
ATOM      4  C   UNL     1      33.950 -14.408 -23.552  0.00  0.00    +0.023 C 
ATOM      5  C   UNL     1      33.395 -13.775 -25.667  0.00  0.00    +0.142 C 
ATOM      6  C   UNL     1      33.635 -15.517 -24.239  0.00  0.00    +0.072 C 
ATOM      7  H   UNL     1      33.022 -15.808 -26.226  0.00  0.00    +0.154 HD
ENDROOT
BRANCH   2  10
ATOM      8  F   UNL     1      35.069  -6.965 -24.168  0.00  0.00    -0.204 F 
ATOM      9  F   UNL     1      31.104  -7.106 -21.605  0.00  0.00    -0.204 F 
ATOM     10  C   UNL     1      34.075 -11.942 -23.985  0.00  0.00    +0.083 C 
ATOM     11  C   UNL     1      34.684 -11.135 -25.131  0.00  0.00    +0.025 C 
ATOM     12  C   UNL     1      32.787 -11.275 -23.495  0.00  0.00    +0.046 C 
ATOM     13  C   UNL     1      35.069  -9.736 -24.654  0.00  0.00    +0.030 C 
ATOM     14  C   UNL     1      32.930  -9.789 -23.278  0.00  0.00    -0.020 C 
ATOM     15  C   UNL     1      33.982  -9.058 -23.857  0.00  0.00    +0.002 C 
ATOM     16  C   UNL     1      31.955  -9.114 -22.525  0.00  0.00    +0.025 C 
ATOM     17  C   UNL     1      34.060  -7.673 -23.643  0.00  0.00    +0.138 C 
ATOM     18  C   UNL     1      32.037  -7.736 -22.329  0.00  0.00    +0.142 C 
ATOM     19  C   UNL     1      33.091  -7.015 -22.886  0.00  0.00    +0.059 C 
ENDBRANCH   2  10
BRANCH   4  20
ATOM     20  C   UNL     1      34.377 -14.299 -22.137  0.00  0.00    -0.042 C 
BRANCH  20  21
ATOM     21  N   UNL     1      34.600 -15.604 -21.521  0.00  0.00    +0.384 N 
ATOM     22  H   UNL     1      33.778 -16.190 -21.660  0.00  0.00    -0.089 HD
ATOM     23  H   UNL     1      34.768 -15.483 -20.521  0.00  0.00    -0.089 HD
ATOM     24  H   UNL     1      35.412 -16.048 -21.950  0.00  0.00    -0.089 HD
ENDBRANCH  20  21
ENDBRANCH   4  20
TORSDOF 3
ENDMDL
MODEL 9
REMARK VINA RESULT:      -8.3      4.290      6.506
REMARK  Name = 9796181
REMARK  3 active torsions:
REMARK  status: ('A' for Active; 'I' for Inactive)
REMARK    1  A    between atoms: N_2  and  C_10
REMARK    2  A    between atoms: C_4  and  C_20
REMARK    3  A    between atoms: C_20  and  N_21
REMARK                            x       y       z     vdW  Elec       q    Type
REMARK                         _______ _______ _______ _____ _____    ______ ____
ROOT
ATOM      1  S   UNL     1      31.124 -11.671 -21.121  0.00  0.00    -0.018 S 
ATOM      2  N   UNL     1      32.870 -11.756 -23.308  0.00  0.00    -0.276 N 
ATOM      3  N   UNL     1      32.361  -9.700 -22.543  0.00  0.00    -0.294 N 
ATOM      4  C   UNL     1      33.530 -10.794 -24.071  0.00  0.00    +0.023 C 
ATOM      5  C   UNL     1      32.109 -11.073 -22.315  0.00  0.00    +0.142 C 
ATOM      6  C   UNL     1      33.217  -9.575 -23.604  0.00  0.00    +0.072 C 
ATOM      7  H   UNL     1      31.982  -8.955 -22.024  0.00  0.00    +0.154 HD
ENDROOT
BRANCH   2  10
ATOM      8  F   UNL     1      34.119 -17.659 -25.627  0.00  0.00    -0.204 F 
ATOM      9  F   UNL     1      35.966 -18.072 -21.298  0.00  0.00    -0.204 F 
ATOM     10  C   UNL     1      32.974 -13.178 -23.528  0.00  0.00    +0.083 C 
ATOM     11  C   UNL     1      33.346 -13.482 -24.979  0.00  0.00    +0.025 C 
ATOM     12  C   UNL     1      34.004 -13.794 -22.578  0.00  0.00    +0.046 C 
ATOM     13  C   UNL     1      33.329 -14.988 -25.231  0.00  0.00    +0.030 C 
ATOM     14  C   UNL     1      34.336 -15.229 -22.907  0.00  0.00    -0.020 C 
ATOM     15  C   UNL     1      34.054 -15.778 -24.171  0.00  0.00    +0.002 C 
ATOM     16  C   UNL     1      34.993 -16.013 -21.946  0.00  0.00    +0.025 C 
ATOM     17  C   UNL     1      34.402 -17.112 -24.435  0.00  0.00    +0.138 C 
ATOM     18  C   UNL     1      35.344 -17.333 -22.225  0.00  0.00    +0.142 C 
ATOM     19  C   UNL     1      35.046 -17.884 -23.469  0.00  0.00    +0.059 C 
ENDBRANCH   2  10
BRANCH   4  20
ATOM     20  C   UNL     1      34.422 -11.138 -25.205  0.00  0.00    -0.042 C 
BRANCH  20  21
ATOM     21  N   UNL     1      35.633 -10.324 -25.227  0.00  0.00    +0.384 N 
ATOM     22  H   UNL     1      35.614  -9.666 -24.449  0.00  0.00    -0.089 HD
ATOM     23  H   UNL     1      35.681  -9.810 -26.108  0.00  0.00    -0.089 HD
ATOM     24  H   UNL     1      36.450 -10.928 -25.142  0.00  0.00    -0.089 HD
ENDBRANCH  20  21
ENDBRANCH   4  20
TORSDOF 3
ENDMDL
