MODEL 1
REMARK VINA RESULT:      -5.6      0.000      0.000
REMARK  Name = 2578
REMARK  5 active torsions:
REMARK  status: ('A' for Active; 'I' for Inactive)
REMARK    1  A    between atoms: N_2  and  N_7
REMARK    2  A    between atoms: N_2  and  C_8
REMARK    3  A    between atoms: N_3  and  C_11
REMARK    4  A    between atoms: C_8  and  C_10
REMARK    5  A    between atoms: C_11  and  C_13
REMARK                            x       y       z     vdW  Elec       q    Type
REMARK                         _______ _______ _______ _____ _____    ______ ____
ROOT
ATOM      1  O   UNL     1      34.947 -15.292 -23.120  0.00  0.00    -0.251 OA
ATOM      2  N   UNL     1      34.094 -16.035 -25.143  0.00  0.00    -0.163 N 
ATOM      3  N   UNL     1      33.308 -14.043 -24.141  0.00  0.00    -0.286 N 
ATOM      4  C   UNL     1      34.171 -15.135 -24.069  0.00  0.00    +0.320 C 
ATOM      5  H   UNL     1      32.708 -13.960 -24.917  0.00  0.00    +0.151 HD
ENDROOT
BRANCH   2   7
ATOM      6  O   UNL     1      33.488 -14.897 -27.031  0.00  0.00    -0.078 OA
ATOM      7  N   UNL     1      33.133 -15.792 -26.256  0.00  0.00    +0.054 NA
ENDBRANCH   2   7
BRANCH   2   8
ATOM      8  C   UNL     1      34.936 -17.224 -25.199  0.00  0.00    +0.134 C 
BRANCH   8  10
ATOM      9 CL   UNL     1      34.872 -19.345 -23.483  0.00  0.00    -0.112 Cl
ATOM     10  C   UNL     1      34.170 -18.498 -24.884  0.00  0.00    +0.118 C 
ENDBRANCH   8  10
ENDBRANCH   2   8
BRANCH   3  11
ATOM     11  C   UNL     1      33.268 -13.031 -23.111  0.00  0.00    +0.108 C 
BRANCH  11  13
ATOM     12 CL   UNL     1      32.798 -14.164 -20.673  0.00  0.00    -0.112 Cl
ATOM     13  C   UNL     1      32.174 -13.281 -22.088  0.00  0.00    +0.116 C 
ENDBRANCH  11  13
ENDBRANCH   3  11
TORSDOF 5
ENDMDL
MODEL 2
REMARK VINA RESULT:      -5.6      3.067      4.284
REMARK  Name = 2578
REMARK  5 active torsions:
REMARK  status: ('A' for Active; 'I' for Inactive)
REMARK    1  A    between atoms: N_2  and  N_7
REMARK    2  A    between atoms: N_2  and  C_8
REMARK    3  A    between atoms: N_3  and  C_11
REMARK    4  A    between atoms: C_8  and  C_10
REMARK    5  A    between atoms: C_11  and  C_13
REMARK                            x       y       z     vdW  Elec       q    Type
REMARK                         _______ _______ _______ _____ _____    ______ ____
ROOT
ATOM      1  O   UNL     1      33.866 -15.459 -22.288  0.00  0.00    -0.251 OA
ATOM      2  N   UNL     1      34.113 -15.833 -24.562  0.00  0.00    -0.163 N 
ATOM      3  N   UNL     1      35.086 -17.285 -22.970  0.00  0.00    -0.286 N 
ATOM      4  C   UNL     1      34.322 -16.144 -23.209  0.00  0.00    +0.320 C 
ATOM      5  H   UNL     1      35.428 -17.800 -23.736  0.00  0.00    +0.151 HD
ENDROOT
BRANCH   2   7
ATOM      6  O   UNL     1      34.260 -17.855 -25.620  0.00  0.00    -0.078 OA
ATOM      7  N   UNL     1      34.695 -16.698 -25.628  0.00  0.00    +0.054 NA
ENDBRANCH   2   7
BRANCH   2   8
ATOM      8  C   UNL     1      33.335 -14.667 -24.961  0.00  0.00    +0.134 C 
BRANCH   8  10
ATOM      9 CL   UNL     1      33.426 -13.274 -27.306  0.00  0.00    -0.112 Cl
ATOM     10  C   UNL     1      32.901 -14.724 -26.416  0.00  0.00    +0.118 C 
ENDBRANCH   8  10
ENDBRANCH   2   8
BRANCH   3  11
ATOM     11  C   UNL     1      35.391 -17.734 -21.631  0.00  0.00    +0.108 C 
BRANCH  11  13
ATOM     12 CL   UNL     1      33.682 -19.668 -20.743  0.00  0.00    -0.112 Cl
ATOM     13  C   UNL     1      35.248 -19.239 -21.473  0.00  0.00    +0.116 C 
ENDBRANCH  11  13
ENDBRANCH   3  11
TORSDOF 5
ENDMDL
MODEL 3
REMARK VINA RESULT:      -5.5      1.668      1.779
REMARK  Name = 2578
REMARK  5 active torsions:
REMARK  status: ('A' for Active; 'I' for Inactive)
REMARK    1  A    between atoms: N_2  and  N_7
REMARK    2  A    between atoms: N_2  and  C_8
REMARK    3  A    between atoms: N_3  and  C_11
REMARK    4  A    between atoms: C_8  and  C_10
REMARK    5  A    between atoms: C_11  and  C_13
REMARK                            x       y       z     vdW  Elec       q    Type
REMARK                         _______ _______ _______ _____ _____    ______ ____
ROOT
ATOM      1  O   UNL     1      34.920 -15.233 -23.136  0.00  0.00    -0.251 OA
ATOM      2  N   UNL     1      34.137 -15.991 -25.181  0.00  0.00    -0.163 N 
ATOM      3  N   UNL     1      33.318 -13.992 -24.222  0.00  0.00    -0.286 N 
ATOM      4  C   UNL     1      34.178 -15.083 -24.112  0.00  0.00    +0.320 C 
ATOM      5  H   UNL     1      32.745 -13.914 -25.019  0.00  0.00    +0.151 HD
ENDROOT
BRANCH   2   7
ATOM      6  O   UNL     1      33.573 -14.834 -27.072  0.00  0.00    -0.078 OA
ATOM      7  N   UNL     1      33.215 -15.756 -26.330  0.00  0.00    +0.054 NA
ENDBRANCH   2   7
BRANCH   2   8
ATOM      8  C   UNL     1      34.980 -17.180 -25.200  0.00  0.00    +0.134 C 
BRANCH   8  10
ATOM      9 CL   UNL     1      34.710 -19.142 -23.322  0.00  0.00    -0.112 Cl
ATOM     10  C   UNL     1      34.207 -18.449 -24.884  0.00  0.00    +0.118 C 
ENDBRANCH   8  10
ENDBRANCH   2   8
BRANCH   3  11
ATOM     11  C   UNL     1      33.243 -12.972 -23.202  0.00  0.00    +0.108 C 
BRANCH  11  13
ATOM     12 CL   UNL     1      34.070 -11.591 -25.405  0.00  0.00    -0.112 Cl
ATOM     13  C   UNL     1      33.368 -11.568 -23.769  0.00  0.00    +0.116 C 
ENDBRANCH  11  13
ENDBRANCH   3  11
TORSDOF 5
ENDMDL
MODEL 4
REMARK VINA RESULT:      -5.5     13.786     14.747
REMARK  Name = 2578
REMARK  5 active torsions:
REMARK  status: ('A' for Active; 'I' for Inactive)
REMARK    1  A    between atoms: N_2  and  N_7
REMARK    2  A    between atoms: N_2  and  C_8
REMARK    3  A    between atoms: N_3  and  C_11
REMARK    4  A    between atoms: C_8  and  C_10
REMARK    5  A    between atoms: C_11  and  C_13
REMARK                            x       y       z     vdW  Elec       q    Type
REMARK                         _______ _______ _______ _____ _____    ______ ____
ROOT
ATOM      1  O   UNL     1      35.366 -23.180 -14.008  0.00  0.00    -0.251 OA
ATOM      2  N   UNL     1      35.831 -24.138 -11.949  0.00  0.00    -0.163 N 
ATOM      3  N   UNL     1      33.816 -24.610 -13.091  0.00  0.00    -0.286 N 
ATOM      4  C   UNL     1      35.029 -23.924 -13.080  0.00  0.00    +0.320 C 
ATOM      5  H   UNL     1      33.591 -25.193 -12.330  0.00  0.00    +0.151 HD
ENDROOT
BRANCH   2   7
ATOM      6  O   UNL     1      35.389 -24.526  -9.739  0.00  0.00    -0.078 OA
ATOM      7  N   UNL     1      35.365 -25.045 -10.861  0.00  0.00    +0.054 NA
ENDBRANCH   2   7
BRANCH   2   8
ATOM      8  C   UNL     1      37.125 -23.483 -11.801  0.00  0.00    +0.134 C 
BRANCH   8  10
ATOM      9 CL   UNL     1      38.402 -24.865 -13.779  0.00  0.00    -0.112 Cl
ATOM     10  C   UNL     1      38.289 -24.426 -12.056  0.00  0.00    +0.118 C 
ENDBRANCH   8  10
ENDBRANCH   2   8
BRANCH   3  11
ATOM     11  C   UNL     1      32.880 -24.493 -14.185  0.00  0.00    +0.108 C 
BRANCH  11  13
ATOM     12 CL   UNL     1      31.019 -22.944 -15.445  0.00  0.00    -0.112 Cl
ATOM     13  C   UNL     1      31.811 -23.443 -13.930  0.00  0.00    +0.116 C 
ENDBRANCH  11  13
ENDBRANCH   3  11
TORSDOF 5
ENDMDL
MODEL 5
REMARK VINA RESULT:      -5.4      3.559      5.473
REMARK  Name = 2578
REMARK  5 active torsions:
REMARK  status: ('A' for Active; 'I' for Inactive)
REMARK    1  A    between atoms: N_2  and  N_7
REMARK    2  A    between atoms: N_2  and  C_8
REMARK    3  A    between atoms: N_3  and  C_11
REMARK    4  A    between atoms: C_8  and  C_10
REMARK    5  A    between atoms: C_11  and  C_13
REMARK                            x       y       z     vdW  Elec       q    Type
REMARK                         _______ _______ _______ _____ _____    ______ ____
ROOT
ATOM      1  O   UNL     1      35.728 -18.302 -23.129  0.00  0.00    -0.251 OA
ATOM      2  N   UNL     1      34.721 -16.449 -22.168  0.00  0.00    -0.163 N 
ATOM      3  N   UNL     1      35.065 -18.434 -20.931  0.00  0.00    -0.286 N 
ATOM      4  C   UNL     1      35.208 -17.765 -22.145  0.00  0.00    +0.320 C 
ATOM      5  H   UNL     1      34.645 -17.965 -20.175  0.00  0.00    +0.151 HD
ENDROOT
BRANCH   2   7
ATOM      6  O   UNL     1      34.922 -15.449 -20.121  0.00  0.00    -0.078 OA
ATOM      7  N   UNL     1      34.099 -15.859 -20.947  0.00  0.00    +0.054 NA
ENDBRANCH   2   7
BRANCH   2   8
ATOM      8  C   UNL     1      34.802 -15.630 -23.371  0.00  0.00    +0.134 C 
BRANCH   8  10
ATOM      9 CL   UNL     1      33.862 -13.106 -23.815  0.00  0.00    -0.112 Cl
ATOM     10  C   UNL     1      33.526 -14.846 -23.630  0.00  0.00    +0.118 C 
ENDBRANCH   8  10
ENDBRANCH   2   8
BRANCH   3  11
ATOM     11  C   UNL     1      35.515 -19.795 -20.750  0.00  0.00    +0.108 C 
BRANCH  11  13
ATOM     12 CL   UNL     1      32.819 -20.094 -20.454  0.00  0.00    -0.112 Cl
ATOM     13  C   UNL     1      34.464 -20.676 -20.098  0.00  0.00    +0.116 C 
ENDBRANCH  11  13
ENDBRANCH   3  11
TORSDOF 5
ENDMDL
MODEL 6
REMARK VINA RESULT:      -5.4      1.788      1.893
REMARK  Name = 2578
REMARK  5 active torsions:
REMARK  status: ('A' for Active; 'I' for Inactive)
REMARK    1  A    between atoms: N_2  and  N_7
REMARK    2  A    between atoms: N_2  and  C_8
REMARK    3  A    between atoms: N_3  and  C_11
REMARK    4  A    between atoms: C_8  and  C_10
REMARK    5  A    between atoms: C_11  and  C_13
REMARK                            x       y       z     vdW  Elec       q    Type
REMARK                         _______ _______ _______ _____ _____    ______ ____
ROOT
ATOM      1  O   UNL     1      35.079 -16.068 -21.943  0.00  0.00    -0.251 OA
ATOM      2  N   UNL     1      34.806 -17.374 -23.838  0.00  0.00    -0.163 N 
ATOM      3  N   UNL     1      34.065 -15.129 -23.781  0.00  0.00    -0.286 N 
ATOM      4  C   UNL     1      34.679 -16.184 -23.106  0.00  0.00    +0.320 C 
ATOM      5  H   UNL     1      33.763 -15.268 -24.707  0.00  0.00    +0.151 HD
ENDROOT
BRANCH   2   7
ATOM      6  O   UNL     1      34.847 -16.656 -26.009  0.00  0.00    -0.078 OA
ATOM      7  N   UNL     1      34.297 -17.450 -25.238  0.00  0.00    +0.054 NA
ENDBRANCH   2   7
BRANCH   2   8
ATOM      8  C   UNL     1      35.425 -18.559 -23.259  0.00  0.00    +0.134 C 
BRANCH   8  10
ATOM      9 CL   UNL     1      35.179 -19.761 -20.820  0.00  0.00    -0.112 Cl
ATOM     10  C   UNL     1      34.461 -19.362 -22.401  0.00  0.00    +0.118 C 
ENDBRANCH   8  10
ENDBRANCH   2   8
BRANCH   3  11
ATOM     11  C   UNL     1      33.861 -13.841 -23.161  0.00  0.00    +0.108 C 
BRANCH  11  13
ATOM     12 CL   UNL     1      32.654 -13.897 -20.714  0.00  0.00    -0.112 Cl
ATOM     13  C   UNL     1      32.507 -13.728 -22.480  0.00  0.00    +0.116 C 
ENDBRANCH  11  13
ENDBRANCH   3  11
TORSDOF 5
ENDMDL
MODEL 7
REMARK VINA RESULT:      -5.4      2.276      4.350
REMARK  Name = 2578
REMARK  5 active torsions:
REMARK  status: ('A' for Active; 'I' for Inactive)
REMARK    1  A    between atoms: N_2  and  N_7
REMARK    2  A    between atoms: N_2  and  C_8
REMARK    3  A    between atoms: N_3  and  C_11
REMARK    4  A    between atoms: C_8  and  C_10
REMARK    5  A    between atoms: C_11  and  C_13
REMARK                            x       y       z     vdW  Elec       q    Type
REMARK                         _______ _______ _______ _____ _____    ______ ____
ROOT
ATOM      1  O   UNL     1      34.148 -15.847 -22.351  0.00  0.00    -0.251 OA
ATOM      2  N   UNL     1      33.806 -15.389 -24.597  0.00  0.00    -0.163 N 
ATOM      3  N   UNL     1      35.100 -17.244 -23.909  0.00  0.00    -0.286 N 
ATOM      4  C   UNL     1      34.337 -16.139 -23.537  0.00  0.00    +0.320 C 
ATOM      5  H   UNL     1      35.222 -17.438 -24.867  0.00  0.00    +0.151 HD
ENDROOT
BRANCH   2   7
ATOM      6  O   UNL     1      33.374 -15.197 -26.834  0.00  0.00    -0.078 OA
ATOM      7  N   UNL     1      34.075 -15.791 -26.008  0.00  0.00    +0.054 NA
ENDBRANCH   2   7
BRANCH   2   8
ATOM      8  C   UNL     1      32.991 -14.205 -24.356  0.00  0.00    +0.134 C 
BRANCH   8  10
ATOM      9 CL   UNL     1      33.822 -11.916 -25.589  0.00  0.00    -0.112 Cl
ATOM     10  C   UNL     1      33.826 -12.954 -24.141  0.00  0.00    +0.118 C 
ENDBRANCH   8  10
ENDBRANCH   2   8
BRANCH   3  11
ATOM     11  C   UNL     1      35.714 -18.114 -22.933  0.00  0.00    +0.108 C 
BRANCH  11  13
ATOM     12 CL   UNL     1      34.170 -19.198 -20.962  0.00  0.00    -0.112 Cl
ATOM     13  C   UNL     1      34.854 -19.321 -22.601  0.00  0.00    +0.116 C 
ENDBRANCH  11  13
ENDBRANCH   3  11
TORSDOF 5
ENDMDL
MODEL 8
REMARK VINA RESULT:      -5.4      1.342      4.154
REMARK  Name = 2578
REMARK  5 active torsions:
REMARK  status: ('A' for Active; 'I' for Inactive)
REMARK    1  A    between atoms: N_2  and  N_7
REMARK    2  A    between atoms: N_2  and  C_8
REMARK    3  A    between atoms: N_3  and  C_11
REMARK    4  A    between atoms: C_8  and  C_10
REMARK    5  A    between atoms: C_11  and  C_13
REMARK                            x       y       z     vdW  Elec       q    Type
REMARK                         _______ _______ _______ _____ _____    ______ ____
ROOT
ATOM      1  O   UNL     1      35.264 -15.718 -22.681  0.00  0.00    -0.251 OA
ATOM      2  N   UNL     1      33.825 -14.940 -24.323  0.00  0.00    -0.163 N 
ATOM      3  N   UNL     1      34.590 -17.177 -24.325  0.00  0.00    -0.286 N 
ATOM      4  C   UNL     1      34.606 -15.929 -23.704  0.00  0.00    +0.320 C 
ATOM      5  H   UNL     1      34.049 -17.299 -25.138  0.00  0.00    +0.151 HD
ENDROOT
BRANCH   2   7
ATOM      6  O   UNL     1      33.759 -15.337 -26.573  0.00  0.00    -0.078 OA
ATOM      7  N   UNL     1      33.056 -15.257 -25.560  0.00  0.00    +0.054 NA
ENDBRANCH   2   7
BRANCH   2   8
ATOM      8  C   UNL     1      33.749 -13.587 -23.785  0.00  0.00    +0.134 C 
BRANCH   8  10
ATOM      9 CL   UNL     1      32.494 -13.890 -21.381  0.00  0.00    -0.112 Cl
ATOM     10  C   UNL     1      32.438 -13.317 -23.066  0.00  0.00    +0.118 C 
ENDBRANCH   8  10
ENDBRANCH   2   8
BRANCH   3  11
ATOM     11  C   UNL     1      35.343 -18.297 -23.810  0.00  0.00    +0.108 C 
BRANCH  11  13
ATOM     12 CL   UNL     1      35.218 -18.914 -21.154  0.00  0.00    -0.112 Cl
ATOM     13  C   UNL     1      34.558 -19.113 -22.796  0.00  0.00    +0.116 C 
ENDBRANCH  11  13
ENDBRANCH   3  11
TORSDOF 5
ENDMDL
MODEL 9
REMARK VINA RESULT:      -5.3      9.653     10.709
REMARK  Name = 2578
REMARK  5 active torsions:
REMARK  status: ('A' for Active; 'I' for Inactive)
REMARK    1  A    between atoms: N_2  and  N_7
REMARK    2  A    between atoms: N_2  and  C_8
REMARK    3  A    between atoms: N_3  and  C_11
REMARK    4  A    between atoms: C_8  and  C_10
REMARK    5  A    between atoms: C_11  and  C_13
REMARK                            x       y       z     vdW  Elec       q    Type
REMARK                         _______ _______ _______ _____ _____    ______ ____
ROOT
ATOM      1  O   UNL     1      33.908 -23.779 -17.084  0.00  0.00    -0.251 OA
ATOM      2  N   UNL     1      31.728 -23.120 -16.649  0.00  0.00    -0.163 N 
ATOM      3  N   UNL     1      32.888 -22.334 -18.554  0.00  0.00    -0.286 N 
ATOM      4  C   UNL     1      32.911 -23.124 -17.406  0.00  0.00    +0.320 C 
ATOM      5  H   UNL     1      32.071 -21.831 -18.770  0.00  0.00    +0.151 HD
ENDROOT
BRANCH   2   7
ATOM      6  O   UNL     1      29.473 -22.868 -16.926  0.00  0.00    -0.078 OA
ATOM      7  N   UNL     1      30.560 -22.304 -17.089  0.00  0.00    +0.054 NA
ENDBRANCH   2   7
BRANCH   2   8
ATOM      8  C   UNL     1      31.609 -23.898 -15.423  0.00  0.00    +0.134 C 
BRANCH   8  10
ATOM      9 CL   UNL     1      33.536 -23.942 -13.490  0.00  0.00    -0.112 Cl
ATOM     10  C   UNL     1      32.111 -23.145 -14.202  0.00  0.00    +0.118 C 
ENDBRANCH   8  10
ENDBRANCH   2   8
BRANCH   3  11
ATOM     11  C   UNL     1      34.028 -22.233 -19.435  0.00  0.00    +0.108 C 
BRANCH  11  13
ATOM     12 CL   UNL     1      32.728 -20.124 -20.579  0.00  0.00    -0.112 Cl
ATOM     13  C   UNL     1      34.243 -20.822 -19.954  0.00  0.00    +0.116 C 
ENDBRANCH  11  13
ENDBRANCH   3  11
TORSDOF 5
ENDMDL
