MODEL 1
REMARK VINA RESULT:      -8.7      0.000      0.000
REMARK  Name = 16122643
REMARK  4 active torsions:
REMARK  status: ('A' for Active; 'I' for Inactive)
REMARK    1  A    between atoms: N_2  and  C_14
REMARK    2  A    between atoms: C_10  and  C_25
REMARK    3  A    between atoms: C_15  and  O_20
REMARK    4  A    between atoms: C_18  and  O_22
REMARK                            x       y       z     vdW  Elec       q    Type
REMARK                         _______ _______ _______ _____ _____    ______ ____
ROOT
ATOM      1  O   UNL     1      34.558 -21.046 -19.826  0.00  0.00    -0.252 OA
ATOM      2  N   UNL     1      36.212 -19.532 -20.504  0.00  0.00    -0.266 N 
ATOM      3  N   UNL     1      36.558 -20.837 -18.632  0.00  0.00    -0.256 N 
ATOM      4  N   UNL     1      35.261 -22.487 -17.526  0.00  0.00    -0.251 NA
ATOM      5  N   UNL     1      37.329 -22.778 -15.655  0.00  0.00    -0.255 NA
ATOM      6  C   UNL     1      35.659 -20.530 -19.666  0.00  0.00    +0.309 C 
ATOM      7  C   UNL     1      36.393 -21.774 -17.585  0.00  0.00    +0.132 C 
ATOM      8  C   UNL     1      37.411 -21.905 -16.678  0.00  0.00    +0.186 C 
ATOM      9  C   UNL     1      35.179 -23.360 -16.503  0.00  0.00    +0.182 C 
ATOM     10  C   UNL     1      36.196 -23.503 -15.583  0.00  0.00    +0.147 C 
ATOM     11  H   UNL     1      37.107 -19.211 -20.253  0.00  0.00    +0.157 HD
ATOM     12  H   UNL     1      37.406 -20.338 -18.635  0.00  0.00    +0.158 HD
ENDROOT
BRANCH   2  14
ATOM     13 CL   UNL     1      34.793 -20.089 -25.373  0.00  0.00    -0.079 Cl
ATOM     14  C   UNL     1      35.654 -18.944 -21.642  0.00  0.00    +0.087 C 
ATOM     15  C   UNL     1      35.241 -17.612 -21.624  0.00  0.00    +0.155 C 
ATOM     16  C   UNL     1      35.512 -19.702 -22.805  0.00  0.00    +0.032 C 
ATOM     17  C   UNL     1      34.686 -17.038 -22.768  0.00  0.00    +0.076 C 
ATOM     18  C   UNL     1      34.544 -17.796 -23.930  0.00  0.00    +0.152 C 
ATOM     19  C   UNL     1      34.957 -19.129 -23.948  0.00  0.00    +0.093 C 
BRANCH  15  20
ATOM     20  O   UNL     1      35.371 -16.854 -20.499  0.00  0.00    -0.470 OA
ATOM     21  C   UNL     1      34.634 -15.634 -20.452  0.00  0.00    +0.253 C 
ENDBRANCH  15  20
BRANCH  18  22
ATOM     22  O   UNL     1      33.998 -17.210 -25.033  0.00  0.00    -0.470 OA
ATOM     23  C   UNL     1      33.834 -15.795 -25.000  0.00  0.00    +0.253 C 
ENDBRANCH  18  22
ENDBRANCH   2  14
BRANCH  10  25
ATOM     24  N   UNL     1      36.051 -25.174 -13.609  0.00  0.00    -0.190 NA
ATOM     25  C   UNL     1      36.116 -24.421 -14.498  0.00  0.00    +0.117 C 
ENDBRANCH  10  25
TORSDOF 4
ENDMDL
MODEL 2
REMARK VINA RESULT:      -8.6      6.962     10.982
REMARK  Name = 16122643
REMARK  4 active torsions:
REMARK  status: ('A' for Active; 'I' for Inactive)
REMARK    1  A    between atoms: N_2  and  C_14
REMARK    2  A    between atoms: C_10  and  C_25
REMARK    3  A    between atoms: C_15  and  O_20
REMARK    4  A    between atoms: C_18  and  O_22
REMARK                            x       y       z     vdW  Elec       q    Type
REMARK                         _______ _______ _______ _____ _____    ______ ____
ROOT
ATOM      1  O   UNL     1      32.500 -13.410 -22.971  0.00  0.00    -0.252 OA
ATOM      2  N   UNL     1      34.572 -13.931 -23.933  0.00  0.00    -0.266 N 
ATOM      3  N   UNL     1      33.929 -11.723 -23.735  0.00  0.00    -0.256 N 
ATOM      4  N   UNL     1      31.998 -10.654 -22.866  0.00  0.00    -0.251 NA
ATOM      5  N   UNL     1      33.136  -8.179 -23.535  0.00  0.00    -0.255 NA
ATOM      6  C   UNL     1      33.553 -13.054 -23.490  0.00  0.00    +0.309 C 
ATOM      7  C   UNL     1      33.199 -10.546 -23.447  0.00  0.00    +0.132 C 
ATOM      8  C   UNL     1      33.768  -9.344 -23.779  0.00  0.00    +0.186 C 
ATOM      9  C   UNL     1      31.366  -9.488 -22.621  0.00  0.00    +0.182 C 
ATOM     10  C   UNL     1      31.926  -8.273 -22.950  0.00  0.00    +0.147 C 
ATOM     11  H   UNL     1      35.362 -13.502 -24.330  0.00  0.00    +0.157 HD
ATOM     12  H   UNL     1      34.807 -11.594 -24.160  0.00  0.00    +0.158 HD
ENDROOT
BRANCH   2  14
ATOM     13 CL   UNL     1      35.285 -18.105 -21.087  0.00  0.00    -0.079 Cl
ATOM     14  C   UNL     1      34.603 -15.327 -23.878  0.00  0.00    +0.087 C 
ATOM     15  C   UNL     1      34.350 -16.089 -25.018  0.00  0.00    +0.155 C 
ATOM     16  C   UNL     1      34.891 -15.958 -22.667  0.00  0.00    +0.032 C 
ATOM     17  C   UNL     1      34.384 -17.481 -24.948  0.00  0.00    +0.076 C 
ATOM     18  C   UNL     1      34.672 -18.113 -23.738  0.00  0.00    +0.152 C 
ATOM     19  C   UNL     1      34.926 -17.350 -22.597  0.00  0.00    +0.093 C 
BRANCH  15  20
ATOM     20  O   UNL     1      34.066 -15.493 -26.210  0.00  0.00    -0.470 OA
ATOM     21  C   UNL     1      32.701 -15.162 -26.460  0.00  0.00    +0.253 C 
ENDBRANCH  15  20
BRANCH  18  22
ATOM     22  O   UNL     1      34.699 -19.475 -23.698  0.00  0.00    -0.470 OA
ATOM     23  C   UNL     1      34.924 -20.154 -24.931  0.00  0.00    +0.253 C 
ENDBRANCH  18  22
ENDBRANCH   2  14
BRANCH  10  25
ATOM     24  N   UNL     1      30.721  -6.026 -22.489  0.00  0.00    -0.190 NA
ATOM     25  C   UNL     1      31.264  -7.038 -22.697  0.00  0.00    +0.117 C 
ENDBRANCH  10  25
TORSDOF 4
ENDMDL
MODEL 3
REMARK VINA RESULT:      -8.4      7.756     10.315
REMARK  Name = 16122643
REMARK  4 active torsions:
REMARK  status: ('A' for Active; 'I' for Inactive)
REMARK    1  A    between atoms: N_2  and  C_14
REMARK    2  A    between atoms: C_10  and  C_25
REMARK    3  A    between atoms: C_15  and  O_20
REMARK    4  A    between atoms: C_18  and  O_22
REMARK                            x       y       z     vdW  Elec       q    Type
REMARK                         _______ _______ _______ _____ _____    ______ ____
ROOT
ATOM      1  O   UNL     1      33.755 -23.133 -15.477  0.00  0.00    -0.252 OA
ATOM      2  N   UNL     1      34.233 -24.896 -14.010  0.00  0.00    -0.266 N 
ATOM      3  N   UNL     1      32.042 -24.456 -14.590  0.00  0.00    -0.256 N 
ATOM      4  N   UNL     1      31.015 -22.844 -15.995  0.00  0.00    -0.251 NA
ATOM      5  N   UNL     1      28.522 -23.958 -15.354  0.00  0.00    -0.255 NA
ATOM      6  C   UNL     1      33.378 -24.061 -14.770  0.00  0.00    +0.309 C 
ATOM      7  C   UNL     1      30.882 -23.888 -15.167  0.00  0.00    +0.132 C 
ATOM      8  C   UNL     1      29.671 -24.442 -14.845  0.00  0.00    +0.186 C 
ATOM      9  C   UNL     1      29.864 -22.360 -16.506  0.00  0.00    +0.182 C 
ATOM     10  C   UNL     1      28.640 -22.907 -16.190  0.00  0.00    +0.147 C 
ATOM     11  H   UNL     1      33.788 -25.601 -13.489  0.00  0.00    +0.157 HD
ATOM     12  H   UNL     1      31.895 -25.222 -13.990  0.00  0.00    +0.158 HD
ENDROOT
BRANCH   2  14
ATOM     13 CL   UNL     1      38.296 -22.944 -11.622  0.00  0.00    -0.079 Cl
ATOM     14  C   UNL     1      35.625 -24.849 -13.903  0.00  0.00    +0.087 C 
ATOM     15  C   UNL     1      36.429 -25.615 -14.747  0.00  0.00    +0.155 C 
ATOM     16  C   UNL     1      36.210 -24.026 -12.940  0.00  0.00    +0.032 C 
ATOM     17  C   UNL     1      37.817 -25.558 -14.629  0.00  0.00    +0.076 C 
ATOM     18  C   UNL     1      38.403 -24.736 -13.666  0.00  0.00    +0.152 C 
ATOM     19  C   UNL     1      37.599 -23.970 -12.822  0.00  0.00    +0.093 C 
BRANCH  15  20
ATOM     20  O   UNL     1      35.877 -26.425 -15.694  0.00  0.00    -0.470 OA
ATOM     21  C   UNL     1      36.684 -27.495 -16.181  0.00  0.00    +0.253 C 
ENDBRANCH  15  20
BRANCH  18  22
ATOM     22  O   UNL     1      39.762 -24.700 -13.573  0.00  0.00    -0.470 OA
ATOM     23  C   UNL     1      40.487 -25.684 -14.306  0.00  0.00    +0.253 C 
ENDBRANCH  18  22
ENDBRANCH   2  14
BRANCH  10  25
ATOM     24  N   UNL     1      26.421 -21.986 -17.160  0.00  0.00    -0.190 NA
ATOM     25  C   UNL     1      27.421 -22.400 -16.723  0.00  0.00    +0.117 C 
ENDBRANCH  10  25
TORSDOF 4
ENDMDL
MODEL 4
REMARK VINA RESULT:      -8.3      7.103     10.014
REMARK  Name = 16122643
REMARK  4 active torsions:
REMARK  status: ('A' for Active; 'I' for Inactive)
REMARK    1  A    between atoms: N_2  and  C_14
REMARK    2  A    between atoms: C_10  and  C_25
REMARK    3  A    between atoms: C_15  and  O_20
REMARK    4  A    between atoms: C_18  and  O_22
REMARK                            x       y       z     vdW  Elec       q    Type
REMARK                         _______ _______ _______ _____ _____    ______ ____
ROOT
ATOM      1  O   UNL     1      34.059 -13.144 -22.609  0.00  0.00    -0.252 OA
ATOM      2  N   UNL     1      33.044 -11.723 -24.171  0.00  0.00    -0.266 N 
ATOM      3  N   UNL     1      33.408 -13.937 -24.711  0.00  0.00    -0.256 N 
ATOM      4  N   UNL     1      34.368 -15.768 -23.546  0.00  0.00    -0.251 NA
ATOM      5  N   UNL     1      33.878 -17.379 -25.789  0.00  0.00    -0.255 NA
ATOM      6  C   UNL     1      33.558 -12.960 -23.714  0.00  0.00    +0.309 C 
ATOM      7  C   UNL     1      33.790 -15.299 -24.659  0.00  0.00    +0.132 C 
ATOM      8  C   UNL     1      33.545 -16.073 -25.762  0.00  0.00    +0.186 C 
ATOM      9  C   UNL     1      34.700 -17.074 -23.573  0.00  0.00    +0.182 C 
ATOM     10  C   UNL     1      34.459 -17.865 -24.675  0.00  0.00    +0.147 C 
ATOM     11  H   UNL     1      32.672 -11.725 -25.081  0.00  0.00    +0.157 HD
ATOM     12  H   UNL     1      32.986 -13.638 -25.548  0.00  0.00    +0.158 HD
ENDROOT
BRANCH   2  14
ATOM     13 CL   UNL     1      35.034  -7.063 -23.582  0.00  0.00    -0.079 Cl
ATOM     14  C   UNL     1      32.995 -10.499 -23.500  0.00  0.00    +0.087 C 
ATOM     15  C   UNL     1      32.037 -10.266 -22.514  0.00  0.00    +0.155 C 
ATOM     16  C   UNL     1      33.918  -9.503 -23.824  0.00  0.00    +0.032 C 
ATOM     17  C   UNL     1      32.000  -9.039 -21.852  0.00  0.00    +0.076 C 
ATOM     18  C   UNL     1      32.922  -8.044 -22.176  0.00  0.00    +0.152 C 
ATOM     19  C   UNL     1      33.882  -8.276 -23.162  0.00  0.00    +0.093 C 
BRANCH  15  20
ATOM     20  O   UNL     1      31.126 -11.225 -22.182  0.00  0.00    -0.470 OA
ATOM     21  C   UNL     1      30.932 -11.480 -20.793  0.00  0.00    +0.253 C 
ENDBRANCH  15  20
BRANCH  18  22
ATOM     22  O   UNL     1      32.863  -6.853 -21.513  0.00  0.00    -0.470 OA
ATOM     23  C   UNL     1      31.742  -6.017 -21.783  0.00  0.00    +0.253 C 
ENDBRANCH  18  22
ENDBRANCH   2  14
BRANCH  10  25
ATOM     24  N   UNL     1      35.098 -20.375 -24.743  0.00  0.00    -0.190 NA
ATOM     25  C   UNL     1      34.810 -19.244 -24.712  0.00  0.00    +0.117 C 
ENDBRANCH  10  25
TORSDOF 4
ENDMDL
MODEL 5
REMARK VINA RESULT:      -8.2      6.415     10.973
REMARK  Name = 16122643
REMARK  4 active torsions:
REMARK  status: ('A' for Active; 'I' for Inactive)
REMARK    1  A    between atoms: N_2  and  C_14
REMARK    2  A    between atoms: C_10  and  C_25
REMARK    3  A    between atoms: C_15  and  O_20
REMARK    4  A    between atoms: C_18  and  O_22
REMARK                            x       y       z     vdW  Elec       q    Type
REMARK                         _______ _______ _______ _____ _____    ______ ____
ROOT
ATOM      1  O   UNL     1      32.424 -13.192 -22.790  0.00  0.00    -0.252 OA
ATOM      2  N   UNL     1      34.591 -13.923 -23.295  0.00  0.00    -0.266 N 
ATOM      3  N   UNL     1      34.063 -11.686 -23.505  0.00  0.00    -0.256 N 
ATOM      4  N   UNL     1      32.083 -10.432 -23.137  0.00  0.00    -0.251 NA
ATOM      5  N   UNL     1      33.470  -8.121 -23.912  0.00  0.00    -0.255 NA
ATOM      6  C   UNL     1      33.569 -12.953 -23.157  0.00  0.00    +0.309 C 
ATOM      7  C   UNL     1      33.370 -10.452 -23.506  0.00  0.00    +0.132 C 
ATOM      8  C   UNL     1      34.060  -9.332 -23.887  0.00  0.00    +0.186 C 
ATOM      9  C   UNL     1      31.493  -9.219 -23.162  0.00  0.00    +0.182 C 
ATOM     10  C   UNL     1      32.175  -8.085 -23.543  0.00  0.00    +0.147 C 
ATOM     11  H   UNL     1      35.463 -13.584 -23.600  0.00  0.00    +0.157 HD
ATOM     12  H   UNL     1      35.007 -11.651 -23.781  0.00  0.00    +0.158 HD
ENDROOT
BRANCH   2  14
ATOM     13 CL   UNL     1      34.709 -18.637 -25.240  0.00  0.00    -0.079 Cl
ATOM     14  C   UNL     1      34.526 -15.297 -23.053  0.00  0.00    +0.087 C 
ATOM     15  C   UNL     1      34.353 -15.785 -21.758  0.00  0.00    +0.155 C 
ATOM     16  C   UNL     1      34.634 -16.186 -24.124  0.00  0.00    +0.032 C 
ATOM     17  C   UNL     1      34.290 -17.159 -21.532  0.00  0.00    +0.076 C 
ATOM     18  C   UNL     1      34.399 -18.048 -22.602  0.00  0.00    +0.152 C 
ATOM     19  C   UNL     1      34.571 -17.561 -23.898  0.00  0.00    +0.093 C 
BRANCH  15  20
ATOM     20  O   UNL     1      34.245 -14.934 -20.699  0.00  0.00    -0.470 OA
ATOM     21  C   UNL     1      32.974 -14.858 -20.056  0.00  0.00    +0.253 C 
ENDBRANCH  15  20
BRANCH  18  22
ATOM     22  O   UNL     1      34.334 -19.387 -22.353  0.00  0.00    -0.470 OA
ATOM     23  C   UNL     1      33.687 -19.790 -21.148  0.00  0.00    +0.253 C 
ENDBRANCH  18  22
ENDBRANCH   2  14
BRANCH  10  25
ATOM     24  N   UNL     1      31.053  -5.750 -23.601  0.00  0.00    -0.190 NA
ATOM     25  C   UNL     1      31.558  -6.802 -23.575  0.00  0.00    +0.117 C 
ENDBRANCH  10  25
TORSDOF 4
ENDMDL
MODEL 6
REMARK VINA RESULT:      -8.2      7.375     10.249
REMARK  Name = 16122643
REMARK  4 active torsions:
REMARK  status: ('A' for Active; 'I' for Inactive)
REMARK    1  A    between atoms: N_2  and  C_14
REMARK    2  A    between atoms: C_10  and  C_25
REMARK    3  A    between atoms: C_15  and  O_20
REMARK    4  A    between atoms: C_18  and  O_22
REMARK                            x       y       z     vdW  Elec       q    Type
REMARK                         _______ _______ _______ _____ _____    ______ ____
ROOT
ATOM      1  O   UNL     1      33.916 -23.210 -15.481  0.00  0.00    -0.252 OA
ATOM      2  N   UNL     1      34.356 -24.724 -13.748  0.00  0.00    -0.266 N 
ATOM      3  N   UNL     1      32.175 -24.325 -14.388  0.00  0.00    -0.256 N 
ATOM      4  N   UNL     1      31.182 -22.935 -16.033  0.00  0.00    -0.251 NA
ATOM      5  N   UNL     1      28.664 -23.862 -15.216  0.00  0.00    -0.255 NA
ATOM      6  C   UNL     1      33.519 -24.001 -14.631  0.00  0.00    +0.309 C 
ATOM      7  C   UNL     1      31.027 -23.826 -15.047  0.00  0.00    +0.132 C 
ATOM      8  C   UNL     1      29.804 -24.288 -14.637  0.00  0.00    +0.186 C 
ATOM      9  C   UNL     1      30.042 -22.509 -16.614  0.00  0.00    +0.182 C 
ATOM     10  C   UNL     1      28.805 -22.964 -16.211  0.00  0.00    +0.147 C 
ATOM     11  H   UNL     1      33.897 -25.324 -13.118  0.00  0.00    +0.157 HD
ATOM     12  H   UNL     1      32.012 -24.979 -13.671  0.00  0.00    +0.158 HD
ENDROOT
BRANCH   2  14
ATOM     13 CL   UNL     1      38.805 -23.799 -16.067  0.00  0.00    -0.079 Cl
ATOM     14  C   UNL     1      35.750 -24.699 -13.653  0.00  0.00    +0.087 C 
ATOM     15  C   UNL     1      36.389 -25.056 -12.466  0.00  0.00    +0.155 C 
ATOM     16  C   UNL     1      36.505 -24.312 -14.761  0.00  0.00    +0.032 C 
ATOM     17  C   UNL     1      37.780 -25.026 -12.385  0.00  0.00    +0.076 C 
ATOM     18  C   UNL     1      38.535 -24.638 -13.493  0.00  0.00    +0.152 C 
ATOM     19  C   UNL     1      37.897 -24.281 -14.681  0.00  0.00    +0.093 C 
BRANCH  15  20
ATOM     20  O   UNL     1      35.670 -25.437 -11.372  0.00  0.00    -0.470 OA
ATOM     21  C   UNL     1      35.550 -24.488 -10.313  0.00  0.00    +0.253 C 
ENDBRANCH  15  20
BRANCH  18  22
ATOM     22  O   UNL     1      39.894 -24.618 -13.387  0.00  0.00    -0.470 OA
ATOM     23  C   UNL     1      40.604 -25.717 -13.952  0.00  0.00    +0.253 C 
ENDBRANCH  18  22
ENDBRANCH   2  14
BRANCH  10  25
ATOM     24  N   UNL     1      26.607 -22.150 -17.314  0.00  0.00    -0.190 NA
ATOM     25  C   UNL     1      27.597 -22.517 -16.817  0.00  0.00    +0.117 C 
ENDBRANCH  10  25
TORSDOF 4
ENDMDL
MODEL 7
REMARK VINA RESULT:      -8.1      7.495     12.057
REMARK  Name = 16122643
REMARK  4 active torsions:
REMARK  status: ('A' for Active; 'I' for Inactive)
REMARK    1  A    between atoms: N_2  and  C_14
REMARK    2  A    between atoms: C_10  and  C_25
REMARK    3  A    between atoms: C_15  and  O_20
REMARK    4  A    between atoms: C_18  and  O_22
REMARK                            x       y       z     vdW  Elec       q    Type
REMARK                         _______ _______ _______ _____ _____    ______ ____
ROOT
ATOM      1  O   UNL     1      32.167 -11.820 -22.686  0.00  0.00    -0.252 OA
ATOM      2  N   UNL     1      34.150 -12.457 -23.757  0.00  0.00    -0.266 N 
ATOM      3  N   UNL     1      33.551 -10.229 -23.697  0.00  0.00    -0.256 N 
ATOM      4  N   UNL     1      31.706  -9.057 -22.775  0.00  0.00    -0.251 NA
ATOM      5  N   UNL     1      32.818  -6.667 -23.734  0.00  0.00    -0.255 NA
ATOM      6  C   UNL     1      33.179 -11.528 -23.313  0.00  0.00    +0.309 C 
ATOM      7  C   UNL     1      32.860  -9.019 -23.453  0.00  0.00    +0.132 C 
ATOM      8  C   UNL     1      33.415  -7.859 -23.928  0.00  0.00    +0.186 C 
ATOM      9  C   UNL     1      31.109  -7.863 -22.581  0.00  0.00    +0.182 C 
ATOM     10  C   UNL     1      31.656  -6.690 -23.053  0.00  0.00    +0.147 C 
ATOM     11  H   UNL     1      34.912 -12.077 -24.249  0.00  0.00    +0.157 HD
ATOM     12  H   UNL     1      34.394 -10.152 -24.197  0.00  0.00    +0.158 HD
ENDROOT
BRANCH   2  14
ATOM     13 CL   UNL     1      34.936 -16.391 -20.606  0.00  0.00    -0.079 Cl
ATOM     14  C   UNL     1      34.169 -13.844 -23.588  0.00  0.00    +0.087 C 
ATOM     15  C   UNL     1      33.862 -14.694 -24.650  0.00  0.00    +0.155 C 
ATOM     16  C   UNL     1      34.500 -14.377 -22.341  0.00  0.00    +0.032 C 
ATOM     17  C   UNL     1      33.885 -16.076 -24.466  0.00  0.00    +0.076 C 
ATOM     18  C   UNL     1      34.215 -16.609 -23.220  0.00  0.00    +0.152 C 
ATOM     19  C   UNL     1      34.523 -15.759 -22.158  0.00  0.00    +0.093 C 
BRANCH  15  20
ATOM     20  O   UNL     1      33.536 -14.194 -25.875  0.00  0.00    -0.470 OA
ATOM     21  C   UNL     1      32.663 -14.980 -26.684  0.00  0.00    +0.253 C 
ENDBRANCH  15  20
BRANCH  18  22
ATOM     22  O   UNL     1      34.230 -17.964 -23.069  0.00  0.00    -0.470 OA
ATOM     23  C   UNL     1      34.965 -18.715 -24.032  0.00  0.00    +0.253 C 
ENDBRANCH  18  22
ENDBRANCH   2  14
BRANCH  10  25
ATOM     24  N   UNL     1      30.517  -4.391 -22.691  0.00  0.00    -0.190 NA
ATOM     25  C   UNL     1      31.030  -5.426 -22.854  0.00  0.00    +0.117 C 
ENDBRANCH  10  25
TORSDOF 4
ENDMDL
MODEL 8
REMARK VINA RESULT:      -8.1      4.924      7.162
REMARK  Name = 16122643
REMARK  4 active torsions:
REMARK  status: ('A' for Active; 'I' for Inactive)
REMARK    1  A    between atoms: N_2  and  C_14
REMARK    2  A    between atoms: C_10  and  C_25
REMARK    3  A    between atoms: C_15  and  O_20
REMARK    4  A    between atoms: C_18  and  O_22
REMARK                            x       y       z     vdW  Elec       q    Type
REMARK                         _______ _______ _______ _____ _____    ______ ____
ROOT
ATOM      1  O   UNL     1      35.018 -14.633 -22.183  0.00  0.00    -0.252 OA
ATOM      2  N   UNL     1      32.777 -13.996 -22.432  0.00  0.00    -0.266 N 
ATOM      3  N   UNL     1      33.285 -16.152 -21.783  0.00  0.00    -0.256 N 
ATOM      4  N   UNL     1      35.320 -17.304 -21.387  0.00  0.00    -0.251 NA
ATOM      5  N   UNL     1      33.834 -19.597 -20.754  0.00  0.00    -0.255 NA
ATOM      6  C   UNL     1      33.822 -14.904 -22.136  0.00  0.00    +0.309 C 
ATOM      7  C   UNL     1      33.982 -17.328 -21.418  0.00  0.00    +0.132 C 
ATOM      8  C   UNL     1      33.243 -18.440 -21.112  0.00  0.00    +0.186 C 
ATOM      9  C   UNL     1      35.912 -18.461 -21.028  0.00  0.00    +0.182 C 
ATOM     10  C   UNL     1      35.181 -19.588 -20.718  0.00  0.00    +0.147 C 
ATOM     11  H   UNL     1      31.865 -14.354 -22.351  0.00  0.00    +0.157 HD
ATOM     12  H   UNL     1      32.303 -16.216 -21.790  0.00  0.00    +0.158 HD
ENDROOT
BRANCH   2  14
ATOM     13 CL   UNL     1      34.983 -10.558 -25.488  0.00  0.00    -0.079 Cl
ATOM     14  C   UNL     1      32.871 -12.658 -22.823  0.00  0.00    +0.087 C 
ATOM     15  C   UNL     1      32.083 -11.682 -22.215  0.00  0.00    +0.155 C 
ATOM     16  C   UNL     1      33.765 -12.302 -23.835  0.00  0.00    +0.032 C 
ATOM     17  C   UNL     1      32.187 -10.350 -22.616  0.00  0.00    +0.076 C 
ATOM     18  C   UNL     1      33.081  -9.994 -23.627  0.00  0.00    +0.152 C 
ATOM     19  C   UNL     1      33.870 -10.970 -24.236  0.00  0.00    +0.093 C 
BRANCH  15  20
ATOM     20  O   UNL     1      31.204 -12.008 -21.226  0.00  0.00    -0.470 OA
ATOM     21  C   UNL     1      31.444 -11.450 -19.935  0.00  0.00    +0.253 C 
ENDBRANCH  15  20
BRANCH  18  22
ATOM     22  O   UNL     1      33.162  -8.685 -23.999  0.00  0.00    -0.470 OA
ATOM     23  C   UNL     1      34.015  -7.844 -23.227  0.00  0.00    +0.253 C 
ENDBRANCH  18  22
ENDBRANCH   2  14
BRANCH  10  25
ATOM     24  N   UNL     1      36.304 -21.819 -20.030  0.00  0.00    -0.190 NA
ATOM     25  C   UNL     1      35.798 -20.814 -20.340  0.00  0.00    +0.117 C 
ENDBRANCH  10  25
TORSDOF 4
ENDMDL
MODEL 9
REMARK VINA RESULT:      -8.0      4.454      6.383
REMARK  Name = 16122643
REMARK  4 active torsions:
REMARK  status: ('A' for Active; 'I' for Inactive)
REMARK    1  A    between atoms: N_2  and  C_14
REMARK    2  A    between atoms: C_10  and  C_25
REMARK    3  A    between atoms: C_15  and  O_20
REMARK    4  A    between atoms: C_18  and  O_22
REMARK                            x       y       z     vdW  Elec       q    Type
REMARK                         _______ _______ _______ _____ _____    ______ ____
ROOT
ATOM      1  O   UNL     1      32.063 -16.328 -21.060  0.00  0.00    -0.252 OA
ATOM      2  N   UNL     1      33.788 -14.919 -21.786  0.00  0.00    -0.266 N 
ATOM      3  N   UNL     1      34.252 -17.122 -21.277  0.00  0.00    -0.256 N 
ATOM      4  N   UNL     1      32.927 -18.939 -20.519  0.00  0.00    -0.251 NA
ATOM      5  N   UNL     1      35.225 -20.547 -20.533  0.00  0.00    -0.255 NA
ATOM      6  C   UNL     1      33.243 -16.148 -21.343  0.00  0.00    +0.309 C 
ATOM      7  C   UNL     1      34.130 -18.476 -20.882  0.00  0.00    +0.132 C 
ATOM      8  C   UNL     1      35.261 -19.249 -20.894  0.00  0.00    +0.186 C 
ATOM      9  C   UNL     1      32.892 -20.238 -20.159  0.00  0.00    +0.182 C 
ATOM     10  C   UNL     1      34.021 -21.027 -20.166  0.00  0.00    +0.147 C 
ATOM     11  H   UNL     1      34.753 -14.924 -21.977  0.00  0.00    +0.157 HD
ATOM     12  H   UNL     1      35.154 -16.828 -21.536  0.00  0.00    +0.158 HD
ENDROOT
BRANCH   2  14
ATOM     13 CL   UNL     1      30.928 -11.191 -19.800  0.00  0.00    -0.079 Cl
ATOM     14  C   UNL     1      33.136 -13.701 -21.990  0.00  0.00    +0.087 C 
ATOM     15  C   UNL     1      33.178 -13.071 -23.234  0.00  0.00    +0.155 C 
ATOM     16  C   UNL     1      32.438 -13.113 -20.934  0.00  0.00    +0.032 C 
ATOM     17  C   UNL     1      32.523 -11.855 -23.423  0.00  0.00    +0.076 C 
ATOM     18  C   UNL     1      31.825 -11.267 -22.367  0.00  0.00    +0.152 C 
ATOM     19  C   UNL     1      31.783 -11.896 -21.123  0.00  0.00    +0.093 C 
BRANCH  15  20
ATOM     20  O   UNL     1      33.854 -13.628 -24.278  0.00  0.00    -0.470 OA
ATOM     21  C   UNL     1      33.075 -14.268 -25.287  0.00  0.00    +0.253 C 
ENDBRANCH  15  20
BRANCH  18  22
ATOM     22  O   UNL     1      31.194 -10.077 -22.580  0.00  0.00    -0.470 OA
ATOM     23  C   UNL     1      31.952  -9.045 -23.204  0.00  0.00    +0.253 C 
ENDBRANCH  18  22
ENDBRANCH   2  14
BRANCH  10  25
ATOM     24  N   UNL     1      33.968 -23.523 -19.472  0.00  0.00    -0.190 NA
ATOM     25  C   UNL     1      33.992 -22.398 -19.784  0.00  0.00    +0.117 C 
ENDBRANCH  10  25
TORSDOF 4
ENDMDL
