MODEL 1
REMARK VINA RESULT:      -7.8      0.000      0.000
REMARK  Name = 7124
REMARK  2 active torsions:
REMARK  status: ('A' for Active; 'I' for Inactive)
REMARK    1  A    between atoms: CA_7  and  C_12
REMARK    2  A    between atoms: C_12  and  O_13
REMARK                            x       y       z     vdW  Elec       q    Type
REMARK                         _______ _______ _______ _____ _____    ______ ____
ROOT
ATOM      1  N   UNL     1      34.033 -18.607 -21.444  0.00  0.00    -0.399 NA
ATOM      2  C   UNL     1      35.523 -20.208 -20.431  0.00  0.00    +0.026 C 
ATOM      3  C   UNL     1      34.229 -19.727 -20.724  0.00  0.00    +0.114 C 
ATOM      4  C   UNL     1      36.621 -19.483 -20.913  0.00  0.00    +0.005 C 
ATOM      5  C   UNL     1      35.691 -21.381 -19.676  0.00  0.00    +0.002 C 
ATOM      6  C   UNL     1      33.139 -20.449 -20.244  0.00  0.00    +0.085 C 
ATOM      7  CA  UNL     1      35.119 -17.936 -21.891  0.00  0.00    +0.206 C 
ATOM      8  C   UNL     1      36.421 -18.328 -21.656  0.00  0.00    +0.039 C 
ATOM      9  C   UNL     1      34.582 -22.082 -19.209  0.00  0.00    -0.004 C 
ATOM     10  C   UNL     1      33.306 -21.616 -19.493  0.00  0.00    -0.019 C 
ENDROOT
BRANCH   7  12
ATOM     11  OXT UNL     1      33.841 -16.020 -22.540  0.00  0.00    -0.242 OA
ATOM     12  C   UNL     1      34.842 -16.736 -22.662  0.00  0.00    +0.368 C 
BRANCH  12  13
ATOM     13  O   UNL     1      35.822 -16.458 -23.564  0.00  0.00    -0.475 OA
ATOM     14  H   UNL     1      35.851 -16.915 -24.382  0.00  0.00    +0.295 HD
ENDBRANCH  12  13
ENDBRANCH   7  12
TORSDOF 2
ENDMDL
MODEL 2
REMARK VINA RESULT:      -7.7      6.740      8.200
REMARK  Name = 7124
REMARK  2 active torsions:
REMARK  status: ('A' for Active; 'I' for Inactive)
REMARK    1  A    between atoms: CA_7  and  C_12
REMARK    2  A    between atoms: C_12  and  O_13
REMARK                            x       y       z     vdW  Elec       q    Type
REMARK                         _______ _______ _______ _____ _____    ______ ____
ROOT
ATOM      1  N   UNL     1      30.453 -22.816 -17.142  0.00  0.00    -0.399 NA
ATOM      2  C   UNL     1      31.842 -23.183 -15.207  0.00  0.00    +0.026 C 
ATOM      3  C   UNL     1      31.670 -22.992 -16.594  0.00  0.00    +0.114 C 
ATOM      4  C   UNL     1      30.700 -23.186 -14.395  0.00  0.00    +0.005 C 
ATOM      5  C   UNL     1      33.128 -23.365 -14.669  0.00  0.00    +0.002 C 
ATOM      6  C   UNL     1      32.806 -22.990 -17.400  0.00  0.00    +0.085 C 
ATOM      7  CA  UNL     1      29.376 -22.824 -16.324  0.00  0.00    +0.206 C 
ATOM      8  C   UNL     1      29.445 -23.004 -14.957  0.00  0.00    +0.039 C 
ATOM      9  C   UNL     1      34.245 -23.359 -15.499  0.00  0.00    -0.004 C 
ATOM     10  C   UNL     1      34.084 -23.171 -16.865  0.00  0.00    -0.019 C 
ENDROOT
BRANCH   7  12
ATOM     11  OXT UNL     1      27.447 -21.573 -16.985  0.00  0.00    -0.242 OA
ATOM     12  C   UNL     1      28.092 -22.628 -16.974  0.00  0.00    +0.368 C 
BRANCH  12  13
ATOM     13  O   UNL     1      27.645 -23.754 -17.595  0.00  0.00    -0.475 OA
ATOM     14  H   UNL     1      28.193 -24.200 -18.210  0.00  0.00    +0.295 HD
ENDBRANCH  12  13
ENDBRANCH   7  12
TORSDOF 2
ENDMDL
MODEL 3
REMARK VINA RESULT:      -7.4      3.613      5.319
REMARK  Name = 7124
REMARK  2 active torsions:
REMARK  status: ('A' for Active; 'I' for Inactive)
REMARK    1  A    between atoms: CA_7  and  C_12
REMARK    2  A    between atoms: C_12  and  O_13
REMARK                            x       y       z     vdW  Elec       q    Type
REMARK                         _______ _______ _______ _____ _____    ______ ____
ROOT
ATOM      1  N   UNL     1      35.443 -21.084 -19.719  0.00  0.00    -0.399 NA
ATOM      2  C   UNL     1      34.178 -19.465 -20.980  0.00  0.00    +0.026 C 
ATOM      3  C   UNL     1      35.399 -20.024 -20.549  0.00  0.00    +0.114 C 
ATOM      4  C   UNL     1      32.988 -20.046 -20.519  0.00  0.00    +0.005 C 
ATOM      5  C   UNL     1      34.169 -18.359 -21.846  0.00  0.00    +0.002 C 
ATOM      6  C   UNL     1      36.581 -19.448 -21.008  0.00  0.00    +0.085 C 
ATOM      7  CA  UNL     1      34.273 -21.615 -19.297  0.00  0.00    +0.206 C 
ATOM      8  C   UNL     1      33.031 -21.137 -19.664  0.00  0.00    +0.039 C 
ATOM      9  C   UNL     1      35.366 -17.803 -22.289  0.00  0.00    -0.004 C 
ATOM     10  C   UNL     1      36.572 -18.347 -21.869  0.00  0.00    -0.019 C 
ENDROOT
BRANCH   7  12
ATOM     11  OXT UNL     1      34.986 -22.763 -17.323  0.00  0.00    -0.242 OA
ATOM     12  C   UNL     1      34.386 -22.755 -18.405  0.00  0.00    +0.368 C 
BRANCH  12  13
ATOM     13  O   UNL     1      33.748 -23.858 -18.884  0.00  0.00    -0.475 OA
ATOM     14  H   UNL     1      34.217 -24.661 -18.993  0.00  0.00    +0.295 HD
ENDBRANCH  12  13
ENDBRANCH   7  12
TORSDOF 2
ENDMDL
MODEL 4
REMARK VINA RESULT:      -7.4      3.781      5.311
REMARK  Name = 7124
REMARK  2 active torsions:
REMARK  status: ('A' for Active; 'I' for Inactive)
REMARK    1  A    between atoms: CA_7  and  C_12
REMARK    2  A    between atoms: C_12  and  O_13
REMARK                            x       y       z     vdW  Elec       q    Type
REMARK                         _______ _______ _______ _____ _____    ______ ____
ROOT
ATOM      1  N   UNL     1      33.852 -16.215 -25.891  0.00  0.00    -0.399 NA
ATOM      2  C   UNL     1      34.509 -16.403 -23.579  0.00  0.00    +0.026 C 
ATOM      3  C   UNL     1      34.294 -16.958 -24.858  0.00  0.00    +0.114 C 
ATOM      4  C   UNL     1      34.248 -15.038 -23.400  0.00  0.00    +0.005 C 
ATOM      5  C   UNL     1      34.971 -17.208 -22.524  0.00  0.00    +0.002 C 
ATOM      6  C   UNL     1      34.554 -18.314 -25.035  0.00  0.00    +0.085 C 
ATOM      7  CA  UNL     1      33.613 -14.901 -25.677  0.00  0.00    +0.206 C 
ATOM      8  C   UNL     1      33.793 -14.270 -24.462  0.00  0.00    +0.039 C 
ATOM      9  C   UNL     1      35.222 -18.562 -22.730  0.00  0.00    -0.004 C 
ATOM     10  C   UNL     1      35.013 -19.115 -23.986  0.00  0.00    -0.019 C 
ENDROOT
BRANCH   7  12
ATOM     11  OXT UNL     1      33.854 -13.664 -27.710  0.00  0.00    -0.242 OA
ATOM     12  C   UNL     1      33.138 -14.154 -26.828  0.00  0.00    +0.368 C 
BRANCH  12  13
ATOM     13  O   UNL     1      31.782 -14.037 -26.852  0.00  0.00    -0.475 OA
ATOM     14  H   UNL     1      31.248 -14.688 -26.442  0.00  0.00    +0.295 HD
ENDBRANCH  12  13
ENDBRANCH   7  12
TORSDOF 2
ENDMDL
MODEL 5
REMARK VINA RESULT:      -7.3      1.254      2.238
REMARK  Name = 7124
REMARK  2 active torsions:
REMARK  status: ('A' for Active; 'I' for Inactive)
REMARK    1  A    between atoms: CA_7  and  C_12
REMARK    2  A    between atoms: C_12  and  O_13
REMARK                            x       y       z     vdW  Elec       q    Type
REMARK                         _______ _______ _______ _____ _____    ______ ____
ROOT
ATOM      1  N   UNL     1      35.707 -19.520 -20.761  0.00  0.00    -0.399 NA
ATOM      2  C   UNL     1      33.827 -20.796 -19.956  0.00  0.00    +0.026 C 
ATOM      3  C   UNL     1      35.207 -20.503 -19.988  0.00  0.00    +0.114 C 
ATOM      4  C   UNL     1      32.972 -20.031 -20.760  0.00  0.00    +0.005 C 
ATOM      5  C   UNL     1      33.339 -21.828 -19.137  0.00  0.00    +0.002 C 
ATOM      6  C   UNL     1      36.056 -21.263 -19.189  0.00  0.00    +0.085 C 
ATOM      7  CA  UNL     1      34.848 -18.805 -21.522  0.00  0.00    +0.206 C 
ATOM      8  C   UNL     1      33.485 -19.018 -21.558  0.00  0.00    +0.039 C 
ATOM      9  C   UNL     1      34.212 -22.573 -18.348  0.00  0.00    -0.004 C 
ATOM     10  C   UNL     1      35.571 -22.290 -18.374  0.00  0.00    -0.019 C 
ENDROOT
BRANCH   7  12
ATOM     11  OXT UNL     1      35.272 -16.546 -22.185  0.00  0.00    -0.242 OA
ATOM     12  C   UNL     1      35.448 -17.761 -22.334  0.00  0.00    +0.368 C 
BRANCH  12  13
ATOM     13  O   UNL     1      36.255 -18.258 -23.311  0.00  0.00    -0.475 OA
ATOM     14  H   UNL     1      36.664 -17.677 -23.922  0.00  0.00    +0.295 HD
ENDBRANCH  12  13
ENDBRANCH   7  12
TORSDOF 2
ENDMDL
MODEL 6
REMARK VINA RESULT:      -7.2      2.614      5.100
REMARK  Name = 7124
REMARK  2 active torsions:
REMARK  status: ('A' for Active; 'I' for Inactive)
REMARK    1  A    between atoms: CA_7  and  C_12
REMARK    2  A    between atoms: C_12  and  O_13
REMARK                            x       y       z     vdW  Elec       q    Type
REMARK                         _______ _______ _______ _____ _____    ______ ____
ROOT
ATOM      1  N   UNL     1      35.054 -17.681 -20.883  0.00  0.00    -0.399 NA
ATOM      2  C   UNL     1      34.664 -16.817 -23.100  0.00  0.00    +0.026 C 
ATOM      3  C   UNL     1      34.774 -16.650 -21.703  0.00  0.00    +0.114 C 
ATOM      4  C   UNL     1      34.857 -18.102 -23.627  0.00  0.00    +0.005 C 
ATOM      5  C   UNL     1      34.370 -15.720 -23.926  0.00  0.00    +0.002 C 
ATOM      6  C   UNL     1      34.582 -15.374 -21.180  0.00  0.00    +0.085 C 
ATOM      7  CA  UNL     1      35.233 -18.904 -21.431  0.00  0.00    +0.206 C 
ATOM      8  C   UNL     1      35.146 -19.165 -22.784  0.00  0.00    +0.039 C 
ATOM      9  C   UNL     1      34.184 -14.455 -23.376  0.00  0.00    -0.004 C 
ATOM     10  C   UNL     1      34.290 -14.281 -22.002  0.00  0.00    -0.019 C 
ENDROOT
BRANCH   7  12
ATOM     11  OXT UNL     1      34.773 -20.904 -20.202  0.00  0.00    -0.242 OA
ATOM     12  C   UNL     1      35.533 -19.973 -20.496  0.00  0.00    +0.368 C 
BRANCH  12  13
ATOM     13  O   UNL     1      36.775 -19.857 -19.951  0.00  0.00    -0.475 OA
ATOM     14  H   UNL     1      37.018 -19.072 -19.500  0.00  0.00    +0.295 HD
ENDBRANCH  12  13
ENDBRANCH   7  12
TORSDOF 2
ENDMDL
MODEL 7
REMARK VINA RESULT:      -7.2      3.811      5.378
REMARK  Name = 7124
REMARK  2 active torsions:
REMARK  status: ('A' for Active; 'I' for Inactive)
REMARK    1  A    between atoms: CA_7  and  C_12
REMARK    2  A    between atoms: C_12  and  O_13
REMARK                            x       y       z     vdW  Elec       q    Type
REMARK                         _______ _______ _______ _____ _____    ______ ____
ROOT
ATOM      1  N   UNL     1      34.371 -14.740 -23.223  0.00  0.00    -0.399 NA
ATOM      2  C   UNL     1      34.167 -16.557 -24.793  0.00  0.00    +0.026 C 
ATOM      3  C   UNL     1      34.594 -16.025 -23.559  0.00  0.00    +0.114 C 
ATOM      4  C   UNL     1      33.493 -15.706 -25.680  0.00  0.00    +0.005 C 
ATOM      5  C   UNL     1      34.417 -17.902 -25.111  0.00  0.00    +0.002 C 
ATOM      6  C   UNL     1      35.264 -16.870 -22.678  0.00  0.00    +0.085 C 
ATOM      7  CA  UNL     1      33.717 -13.952 -24.106  0.00  0.00    +0.206 C 
ATOM      8  C   UNL     1      33.262 -14.382 -25.337  0.00  0.00    +0.039 C 
ATOM      9  C   UNL     1      35.089 -18.725 -24.212  0.00  0.00    -0.004 C 
ATOM     10  C   UNL     1      35.513 -18.209 -22.994  0.00  0.00    -0.019 C 
ENDROOT
BRANCH   7  12
ATOM     11  OXT UNL     1      32.611 -12.189 -22.928  0.00  0.00    -0.242 OA
ATOM     12  C   UNL     1      33.507 -12.578 -23.687  0.00  0.00    +0.368 C 
BRANCH  12  13
ATOM     13  O   UNL     1      34.420 -11.722 -24.223  0.00  0.00    -0.475 OA
ATOM     14  H   UNL     1      34.458 -10.833 -23.931  0.00  0.00    +0.295 HD
ENDBRANCH  12  13
ENDBRANCH   7  12
TORSDOF 2
ENDMDL
MODEL 8
REMARK VINA RESULT:      -7.2      3.126      5.912
REMARK  Name = 7124
REMARK  2 active torsions:
REMARK  status: ('A' for Active; 'I' for Inactive)
REMARK    1  A    between atoms: CA_7  and  C_12
REMARK    2  A    between atoms: C_12  and  O_13
REMARK                            x       y       z     vdW  Elec       q    Type
REMARK                         _______ _______ _______ _____ _____    ______ ____
ROOT
ATOM      1  N   UNL     1      35.075 -16.263 -22.624  0.00  0.00    -0.399 NA
ATOM      2  C   UNL     1      34.081 -16.164 -24.818  0.00  0.00    +0.026 C 
ATOM      3  C   UNL     1      34.419 -15.578 -23.580  0.00  0.00    +0.114 C 
ATOM      4  C   UNL     1      34.447 -17.499 -25.037  0.00  0.00    +0.005 C 
ATOM      5  C   UNL     1      33.397 -15.419 -25.793  0.00  0.00    +0.002 C 
ATOM      6  C   UNL     1      34.056 -14.251 -23.363  0.00  0.00    +0.085 C 
ATOM      7  CA  UNL     1      35.410 -17.549 -22.875  0.00  0.00    +0.206 C 
ATOM      8  C   UNL     1      35.122 -18.208 -24.053  0.00  0.00    +0.039 C 
ATOM      9  C   UNL     1      33.046 -14.095 -25.549  0.00  0.00    -0.004 C 
ATOM     10  C   UNL     1      33.375 -13.510 -24.334  0.00  0.00    -0.019 C 
ENDROOT
BRANCH   7  12
ATOM     11  OXT UNL     1      35.631 -18.541 -20.709  0.00  0.00    -0.242 OA
ATOM     12  C   UNL     1      36.114 -18.234 -21.805  0.00  0.00    +0.368 C 
BRANCH  12  13
ATOM     13  O   UNL     1      37.404 -18.522 -22.131  0.00  0.00    -0.475 OA
ATOM     14  H   UNL     1      38.016 -17.828 -22.283  0.00  0.00    +0.295 HD
ENDBRANCH  12  13
ENDBRANCH   7  12
TORSDOF 2
ENDMDL
MODEL 9
REMARK VINA RESULT:      -7.2      3.655      4.800
REMARK  Name = 7124
REMARK  2 active torsions:
REMARK  status: ('A' for Active; 'I' for Inactive)
REMARK    1  A    between atoms: CA_7  and  C_12
REMARK    2  A    between atoms: C_12  and  O_13
REMARK                            x       y       z     vdW  Elec       q    Type
REMARK                         _______ _______ _______ _____ _____    ______ ____
ROOT
ATOM      1  N   UNL     1      33.900 -14.970 -24.206  0.00  0.00    -0.399 NA
ATOM      2  C   UNL     1      34.671 -16.741 -22.765  0.00  0.00    +0.026 C 
ATOM      3  C   UNL     1      34.276 -16.251 -24.026  0.00  0.00    +0.114 C 
ATOM      4  C   UNL     1      34.666 -15.853 -21.680  0.00  0.00    +0.005 C 
ATOM      5  C   UNL     1      35.057 -18.084 -22.614  0.00  0.00    +0.002 C 
ATOM      6  C   UNL     1      34.282 -17.133 -25.103  0.00  0.00    +0.085 C 
ATOM      7  CA  UNL     1      33.909 -14.145 -23.134  0.00  0.00    +0.206 C 
ATOM      8  C   UNL     1      34.280 -14.533 -21.862  0.00  0.00    +0.039 C 
ATOM      9  C   UNL     1      35.053 -18.944 -23.708  0.00  0.00    -0.004 C 
ATOM     10  C   UNL     1      34.665 -18.469 -24.953  0.00  0.00    -0.019 C 
ENDROOT
BRANCH   7  12
ATOM     11  OXT UNL     1      32.522 -12.213 -22.876  0.00  0.00    -0.242 OA
ATOM     12  C   UNL     1      33.494 -12.777 -23.391  0.00  0.00    +0.368 C 
BRANCH  12  13
ATOM     13  O   UNL     1      34.304 -12.145 -24.285  0.00  0.00    -0.475 OA
ATOM     14  H   UNL     1      34.858 -12.646 -24.851  0.00  0.00    +0.295 HD
ENDBRANCH  12  13
ENDBRANCH   7  12
TORSDOF 2
ENDMDL
