MODEL 1
REMARK VINA RESULT:      -8.1      0.000      0.000
REMARK  Name = 3149
REMARK  15 active torsions:
REMARK  status: ('A' for Active; 'I' for Inactive)
REMARK    1  A    between atoms: N_1  and  C_4
REMARK    2  A    between atoms: N_1  and  C_16
REMARK    3  A    between atoms: C_4  and  C_5
REMARK    4  A    between atoms: C_5  and  C_6
REMARK    5  A    between atoms: C_6  and  C_7
REMARK    6  A    between atoms: C_7  and  C_8
REMARK    7  A    between atoms: C_8  and  C_9
REMARK    8  A    between atoms: C_9  and  C_10
REMARK    9  A    between atoms: C_10  and  C_11
REMARK   10  A    between atoms: C_11  and  C_12
REMARK   11  A    between atoms: C_12  and  C_13
REMARK   12  A    between atoms: C_13  and  C_14
REMARK   13  A    between atoms: C_16  and  C_17
REMARK   14  A    between atoms: C_17  and  O_18
REMARK   15  A    between atoms: O_18  and  C_19
REMARK                            x       y       z     vdW  Elec       q    Type
REMARK                         _______ _______ _______ _____ _____    ______ ____
ROOT
ATOM      1  N   UNL     1      33.939 -15.355 -21.897  0.00  0.00    +0.390 N 
ATOM      2  C   UNL     1      34.723 -14.528 -20.867  0.00  0.00    -0.096 C 
ATOM      3  C   UNL     1      34.840 -15.563 -23.123  0.00  0.00    -0.096 C 
ENDROOT
BRANCH   1   4
ATOM      4  C   UNL     1      32.680 -14.670 -22.275  0.00  0.00    -0.073 C 
BRANCH   4   5
ATOM      5  C   UNL     1      32.323 -13.599 -21.253  0.00  0.00    -0.022 C 
BRANCH   5   6
ATOM      6  C   UNL     1      31.865 -12.254 -21.829  0.00  0.00    -0.002 C 
BRANCH   6   7
ATOM      7  C   UNL     1      30.886 -11.457 -20.962  0.00  0.00    -0.000 C 
BRANCH   7   8
ATOM      8  C   UNL     1      31.413 -11.171 -19.554  0.00  0.00    -0.000 C 
BRANCH   8   9
ATOM      9  C   UNL     1      31.654  -9.673 -19.347  0.00  0.00    -0.000 C 
BRANCH   9  10
ATOM     10  C   UNL     1      32.411  -9.013 -20.503  0.00  0.00    +0.000 C 
BRANCH  10  11
ATOM     11  C   UNL     1      32.326  -7.487 -20.493  0.00  0.00    +0.000 C 
BRANCH  11  12
ATOM     12  C   UNL     1      32.546  -6.910 -21.894  0.00  0.00    +0.000 C 
BRANCH  12  13
ATOM     13  C   UNL     1      33.111  -7.965 -22.847  0.00  0.00    +0.000 C 
BRANCH  13  14
ATOM     14  C   UNL     1      34.528  -7.606 -23.296  0.00  0.00    +0.000 C 
ATOM     15  C   UNL     1      34.518  -6.825 -24.600  0.00  0.00    +0.000 C 
ENDBRANCH  13  14
ENDBRANCH  12  13
ENDBRANCH  11  12
ENDBRANCH  10  11
ENDBRANCH   9  10
ENDBRANCH   8   9
ENDBRANCH   7   8
ENDBRANCH   6   7
ENDBRANCH   5   6
ENDBRANCH   4   5
ENDBRANCH   1   4
BRANCH   1  16
ATOM     16  C   UNL     1      33.650 -16.731 -21.281  0.00  0.00    -0.025 C 
BRANCH  16  17
ATOM     17  C   UNL     1      34.947 -17.512 -21.171  0.00  0.00    +0.183 C 
BRANCH  17  18
ATOM     18  O   UNL     1      34.772 -18.805 -21.734  0.00  0.00    -0.478 OA
BRANCH  18  19
ATOM     19  C   UNL     1      34.684 -19.854 -20.856  0.00  0.00    +0.138 C 
ATOM     20  C   UNL     1      33.434 -20.328 -20.457  0.00  0.00    +0.037 C 
ATOM     21  C   UNL     1      35.846 -20.447 -20.361  0.00  0.00    +0.037 C 
ATOM     22  C   UNL     1      33.346 -21.395 -19.563  0.00  0.00    +0.003 C 
ATOM     23  C   UNL     1      35.758 -21.514 -19.466  0.00  0.00    +0.003 C 
ATOM     24  C   UNL     1      34.507 -21.988 -19.068  0.00  0.00    +0.000 C 
ENDBRANCH  18  19
ENDBRANCH  17  18
ENDBRANCH  16  17
ENDBRANCH   1  16
TORSDOF 15
ENDMDL
MODEL 2
REMARK VINA RESULT:      -8.0      6.193     10.906
REMARK  Name = 3149
REMARK  15 active torsions:
REMARK  status: ('A' for Active; 'I' for Inactive)
REMARK    1  A    between atoms: N_1  and  C_4
REMARK    2  A    between atoms: N_1  and  C_16
REMARK    3  A    between atoms: C_4  and  C_5
REMARK    4  A    between atoms: C_5  and  C_6
REMARK    5  A    between atoms: C_6  and  C_7
REMARK    6  A    between atoms: C_7  and  C_8
REMARK    7  A    between atoms: C_8  and  C_9
REMARK    8  A    between atoms: C_9  and  C_10
REMARK    9  A    between atoms: C_10  and  C_11
REMARK   10  A    between atoms: C_11  and  C_12
REMARK   11  A    between atoms: C_12  and  C_13
REMARK   12  A    between atoms: C_13  and  C_14
REMARK   13  A    between atoms: C_16  and  C_17
REMARK   14  A    between atoms: C_17  and  O_18
REMARK   15  A    between atoms: O_18  and  C_19
REMARK                            x       y       z     vdW  Elec       q    Type
REMARK                         _______ _______ _______ _____ _____    ______ ____
ROOT
ATOM      1  N   UNL     1      36.930 -24.810 -13.706  0.00  0.00    +0.390 N 
ATOM      2  C   UNL     1      38.070 -25.657 -13.121  0.00  0.00    -0.096 C 
ATOM      3  C   UNL     1      36.384 -25.537 -14.944  0.00  0.00    -0.096 C 
ENDROOT
BRANCH   1   4
ATOM      4  C   UNL     1      37.409 -23.452 -14.058  0.00  0.00    -0.073 C 
BRANCH   4   5
ATOM      5  C   UNL     1      37.719 -23.362 -15.546  0.00  0.00    -0.022 C 
BRANCH   5   6
ATOM      6  C   UNL     1      37.305 -22.056 -16.236  0.00  0.00    -0.002 C 
BRANCH   6   7
ATOM      7  C   UNL     1      36.297 -22.197 -17.380  0.00  0.00    -0.000 C 
BRANCH   7   8
ATOM      8  C   UNL     1      36.532 -21.208 -18.525  0.00  0.00    -0.000 C 
BRANCH   8   9
ATOM      9  C   UNL     1      35.675 -21.562 -19.744  0.00  0.00    -0.000 C 
BRANCH   9  10
ATOM     10  C   UNL     1      34.173 -21.575 -19.450  0.00  0.00    +0.000 C 
BRANCH  10  11
ATOM     11  C   UNL     1      33.396 -20.497 -20.205  0.00  0.00    +0.000 C 
BRANCH  11  12
ATOM     12  C   UNL     1      34.271 -19.824 -21.266  0.00  0.00    +0.000 C 
BRANCH  12  13
ATOM     13  C   UNL     1      33.924 -18.341 -21.414  0.00  0.00    +0.000 C 
BRANCH  13  14
ATOM     14  C   UNL     1      35.138 -17.455 -21.134  0.00  0.00    +0.000 C 
ATOM     15  C   UNL     1      34.723 -16.028 -20.815  0.00  0.00    +0.000 C 
ENDBRANCH  13  14
ENDBRANCH  12  13
ENDBRANCH  11  12
ENDBRANCH  10  11
ENDBRANCH   9  10
ENDBRANCH   8   9
ENDBRANCH   7   8
ENDBRANCH   6   7
ENDBRANCH   5   6
ENDBRANCH   4   5
ENDBRANCH   1   4
BRANCH   1  16
ATOM     16  C   UNL     1      35.806 -24.741 -12.662  0.00  0.00    -0.025 C 
BRANCH  16  17
ATOM     17  C   UNL     1      34.775 -23.718 -13.104  0.00  0.00    +0.183 C 
BRANCH  17  18
ATOM     18  O   UNL     1      33.508 -24.347 -13.233  0.00  0.00    -0.478 OA
BRANCH  18  19
ATOM     19  C   UNL     1      32.707 -23.915 -14.259  0.00  0.00    +0.138 C 
ATOM     20  C   UNL     1      31.334 -23.767 -14.058  0.00  0.00    +0.037 C 
ATOM     21  C   UNL     1      33.265 -23.624 -15.504  0.00  0.00    +0.037 C 
ATOM     22  C   UNL     1      30.520 -23.327 -15.102  0.00  0.00    +0.003 C 
ATOM     23  C   UNL     1      32.451 -23.186 -16.549  0.00  0.00    +0.003 C 
ATOM     24  C   UNL     1      31.078 -23.037 -16.347  0.00  0.00    +0.000 C 
ENDBRANCH  18  19
ENDBRANCH  17  18
ENDBRANCH  16  17
ENDBRANCH   1  16
TORSDOF 15
ENDMDL
MODEL 3
REMARK VINA RESULT:      -8.0      0.927      1.487
REMARK  Name = 3149
REMARK  15 active torsions:
REMARK  status: ('A' for Active; 'I' for Inactive)
REMARK    1  A    between atoms: N_1  and  C_4
REMARK    2  A    between atoms: N_1  and  C_16
REMARK    3  A    between atoms: C_4  and  C_5
REMARK    4  A    between atoms: C_5  and  C_6
REMARK    5  A    between atoms: C_6  and  C_7
REMARK    6  A    between atoms: C_7  and  C_8
REMARK    7  A    between atoms: C_8  and  C_9
REMARK    8  A    between atoms: C_9  and  C_10
REMARK    9  A    between atoms: C_10  and  C_11
REMARK   10  A    between atoms: C_11  and  C_12
REMARK   11  A    between atoms: C_12  and  C_13
REMARK   12  A    between atoms: C_13  and  C_14
REMARK   13  A    between atoms: C_16  and  C_17
REMARK   14  A    between atoms: C_17  and  O_18
REMARK   15  A    between atoms: O_18  and  C_19
REMARK                            x       y       z     vdW  Elec       q    Type
REMARK                         _______ _______ _______ _____ _____    ______ ____
ROOT
ATOM      1  N   UNL     1      33.360 -15.227 -21.438  0.00  0.00    +0.390 N 
ATOM      2  C   UNL     1      32.290 -16.061 -20.717  0.00  0.00    -0.096 C 
ATOM      3  C   UNL     1      34.536 -15.026 -20.471  0.00  0.00    -0.096 C 
ENDROOT
BRANCH   1   4
ATOM      4  C   UNL     1      32.806 -13.923 -21.876  0.00  0.00    -0.073 C 
BRANCH   4   5
ATOM      5  C   UNL     1      32.260 -13.145 -20.686  0.00  0.00    -0.022 C 
BRANCH   5   6
ATOM      6  C   UNL     1      31.627 -11.787 -21.011  0.00  0.00    -0.002 C 
BRANCH   6   7
ATOM      7  C   UNL     1      31.056 -11.015 -19.818  0.00  0.00    -0.000 C 
BRANCH   7   8
ATOM      8  C   UNL     1      31.827  -9.733 -19.495  0.00  0.00    -0.000 C 
BRANCH   8   9
ATOM      9  C   UNL     1      32.111  -8.926 -20.765  0.00  0.00    -0.000 C 
BRANCH   9  10
ATOM     10  C   UNL     1      32.502  -7.471 -20.487  0.00  0.00    +0.000 C 
BRANCH  10  11
ATOM     11  C   UNL     1      32.483  -6.588 -21.735  0.00  0.00    +0.000 C 
BRANCH  11  12
ATOM     12  C   UNL     1      32.668  -7.420 -23.006  0.00  0.00    +0.000 C 
BRANCH  12  13
ATOM     13  C   UNL     1      34.015  -7.127 -23.672  0.00  0.00    +0.000 C 
BRANCH  13  14
ATOM     14  C   UNL     1      34.839  -8.403 -23.844  0.00  0.00    +0.000 C 
ATOM     15  C   UNL     1      33.953  -9.638 -23.877  0.00  0.00    +0.000 C 
ENDBRANCH  13  14
ENDBRANCH  12  13
ENDBRANCH  11  12
ENDBRANCH  10  11
ENDBRANCH   9  10
ENDBRANCH   8   9
ENDBRANCH   7   8
ENDBRANCH   6   7
ENDBRANCH   5   6
ENDBRANCH   4   5
ENDBRANCH   1   4
BRANCH   1  16
ATOM     16  C   UNL     1      33.866 -16.038 -22.639  0.00  0.00    -0.025 C 
BRANCH  16  17
ATOM     17  C   UNL     1      34.912 -17.031 -22.166  0.00  0.00    +0.183 C 
BRANCH  17  18
ATOM     18  O   UNL     1      34.541 -18.341 -22.573  0.00  0.00    -0.478 OA
BRANCH  18  19
ATOM     19  C   UNL     1      34.483 -19.299 -21.593  0.00  0.00    +0.138 C 
ATOM     20  C   UNL     1      33.252 -19.678 -21.059  0.00  0.00    +0.037 C 
ATOM     21  C   UNL     1      35.658 -19.893 -21.130  0.00  0.00    +0.037 C 
ATOM     22  C   UNL     1      33.194 -20.652 -20.062  0.00  0.00    +0.003 C 
ATOM     23  C   UNL     1      35.600 -20.866 -20.132  0.00  0.00    +0.003 C 
ATOM     24  C   UNL     1      34.367 -21.246 -19.599  0.00  0.00    +0.000 C 
ENDBRANCH  18  19
ENDBRANCH  17  18
ENDBRANCH  16  17
ENDBRANCH   1  16
TORSDOF 15
ENDMDL
MODEL 4
REMARK VINA RESULT:      -8.0      1.402      2.998
REMARK  Name = 3149
REMARK  15 active torsions:
REMARK  status: ('A' for Active; 'I' for Inactive)
REMARK    1  A    between atoms: N_1  and  C_4
REMARK    2  A    between atoms: N_1  and  C_16
REMARK    3  A    between atoms: C_4  and  C_5
REMARK    4  A    between atoms: C_5  and  C_6
REMARK    5  A    between atoms: C_6  and  C_7
REMARK    6  A    between atoms: C_7  and  C_8
REMARK    7  A    between atoms: C_8  and  C_9
REMARK    8  A    between atoms: C_9  and  C_10
REMARK    9  A    between atoms: C_10  and  C_11
REMARK   10  A    between atoms: C_11  and  C_12
REMARK   11  A    between atoms: C_12  and  C_13
REMARK   12  A    between atoms: C_13  and  C_14
REMARK   13  A    between atoms: C_16  and  C_17
REMARK   14  A    between atoms: C_17  and  O_18
REMARK   15  A    between atoms: O_18  and  C_19
REMARK                            x       y       z     vdW  Elec       q    Type
REMARK                         _______ _______ _______ _____ _____    ______ ____
ROOT
ATOM      1  N   UNL     1      33.421 -15.176 -21.741  0.00  0.00    +0.390 N 
ATOM      2  C   UNL     1      32.390 -15.982 -20.938  0.00  0.00    -0.096 C 
ATOM      3  C   UNL     1      34.470 -14.634 -20.759  0.00  0.00    -0.096 C 
ENDROOT
BRANCH   1   4
ATOM      4  C   UNL     1      32.767 -14.070 -22.480  0.00  0.00    -0.073 C 
BRANCH   4   5
ATOM      5  C   UNL     1      33.770 -13.358 -23.379  0.00  0.00    -0.022 C 
BRANCH   5   6
ATOM      6  C   UNL     1      33.320 -12.004 -23.940  0.00  0.00    -0.002 C 
BRANCH   6   7
ATOM      7  C   UNL     1      34.339 -11.276 -24.821  0.00  0.00    -0.000 C 
BRANCH   7   8
ATOM      8  C   UNL     1      34.657  -9.857 -24.341  0.00  0.00    -0.000 C 
BRANCH   8   9
ATOM      9  C   UNL     1      33.535  -9.310 -23.454  0.00  0.00    -0.000 C 
BRANCH   9  10
ATOM     10  C   UNL     1      33.848  -7.937 -22.853  0.00  0.00    +0.000 C 
BRANCH  10  11
ATOM     11  C   UNL     1      33.063  -7.638 -21.576  0.00  0.00    +0.000 C 
BRANCH  11  12
ATOM     12  C   UNL     1      31.929  -8.647 -21.375  0.00  0.00    +0.000 C 
BRANCH  12  13
ATOM     13  C   UNL     1      31.969  -9.257 -19.972  0.00  0.00    +0.000 C 
BRANCH  13  14
ATOM     14  C   UNL     1      31.736 -10.767 -20.015  0.00  0.00    +0.000 C 
ATOM     15  C   UNL     1      30.823 -11.156 -21.167  0.00  0.00    +0.000 C 
ENDBRANCH  13  14
ENDBRANCH  12  13
ENDBRANCH  11  12
ENDBRANCH  10  11
ENDBRANCH   9  10
ENDBRANCH   8   9
ENDBRANCH   7   8
ENDBRANCH   6   7
ENDBRANCH   5   6
ENDBRANCH   4   5
ENDBRANCH   1   4
BRANCH   1  16
ATOM     16  C   UNL     1      34.128 -16.137 -22.707  0.00  0.00    -0.025 C 
BRANCH  16  17
ATOM     17  C   UNL     1      34.821 -17.227 -21.910  0.00  0.00    +0.183 C 
BRANCH  17  18
ATOM     18  O   UNL     1      34.322 -18.497 -22.308  0.00  0.00    -0.478 OA
BRANCH  18  19
ATOM     19  C   UNL     1      34.301 -19.479 -21.352  0.00  0.00    +0.138 C 
ATOM     20  C   UNL     1      33.088 -19.883 -20.793  0.00  0.00    +0.037 C 
ATOM     21  C   UNL     1      35.493 -20.073 -20.937  0.00  0.00    +0.037 C 
ATOM     22  C   UNL     1      33.068 -20.883 -19.820  0.00  0.00    +0.003 C 
ATOM     23  C   UNL     1      35.472 -21.072 -19.963  0.00  0.00    +0.003 C 
ATOM     24  C   UNL     1      34.259 -21.477 -19.405  0.00  0.00    +0.000 C 
ENDBRANCH  18  19
ENDBRANCH  17  18
ENDBRANCH  16  17
ENDBRANCH   1  16
TORSDOF 15
ENDMDL
MODEL 5
REMARK VINA RESULT:      -8.0      7.064     10.471
REMARK  Name = 3149
REMARK  15 active torsions:
REMARK  status: ('A' for Active; 'I' for Inactive)
REMARK    1  A    between atoms: N_1  and  C_4
REMARK    2  A    between atoms: N_1  and  C_16
REMARK    3  A    between atoms: C_4  and  C_5
REMARK    4  A    between atoms: C_5  and  C_6
REMARK    5  A    between atoms: C_6  and  C_7
REMARK    6  A    between atoms: C_7  and  C_8
REMARK    7  A    between atoms: C_8  and  C_9
REMARK    8  A    between atoms: C_9  and  C_10
REMARK    9  A    between atoms: C_10  and  C_11
REMARK   10  A    between atoms: C_11  and  C_12
REMARK   11  A    between atoms: C_12  and  C_13
REMARK   12  A    between atoms: C_13  and  C_14
REMARK   13  A    between atoms: C_16  and  C_17
REMARK   14  A    between atoms: C_17  and  O_18
REMARK   15  A    between atoms: O_18  and  C_19
REMARK                            x       y       z     vdW  Elec       q    Type
REMARK                         _______ _______ _______ _____ _____    ______ ____
ROOT
ATOM      1  N   UNL     1      36.422 -24.085 -14.642  0.00  0.00    +0.390 N 
ATOM      2  C   UNL     1      37.033 -23.990 -13.236  0.00  0.00    -0.096 C 
ATOM      3  C   UNL     1      36.301 -25.571 -15.009  0.00  0.00    -0.096 C 
ENDROOT
BRANCH   1   4
ATOM      4  C   UNL     1      37.257 -23.362 -15.630  0.00  0.00    -0.073 C 
BRANCH   4   5
ATOM      5  C   UNL     1      36.570 -22.078 -16.076  0.00  0.00    -0.022 C 
BRANCH   5   6
ATOM      6  C   UNL     1      36.432 -21.886 -17.591  0.00  0.00    -0.002 C 
BRANCH   6   7
ATOM      7  C   UNL     1      35.107 -22.352 -18.203  0.00  0.00    -0.000 C 
BRANCH   7   8
ATOM      8  C   UNL     1      34.745 -21.623 -19.500  0.00  0.00    -0.000 C 
BRANCH   8   9
ATOM      9  C   UNL     1      33.273 -21.201 -19.504  0.00  0.00    -0.000 C 
BRANCH   9  10
ATOM     10  C   UNL     1      32.960 -20.094 -20.514  0.00  0.00    +0.000 C 
BRANCH  10  11
ATOM     11  C   UNL     1      34.161 -19.697 -21.373  0.00  0.00    +0.000 C 
BRANCH  11  12
ATOM     12  C   UNL     1      34.384 -18.183 -21.347  0.00  0.00    +0.000 C 
BRANCH  12  13
ATOM     13  C   UNL     1      35.146 -17.711 -22.587  0.00  0.00    +0.000 C 
BRANCH  13  14
ATOM     14  C   UNL     1      35.106 -18.762 -23.697  0.00  0.00    +0.000 C 
ATOM     15  C   UNL     1      34.542 -18.188 -24.987  0.00  0.00    +0.000 C 
ENDBRANCH  13  14
ENDBRANCH  12  13
ENDBRANCH  11  12
ENDBRANCH  10  11
ENDBRANCH   9  10
ENDBRANCH   8   9
ENDBRANCH   7   8
ENDBRANCH   6   7
ENDBRANCH   5   6
ENDBRANCH   4   5
ENDBRANCH   1   4
BRANCH   1  16
ATOM     16  C   UNL     1      35.006 -23.494 -14.584  0.00  0.00    -0.025 C 
BRANCH  16  17
ATOM     17  C   UNL     1      34.149 -24.337 -13.658  0.00  0.00    +0.183 C 
BRANCH  17  18
ATOM     18  O   UNL     1      32.964 -23.625 -13.328  0.00  0.00    -0.478 OA
BRANCH  18  19
ATOM     19  C   UNL     1      31.857 -23.881 -14.096  0.00  0.00    +0.138 C 
ATOM     20  C   UNL     1      31.386 -22.914 -14.985  0.00  0.00    +0.037 C 
ATOM     21  C   UNL     1      31.202 -25.108 -13.988  0.00  0.00    +0.037 C 
ATOM     22  C   UNL     1      30.260 -23.174 -15.765  0.00  0.00    +0.003 C 
ATOM     23  C   UNL     1      30.075 -25.367 -14.769  0.00  0.00    +0.003 C 
ATOM     24  C   UNL     1      29.605 -24.400 -15.658  0.00  0.00    +0.000 C 
ENDBRANCH  18  19
ENDBRANCH  17  18
ENDBRANCH  16  17
ENDBRANCH   1  16
TORSDOF 15
ENDMDL
MODEL 6
REMARK VINA RESULT:      -7.8      4.426      9.093
REMARK  Name = 3149
REMARK  15 active torsions:
REMARK  status: ('A' for Active; 'I' for Inactive)
REMARK    1  A    between atoms: N_1  and  C_4
REMARK    2  A    between atoms: N_1  and  C_16
REMARK    3  A    between atoms: C_4  and  C_5
REMARK    4  A    between atoms: C_5  and  C_6
REMARK    5  A    between atoms: C_6  and  C_7
REMARK    6  A    between atoms: C_7  and  C_8
REMARK    7  A    between atoms: C_8  and  C_9
REMARK    8  A    between atoms: C_9  and  C_10
REMARK    9  A    between atoms: C_10  and  C_11
REMARK   10  A    between atoms: C_11  and  C_12
REMARK   11  A    between atoms: C_12  and  C_13
REMARK   12  A    between atoms: C_13  and  C_14
REMARK   13  A    between atoms: C_16  and  C_17
REMARK   14  A    between atoms: C_17  and  O_18
REMARK   15  A    between atoms: O_18  and  C_19
REMARK                            x       y       z     vdW  Elec       q    Type
REMARK                         _______ _______ _______ _____ _____    ______ ____
ROOT
ATOM      1  N   UNL     1      31.966  -6.190 -23.519  0.00  0.00    +0.390 N 
ATOM      2  C   UNL     1      30.854  -7.244 -23.626  0.00  0.00    -0.096 C 
ATOM      3  C   UNL     1      31.407  -4.856 -24.035  0.00  0.00    -0.096 C 
ENDROOT
BRANCH   1   4
ATOM      4  C   UNL     1      33.159  -6.600 -24.297  0.00  0.00    -0.073 C 
BRANCH   4   5
ATOM      5  C   UNL     1      34.187  -7.267 -23.392  0.00  0.00    -0.022 C 
BRANCH   5   6
ATOM      6  C   UNL     1      35.019  -8.383 -24.037  0.00  0.00    -0.002 C 
BRANCH   6   7
ATOM      7  C   UNL     1      34.320  -9.738 -24.175  0.00  0.00    -0.000 C 
BRANCH   7   8
ATOM      8  C   UNL     1      34.840 -10.575 -25.347  0.00  0.00    -0.000 C 
BRANCH   8   9
ATOM      9  C   UNL     1      33.982 -11.826 -25.556  0.00  0.00    -0.000 C 
BRANCH   9  10
ATOM     10  C   UNL     1      33.634 -12.551 -24.253  0.00  0.00    +0.000 C 
BRANCH  10  11
ATOM     11  C   UNL     1      33.079 -13.959 -24.470  0.00  0.00    +0.000 C 
BRANCH  11  12
ATOM     12  C   UNL     1      33.320 -14.844 -23.244  0.00  0.00    +0.000 C 
BRANCH  12  13
ATOM     13  C   UNL     1      34.310 -14.195 -22.275  0.00  0.00    +0.000 C 
BRANCH  13  14
ATOM     14  C   UNL     1      34.303 -14.900 -20.918  0.00  0.00    +0.000 C 
ATOM     15  C   UNL     1      32.886 -15.169 -20.438  0.00  0.00    +0.000 C 
ENDBRANCH  13  14
ENDBRANCH  12  13
ENDBRANCH  11  12
ENDBRANCH  10  11
ENDBRANCH   9  10
ENDBRANCH   8   9
ENDBRANCH   7   8
ENDBRANCH   6   7
ENDBRANCH   5   6
ENDBRANCH   4   5
ENDBRANCH   1   4
BRANCH   1  16
ATOM     16  C   UNL     1      32.314  -6.015 -22.034  0.00  0.00    -0.025 C 
BRANCH  16  17
ATOM     17  C   UNL     1      31.468  -6.965 -21.207  0.00  0.00    +0.183 C 
BRANCH  17  18
ATOM     18  O   UNL     1      32.314  -7.823 -20.454  0.00  0.00    -0.478 OA
BRANCH  18  19
ATOM     19  C   UNL     1      32.017  -9.161 -20.481  0.00  0.00    +0.138 C 
ATOM     20  C   UNL     1      31.862  -9.817 -21.703  0.00  0.00    +0.037 C 
ATOM     21  C   UNL     1      31.871  -9.867 -19.287  0.00  0.00    +0.037 C 
ATOM     22  C   UNL     1      31.560 -11.178 -21.730  0.00  0.00    +0.003 C 
ATOM     23  C   UNL     1      31.568 -11.229 -19.315  0.00  0.00    +0.003 C 
ATOM     24  C   UNL     1      31.413 -11.884 -20.537  0.00  0.00    +0.000 C 
ENDBRANCH  18  19
ENDBRANCH  17  18
ENDBRANCH  16  17
ENDBRANCH   1  16
TORSDOF 15
ENDMDL
MODEL 7
REMARK VINA RESULT:      -7.8      2.269      3.502
REMARK  Name = 3149
REMARK  15 active torsions:
REMARK  status: ('A' for Active; 'I' for Inactive)
REMARK    1  A    between atoms: N_1  and  C_4
REMARK    2  A    between atoms: N_1  and  C_16
REMARK    3  A    between atoms: C_4  and  C_5
REMARK    4  A    between atoms: C_5  and  C_6
REMARK    5  A    between atoms: C_6  and  C_7
REMARK    6  A    between atoms: C_7  and  C_8
REMARK    7  A    between atoms: C_8  and  C_9
REMARK    8  A    between atoms: C_9  and  C_10
REMARK    9  A    between atoms: C_10  and  C_11
REMARK   10  A    between atoms: C_11  and  C_12
REMARK   11  A    between atoms: C_12  and  C_13
REMARK   12  A    between atoms: C_13  and  C_14
REMARK   13  A    between atoms: C_16  and  C_17
REMARK   14  A    between atoms: C_17  and  O_18
REMARK   15  A    between atoms: O_18  and  C_19
REMARK                            x       y       z     vdW  Elec       q    Type
REMARK                         _______ _______ _______ _____ _____    ______ ____
ROOT
ATOM      1  N   UNL     1      34.087 -15.790 -21.434  0.00  0.00    +0.390 N 
ATOM      2  C   UNL     1      32.641 -16.046 -20.984  0.00  0.00    -0.096 C 
ATOM      3  C   UNL     1      34.608 -14.558 -20.679  0.00  0.00    -0.096 C 
ENDROOT
BRANCH   1   4
ATOM      4  C   UNL     1      34.155 -15.579 -22.899  0.00  0.00    -0.073 C 
BRANCH   4   5
ATOM      5  C   UNL     1      33.970 -14.106 -23.239  0.00  0.00    -0.022 C 
BRANCH   5   6
ATOM      6  C   UNL     1      32.854 -13.788 -24.242  0.00  0.00    -0.002 C 
BRANCH   6   7
ATOM      7  C   UNL     1      32.992 -14.442 -25.621  0.00  0.00    -0.000 C 
BRANCH   7   8
ATOM      8  C   UNL     1      33.434 -13.469 -26.716  0.00  0.00    -0.000 C 
BRANCH   8   9
ATOM      9  C   UNL     1      33.473 -12.030 -26.193  0.00  0.00    -0.000 C 
BRANCH   9  10
ATOM     10  C   UNL     1      34.870 -11.404 -26.237  0.00  0.00    +0.000 C 
BRANCH  10  11
ATOM     11  C   UNL     1      35.059 -10.269 -25.230  0.00  0.00    +0.000 C 
BRANCH  11  12
ATOM     12  C   UNL     1      34.059 -10.379 -24.076  0.00  0.00    +0.000 C 
BRANCH  12  13
ATOM     13  C   UNL     1      33.693  -9.000 -23.524  0.00  0.00    +0.000 C 
BRANCH  13  14
ATOM     14  C   UNL     1      34.836  -8.003 -23.716  0.00  0.00    +0.000 C 
ATOM     15  C   UNL     1      34.374  -6.764 -24.467  0.00  0.00    +0.000 C 
ENDBRANCH  13  14
ENDBRANCH  12  13
ENDBRANCH  11  12
ENDBRANCH  10  11
ENDBRANCH   9  10
ENDBRANCH   8   9
ENDBRANCH   7   8
ENDBRANCH   6   7
ENDBRANCH   5   6
ENDBRANCH   4   5
ENDBRANCH   1   4
BRANCH   1  16
ATOM     16  C   UNL     1      34.936 -16.998 -21.014  0.00  0.00    -0.025 C 
BRANCH  16  17
ATOM     17  C   UNL     1      34.845 -18.069 -22.084  0.00  0.00    +0.183 C 
BRANCH  17  18
ATOM     18  O   UNL     1      35.630 -19.191 -21.701  0.00  0.00    -0.478 OA
BRANCH  18  19
ATOM     19  C   UNL     1      35.052 -20.080 -20.831  0.00  0.00    +0.138 C 
ATOM     20  C   UNL     1      33.663 -20.130 -20.705  0.00  0.00    +0.037 C 
ATOM     21  C   UNL     1      35.853 -20.933 -20.073  0.00  0.00    +0.037 C 
ATOM     22  C   UNL     1      33.076 -21.035 -19.821  0.00  0.00    +0.003 C 
ATOM     23  C   UNL     1      35.265 -21.838 -19.188  0.00  0.00    +0.003 C 
ATOM     24  C   UNL     1      33.876 -21.888 -19.063  0.00  0.00    +0.000 C 
ENDBRANCH  18  19
ENDBRANCH  17  18
ENDBRANCH  16  17
ENDBRANCH   1  16
TORSDOF 15
ENDMDL
MODEL 8
REMARK VINA RESULT:      -7.7      2.132      5.198
REMARK  Name = 3149
REMARK  15 active torsions:
REMARK  status: ('A' for Active; 'I' for Inactive)
REMARK    1  A    between atoms: N_1  and  C_4
REMARK    2  A    between atoms: N_1  and  C_16
REMARK    3  A    between atoms: C_4  and  C_5
REMARK    4  A    between atoms: C_5  and  C_6
REMARK    5  A    between atoms: C_6  and  C_7
REMARK    6  A    between atoms: C_7  and  C_8
REMARK    7  A    between atoms: C_8  and  C_9
REMARK    8  A    between atoms: C_9  and  C_10
REMARK    9  A    between atoms: C_10  and  C_11
REMARK   10  A    between atoms: C_11  and  C_12
REMARK   11  A    between atoms: C_12  and  C_13
REMARK   12  A    between atoms: C_13  and  C_14
REMARK   13  A    between atoms: C_16  and  C_17
REMARK   14  A    between atoms: C_17  and  O_18
REMARK   15  A    between atoms: O_18  and  C_19
REMARK                            x       y       z     vdW  Elec       q    Type
REMARK                         _______ _______ _______ _____ _____    ______ ____
ROOT
ATOM      1  N   UNL     1      34.666 -18.631 -21.761  0.00  0.00    +0.390 N 
ATOM      2  C   UNL     1      34.058 -19.812 -20.991  0.00  0.00    -0.096 C 
ATOM      3  C   UNL     1      36.145 -18.516 -21.364  0.00  0.00    -0.096 C 
ENDROOT
BRANCH   1   4
ATOM      4  C   UNL     1      33.939 -17.375 -21.461  0.00  0.00    -0.073 C 
BRANCH   4   5
ATOM      5  C   UNL     1      34.815 -16.426 -20.653  0.00  0.00    -0.022 C 
BRANCH   5   6
ATOM      6  C   UNL     1      34.356 -14.964 -20.614  0.00  0.00    -0.002 C 
BRANCH   6   7
ATOM      7  C   UNL     1      32.850 -14.743 -20.451  0.00  0.00    -0.000 C 
BRANCH   7   8
ATOM      8  C   UNL     1      32.354 -13.436 -21.075  0.00  0.00    -0.000 C 
BRANCH   8   9
ATOM      9  C   UNL     1      31.933 -12.434 -19.997  0.00  0.00    -0.000 C 
BRANCH   9  10
ATOM     10  C   UNL     1      31.333 -11.145 -20.564  0.00  0.00    +0.000 C 
BRANCH  10  11
ATOM     11  C   UNL     1      31.223 -11.145 -22.089  0.00  0.00    +0.000 C 
BRANCH  11  12
ATOM     12  C   UNL     1      32.272 -10.226 -22.721  0.00  0.00    +0.000 C 
BRANCH  12  13
ATOM     13  C   UNL     1      31.881  -8.754 -22.575  0.00  0.00    +0.000 C 
BRANCH  13  14
ATOM     14  C   UNL     1      32.997  -7.946 -21.913  0.00  0.00    +0.000 C 
ATOM     15  C   UNL     1      32.690  -7.668 -20.450  0.00  0.00    +0.000 C 
ENDBRANCH  13  14
ENDBRANCH  12  13
ENDBRANCH  11  12
ENDBRANCH  10  11
ENDBRANCH   9  10
ENDBRANCH   8   9
ENDBRANCH   7   8
ENDBRANCH   6   7
ENDBRANCH   5   6
ENDBRANCH   4   5
ENDBRANCH   1   4
BRANCH   1  16
ATOM     16  C   UNL     1      34.602 -18.956 -23.260  0.00  0.00    -0.025 C 
BRANCH  16  17
ATOM     17  C   UNL     1      35.115 -17.769 -24.053  0.00  0.00    +0.183 C 
BRANCH  17  18
ATOM     18  O   UNL     1      34.165 -17.416 -25.048  0.00  0.00    -0.478 OA
BRANCH  18  19
ATOM     19  C   UNL     1      33.835 -16.088 -25.144  0.00  0.00    +0.138 C 
ATOM     20  C   UNL     1      33.150 -15.618 -26.264  0.00  0.00    +0.037 C 
ATOM     21  C   UNL     1      34.186 -15.208 -24.120  0.00  0.00    +0.037 C 
ATOM     22  C   UNL     1      32.815 -14.267 -26.360  0.00  0.00    +0.003 C 
ATOM     23  C   UNL     1      33.852 -13.857 -24.217  0.00  0.00    +0.003 C 
ATOM     24  C   UNL     1      33.166 -13.387 -25.337  0.00  0.00    +0.000 C 
ENDBRANCH  18  19
ENDBRANCH  17  18
ENDBRANCH  16  17
ENDBRANCH   1  16
TORSDOF 15
ENDMDL
MODEL 9
REMARK VINA RESULT:      -7.7      3.484      7.835
REMARK  Name = 3149
REMARK  15 active torsions:
REMARK  status: ('A' for Active; 'I' for Inactive)
REMARK    1  A    between atoms: N_1  and  C_4
REMARK    2  A    between atoms: N_1  and  C_16
REMARK    3  A    between atoms: C_4  and  C_5
REMARK    4  A    between atoms: C_5  and  C_6
REMARK    5  A    between atoms: C_6  and  C_7
REMARK    6  A    between atoms: C_7  and  C_8
REMARK    7  A    between atoms: C_8  and  C_9
REMARK    8  A    between atoms: C_9  and  C_10
REMARK    9  A    between atoms: C_10  and  C_11
REMARK   10  A    between atoms: C_11  and  C_12
REMARK   11  A    between atoms: C_12  and  C_13
REMARK   12  A    between atoms: C_13  and  C_14
REMARK   13  A    between atoms: C_16  and  C_17
REMARK   14  A    between atoms: C_17  and  O_18
REMARK   15  A    between atoms: O_18  and  C_19
REMARK                            x       y       z     vdW  Elec       q    Type
REMARK                         _______ _______ _______ _____ _____    ______ ____
ROOT
ATOM      1  N   UNL     1      32.905  -8.114 -22.909  0.00  0.00    +0.390 N 
ATOM      2  C   UNL     1      33.000  -6.721 -23.550  0.00  0.00    -0.096 C 
ATOM      3  C   UNL     1      31.540  -8.714 -23.276  0.00  0.00    -0.096 C 
ENDROOT
BRANCH   1   4
ATOM      4  C   UNL     1      33.068  -8.031 -21.439  0.00  0.00    -0.073 C 
BRANCH   4   5
ATOM      5  C   UNL     1      31.876  -8.661 -20.730  0.00  0.00    -0.022 C 
BRANCH   5   6
ATOM      6  C   UNL     1      32.214  -9.666 -19.622  0.00  0.00    -0.002 C 
BRANCH   6   7
ATOM      7  C   UNL     1      31.370 -10.944 -19.603  0.00  0.00    -0.000 C 
BRANCH   7   8
ATOM      8  C   UNL     1      31.026 -11.468 -21.000  0.00  0.00    -0.000 C 
BRANCH   8   9
ATOM      9  C   UNL     1      31.932 -12.640 -21.388  0.00  0.00    -0.000 C 
BRANCH   9  10
ATOM     10  C   UNL     1      32.380 -13.486 -20.193  0.00  0.00    +0.000 C 
BRANCH  10  11
ATOM     11  C   UNL     1      32.782 -14.911 -20.574  0.00  0.00    +0.000 C 
BRANCH  11  12
ATOM     12  C   UNL     1      34.108 -14.927 -21.339  0.00  0.00    +0.000 C 
BRANCH  12  13
ATOM     13  C   UNL     1      34.631 -16.353 -21.518  0.00  0.00    +0.000 C 
BRANCH  13  14
ATOM     14  C   UNL     1      35.268 -16.544 -22.894  0.00  0.00    +0.000 C 
ATOM     15  C   UNL     1      34.920 -17.900 -23.486  0.00  0.00    +0.000 C 
ENDBRANCH  13  14
ENDBRANCH  12  13
ENDBRANCH  11  12
ENDBRANCH  10  11
ENDBRANCH   9  10
ENDBRANCH   8   9
ENDBRANCH   7   8
ENDBRANCH   6   7
ENDBRANCH   5   6
ENDBRANCH   4   5
ENDBRANCH   1   4
BRANCH   1  16
ATOM     16  C   UNL     1      33.995  -8.998 -23.532  0.00  0.00    -0.025 C 
BRANCH  16  17
ATOM     17  C   UNL     1      33.396 -10.341 -23.905  0.00  0.00    +0.183 C 
BRANCH  17  18
ATOM     18  O   UNL     1      34.095 -10.880 -25.019  0.00  0.00    -0.478 OA
BRANCH  18  19
ATOM     19  C   UNL     1      33.744 -12.145 -25.415  0.00  0.00    +0.138 C 
ATOM     20  C   UNL     1      33.543 -13.144 -24.463  0.00  0.00    +0.037 C 
ATOM     21  C   UNL     1      33.586 -12.431 -26.771  0.00  0.00    +0.037 C 
ATOM     22  C   UNL     1      33.185 -14.430 -24.867  0.00  0.00    +0.003 C 
ATOM     23  C   UNL     1      33.229 -13.719 -27.175  0.00  0.00    +0.003 C 
ATOM     24  C   UNL     1      33.028 -14.718 -26.222  0.00  0.00    +0.000 C 
ENDBRANCH  18  19
ENDBRANCH  17  18
ENDBRANCH  16  17
ENDBRANCH   1  16
TORSDOF 15
ENDMDL
