MODEL 1
REMARK VINA RESULT:      -6.6      0.000      0.000
REMARK  Name = 5287494
REMARK  9 active torsions:
REMARK  status: ('A' for Active; 'I' for Inactive)
REMARK    1  A    between atoms: C_1  and  N_2
REMARK    2  A    between atoms: C_1  and  C_13
REMARK    3  A    between atoms: N_3  and  C_10
REMARK    4  A    between atoms: C_10  and  C_11
REMARK    5  A    between atoms: C_13  and  C_14
REMARK    6  A    between atoms: C_14  and  C_15
REMARK    7  A    between atoms: C_15  and  N_16
REMARK    8  A    between atoms: C_15  and  C_21
REMARK    9  A    between atoms: C_21  and  O_22
REMARK                            x       y       z     vdW  Elec       q    Type
REMARK                         _______ _______ _______ _____ _____    ______ ____
ROOT
ATOM      1  C   UNK     1      32.032 -23.671 -15.190  0.00  0.00    +0.100 C 
ENDROOT
BRANCH   1   2
ATOM      2  N   UNK     1      32.014 -23.257 -16.586  0.00  0.00    -0.347 N 
ATOM      3  N   UNK     1      33.070 -22.611 -18.652  0.00  0.00    -0.347 N 
ATOM      4  N   UNK     1      34.440 -23.151 -16.718  0.00  0.00    -0.371 N 
ATOM      5  C   UNK     1      33.186 -23.008 -17.315  0.00  0.00    +0.170 C 
ATOM      6  H   UNK     1      31.146 -23.148 -17.035  0.00  0.00    +0.163 HD
ATOM      7  H   UNK     1      32.171 -22.519 -19.043  0.00  0.00    +0.163 HD
ATOM      8  H   UNK     1      34.507 -23.429 -15.777  0.00  0.00    +0.159 HD
ATOM      9  H   UNK     1      35.256 -22.972 -17.239  0.00  0.00    +0.159 HD
BRANCH   3  10
ATOM     10  C   UNK     1      34.234 -22.329 -19.492  0.00  0.00    +0.100 C 
BRANCH  10  11
ATOM     11  C   UNK     1      34.287 -20.869 -19.923  0.00  0.00    +0.024 C 
ATOM     12  C   UNK     1      32.915 -20.322 -20.287  0.00  0.00    +0.002 C 
ENDBRANCH  10  11
ENDBRANCH   3  10
ENDBRANCH   1   2
BRANCH   1  13
ATOM     13  C   UNK     1      30.778 -23.223 -14.444  0.00  0.00    +0.022 C 
BRANCH  13  14
ATOM     14  C   UNK     1      29.802 -22.472 -15.361  0.00  0.00    -0.009 C 
BRANCH  14  15
ATOM     15  C   UNK     1      28.478 -23.207 -15.621  0.00  0.00    +0.036 C 
BRANCH  15  16
ATOM     16  N   UNK     1      28.680 -24.651 -15.731  0.00  0.00    +0.389 N 
ATOM     17  H   UNK     1      29.663 -24.843 -15.924  0.00  0.00    -0.088 HD
ATOM     18  H   UNK     1      28.106 -25.018 -16.490  0.00  0.00    -0.088 HD
ATOM     19  H   UNK     1      28.412 -25.099 -14.855  0.00  0.00    -0.088 HD
ENDBRANCH  15  16
BRANCH  15  21
ATOM     20  O   UNK     1      27.479 -21.567 -17.130  0.00  0.00    -0.253 OA
ATOM     21  C   UNK     1      27.800 -22.725 -16.891  0.00  0.00    +0.293 C 
BRANCH  21  22
ATOM     22  O   UNK     1      27.580 -23.741 -17.766  0.00  0.00    -0.482 OA
ATOM     23  H   UNK     1      28.209 -23.928 -18.435  0.00  0.00    +0.295 HD
ENDBRANCH  21  22
ENDBRANCH  15  21
ENDBRANCH  14  15
ENDBRANCH  13  14
ENDBRANCH   1  13
TORSDOF 9
ENDMDL
MODEL 2
REMARK VINA RESULT:      -6.6      6.625      8.397
REMARK  Name = 5287494
REMARK  9 active torsions:
REMARK  status: ('A' for Active; 'I' for Inactive)
REMARK    1  A    between atoms: C_1  and  N_2
REMARK    2  A    between atoms: C_1  and  C_13
REMARK    3  A    between atoms: N_3  and  C_10
REMARK    4  A    between atoms: C_10  and  C_11
REMARK    5  A    between atoms: C_13  and  C_14
REMARK    6  A    between atoms: C_14  and  C_15
REMARK    7  A    between atoms: C_15  and  N_16
REMARK    8  A    between atoms: C_15  and  C_21
REMARK    9  A    between atoms: C_21  and  O_22
REMARK                            x       y       z     vdW  Elec       q    Type
REMARK                         _______ _______ _______ _____ _____    ______ ____
ROOT
ATOM      1  C   UNK     1      36.282 -24.272 -12.152  0.00  0.00    +0.100 C 
ENDROOT
BRANCH   1   2
ATOM      2  N   UNK     1      35.360 -23.450 -12.922  0.00  0.00    -0.347 N 
ATOM      3  N   UNK     1      33.905 -23.023 -14.794  0.00  0.00    -0.347 N 
ATOM      4  N   UNK     1      35.070 -25.151 -14.634  0.00  0.00    -0.371 N 
ATOM      5  C   UNK     1      34.779 -23.886 -14.123  0.00  0.00    +0.170 C 
ATOM      6  H   UNK     1      35.135 -22.552 -12.587  0.00  0.00    +0.163 HD
ATOM      7  H   UNK     1      33.722 -22.137 -14.407  0.00  0.00    +0.163 HD
ATOM      8  H   UNK     1      35.686 -25.747 -14.152  0.00  0.00    +0.159 HD
ATOM      9  H   UNK     1      34.657 -25.448 -15.478  0.00  0.00    +0.159 HD
BRANCH   3  10
ATOM     10  C   UNK     1      33.253 -23.390 -16.051  0.00  0.00    +0.100 C 
BRANCH  10  11
ATOM     11  C   UNK     1      31.735 -23.296 -15.956  0.00  0.00    +0.024 C 
ATOM     12  C   UNK     1      31.271 -22.750 -14.613  0.00  0.00    +0.002 C 
ENDBRANCH  10  11
ENDBRANCH   3  10
ENDBRANCH   1   2
BRANCH   1  13
ATOM     13  C   UNK     1      37.739 -23.937 -12.457  0.00  0.00    +0.022 C 
BRANCH  13  14
ATOM     14  C   UNK     1      38.558 -25.191 -12.798  0.00  0.00    -0.009 C 
BRANCH  14  15
ATOM     15  C   UNK     1      38.676 -25.486 -14.300  0.00  0.00    +0.036 C 
BRANCH  15  16
ATOM     16  N   UNK     1      38.243 -26.848 -14.615  0.00  0.00    +0.389 N 
ATOM     17  H   UNK     1      37.426 -26.813 -15.223  0.00  0.00    -0.088 HD
ATOM     18  H   UNK     1      38.006 -27.337 -13.753  0.00  0.00    -0.088 HD
ATOM     19  H   UNK     1      38.999 -27.342 -15.090  0.00  0.00    -0.088 HD
ENDBRANCH  15  16
BRANCH  15  21
ATOM     20  O   UNK     1      40.982 -24.687 -14.234  0.00  0.00    -0.253 OA
ATOM     21  C   UNK     1      40.097 -25.312 -14.805  0.00  0.00    +0.293 C 
BRANCH  21  22
ATOM     22  O   UNK     1      40.296 -25.944 -15.991  0.00  0.00    -0.482 OA
ATOM     23  H   UNK     1      39.605 -25.979 -16.625  0.00  0.00    +0.295 HD
ENDBRANCH  21  22
ENDBRANCH  15  21
ENDBRANCH  14  15
ENDBRANCH  13  14
ENDBRANCH   1  13
TORSDOF 9
ENDMDL
MODEL 3
REMARK VINA RESULT:      -6.5      8.935     11.403
REMARK  Name = 5287494
REMARK  9 active torsions:
REMARK  status: ('A' for Active; 'I' for Inactive)
REMARK    1  A    between atoms: C_1  and  N_2
REMARK    2  A    between atoms: C_1  and  C_13
REMARK    3  A    between atoms: N_3  and  C_10
REMARK    4  A    between atoms: C_10  and  C_11
REMARK    5  A    between atoms: C_13  and  C_14
REMARK    6  A    between atoms: C_14  and  C_15
REMARK    7  A    between atoms: C_15  and  N_16
REMARK    8  A    between atoms: C_15  and  C_21
REMARK    9  A    between atoms: C_21  and  O_22
REMARK                            x       y       z     vdW  Elec       q    Type
REMARK                         _______ _______ _______ _____ _____    ______ ____
ROOT
ATOM      1  C   UNK     1      32.557 -14.691 -21.893  0.00  0.00    +0.100 C 
ENDROOT
BRANCH   1   2
ATOM      2  N   UNK     1      33.032 -13.401 -22.375  0.00  0.00    -0.347 N 
ATOM      3  N   UNK     1      33.835 -11.904 -24.083  0.00  0.00    -0.347 N 
ATOM      4  N   UNK     1      33.296 -14.204 -24.655  0.00  0.00    -0.371 N 
ATOM      5  C   UNK     1      33.387 -13.177 -23.714  0.00  0.00    +0.170 C 
ATOM      6  H   UNK     1      33.107 -12.657 -21.736  0.00  0.00    +0.163 HD
ATOM      7  H   UNK     1      33.888 -11.202 -23.395  0.00  0.00    +0.163 HD
ATOM      8  H   UNK     1      32.980 -15.095 -24.382  0.00  0.00    +0.159 HD
ATOM      9  H   UNK     1      33.548 -14.037 -25.592  0.00  0.00    +0.159 HD
BRANCH   3  10
ATOM     10  C   UNK     1      34.226 -11.576 -25.454  0.00  0.00    +0.100 C 
BRANCH  10  11
ATOM     11  C   UNK     1      35.203 -10.408 -25.506  0.00  0.00    +0.024 C 
ATOM     12  C   UNK     1      34.988  -9.422 -24.367  0.00  0.00    +0.002 C 
ENDBRANCH  10  11
ENDBRANCH   3  10
ENDBRANCH   1   2
BRANCH   1  13
ATOM     13  C   UNK     1      33.307 -15.146 -20.645  0.00  0.00    +0.022 C 
BRANCH  13  14
ATOM     14  C   UNK     1      34.690 -15.722 -20.983  0.00  0.00    -0.009 C 
BRANCH  14  15
ATOM     15  C   UNK     1      34.662 -17.132 -21.592  0.00  0.00    +0.036 C 
BRANCH  15  16
ATOM     16  N   UNK     1      35.390 -18.090 -20.760  0.00  0.00    +0.389 N 
ATOM     17  H   UNK     1      36.280 -18.317 -21.204  0.00  0.00    -0.088 HD
ATOM     18  H   UNK     1      34.836 -18.939 -20.655  0.00  0.00    -0.088 HD
ATOM     19  H   UNK     1      35.563 -17.680 -19.843  0.00  0.00    -0.088 HD
ENDBRANCH  15  16
BRANCH  15  21
ATOM     20  O   UNK     1      35.501 -18.173 -23.635  0.00  0.00    -0.253 OA
ATOM     21  C   UNK     1      35.263 -17.162 -22.986  0.00  0.00    +0.293 C 
BRANCH  21  22
ATOM     22  O   UNK     1      35.515 -15.913 -23.457  0.00  0.00    -0.482 OA
ATOM     23  H   UNK     1      36.389 -15.572 -23.436  0.00  0.00    +0.295 HD
ENDBRANCH  21  22
ENDBRANCH  15  21
ENDBRANCH  14  15
ENDBRANCH  13  14
ENDBRANCH   1  13
TORSDOF 9
ENDMDL
MODEL 4
REMARK VINA RESULT:      -6.5      6.437      8.646
REMARK  Name = 5287494
REMARK  9 active torsions:
REMARK  status: ('A' for Active; 'I' for Inactive)
REMARK    1  A    between atoms: C_1  and  N_2
REMARK    2  A    between atoms: C_1  and  C_13
REMARK    3  A    between atoms: N_3  and  C_10
REMARK    4  A    between atoms: C_10  and  C_11
REMARK    5  A    between atoms: C_13  and  C_14
REMARK    6  A    between atoms: C_14  and  C_15
REMARK    7  A    between atoms: C_15  and  N_16
REMARK    8  A    between atoms: C_15  and  C_21
REMARK    9  A    between atoms: C_21  and  O_22
REMARK                            x       y       z     vdW  Elec       q    Type
REMARK                         _______ _______ _______ _____ _____    ______ ____
ROOT
ATOM      1  C   UNK     1      35.391 -23.976 -14.653  0.00  0.00    +0.100 C 
ENDROOT
BRANCH   1   2
ATOM      2  N   UNK     1      34.265 -24.827 -14.295  0.00  0.00    -0.347 N 
ATOM      3  N   UNK     1      31.943 -25.227 -13.795  0.00  0.00    -0.347 N 
ATOM      4  N   UNK     1      32.688 -22.977 -14.338  0.00  0.00    -0.371 N 
ATOM      5  C   UNK     1      32.961 -24.332 -14.145  0.00  0.00    +0.170 C 
ATOM      6  H   UNK     1      34.425 -25.787 -14.151  0.00  0.00    +0.163 HD
ATOM      7  H   UNK     1      32.169 -26.176 -13.665  0.00  0.00    +0.163 HD
ATOM      8  H   UNK     1      33.413 -22.359 -14.582  0.00  0.00    +0.159 HD
ATOM      9  H   UNK     1      31.769 -22.640 -14.229  0.00  0.00    +0.159 HD
BRANCH   3  10
ATOM     10  C   UNK     1      30.554 -24.803 -13.617  0.00  0.00    +0.100 C 
BRANCH  10  11
ATOM     11  C   UNK     1      29.676 -25.213 -14.793  0.00  0.00    +0.024 C 
ATOM     12  C   UNK     1      29.143 -24.013 -15.564  0.00  0.00    +0.002 C 
ENDBRANCH  10  11
ENDBRANCH   3  10
ENDBRANCH   1   2
BRANCH   1  13
ATOM     13  C   UNK     1      36.665 -24.372 -13.913  0.00  0.00    +0.022 C 
BRANCH  13  14
ATOM     14  C   UNK     1      37.858 -24.535 -14.866  0.00  0.00    -0.009 C 
BRANCH  14  15
ATOM     15  C   UNK     1      38.795 -25.702 -14.521  0.00  0.00    +0.036 C 
BRANCH  15  16
ATOM     16  N   UNK     1      38.770 -26.005 -13.090  0.00  0.00    +0.389 N 
ATOM     17  H   UNK     1      38.430 -25.192 -12.577  0.00  0.00    -0.088 HD
ATOM     18  H   UNK     1      39.710 -26.239 -12.776  0.00  0.00    -0.088 HD
ATOM     19  H   UNK     1      38.148 -26.796 -12.922  0.00  0.00    -0.088 HD
ENDBRANCH  15  16
BRANCH  15  21
ATOM     20  O   UNK     1      41.026 -24.741 -14.275  0.00  0.00    -0.253 OA
ATOM     21  C   UNK     1      40.232 -25.414 -14.919  0.00  0.00    +0.293 C 
BRANCH  21  22
ATOM     22  O   UNK     1      40.558 -26.001 -16.100  0.00  0.00    -0.482 OA
ATOM     23  H   UNK     1      39.894 -26.412 -16.619  0.00  0.00    +0.295 HD
ENDBRANCH  21  22
ENDBRANCH  15  21
ENDBRANCH  14  15
ENDBRANCH  13  14
ENDBRANCH   1  13
TORSDOF 9
ENDMDL
MODEL 5
REMARK VINA RESULT:      -6.4      5.406      7.729
REMARK  Name = 5287494
REMARK  9 active torsions:
REMARK  status: ('A' for Active; 'I' for Inactive)
REMARK    1  A    between atoms: C_1  and  N_2
REMARK    2  A    between atoms: C_1  and  C_13
REMARK    3  A    between atoms: N_3  and  C_10
REMARK    4  A    between atoms: C_10  and  C_11
REMARK    5  A    between atoms: C_13  and  C_14
REMARK    6  A    between atoms: C_14  and  C_15
REMARK    7  A    between atoms: C_15  and  N_16
REMARK    8  A    between atoms: C_15  and  C_21
REMARK    9  A    between atoms: C_21  and  O_22
REMARK                            x       y       z     vdW  Elec       q    Type
REMARK                         _______ _______ _______ _____ _____    ______ ____
ROOT
ATOM      1  C   UNK     1      36.234 -23.915 -12.333  0.00  0.00    +0.100 C 
ENDROOT
BRANCH   1   2
ATOM      2  N   UNK     1      34.991 -24.648 -12.530  0.00  0.00    -0.347 N 
ATOM      3  N   UNK     1      32.839 -25.001 -13.553  0.00  0.00    -0.347 N 
ATOM      4  N   UNK     1      34.177 -23.075 -14.196  0.00  0.00    -0.371 N 
ATOM      5  C   UNK     1      34.002 -24.232 -13.434  0.00  0.00    +0.170 C 
ATOM      6  H   UNK     1      34.839 -25.468 -12.007  0.00  0.00    +0.163 HD
ATOM      7  H   UNK     1      32.747 -25.810 -13.000  0.00  0.00    +0.163 HD
ATOM      8  H   UNK     1      34.999 -22.544 -14.101  0.00  0.00    +0.159 HD
ATOM      9  H   UNK     1      33.476 -22.791 -14.827  0.00  0.00    +0.159 HD
BRANCH   3  10
ATOM     10  C   UNK     1      31.755 -24.646 -14.468  0.00  0.00    +0.100 C 
BRANCH  10  11
ATOM     11  C   UNK     1      30.383 -24.855 -13.837  0.00  0.00    +0.024 C 
ATOM     12  C   UNK     1      29.273 -24.927 -14.876  0.00  0.00    +0.002 C 
ENDBRANCH  10  11
ENDBRANCH   3  10
ENDBRANCH   1   2
BRANCH   1  13
ATOM     13  C   UNK     1      37.431 -24.848 -12.182  0.00  0.00    +0.022 C 
BRANCH  13  14
ATOM     14  C   UNK     1      37.186 -26.211 -12.846  0.00  0.00    -0.009 C 
BRANCH  14  15
ATOM     15  C   UNK     1      37.826 -26.368 -14.233  0.00  0.00    +0.036 C 
BRANCH  15  16
ATOM     16  N   UNK     1      38.863 -25.362 -14.462  0.00  0.00    +0.389 N 
ATOM     17  H   UNK     1      38.797 -24.638 -13.748  0.00  0.00    -0.088 HD
ATOM     18  H   UNK     1      38.735 -24.945 -15.383  0.00  0.00    -0.088 HD
ATOM     19  H   UNK     1      39.781 -25.805 -14.413  0.00  0.00    -0.088 HD
ENDBRANCH  15  16
BRANCH  15  21
ATOM     20  O   UNK     1      36.003 -25.336 -15.489  0.00  0.00    -0.253 OA
ATOM     21  C   UNK     1      36.802 -26.254 -15.348  0.00  0.00    +0.293 C 
BRANCH  21  22
ATOM     22  O   UNK     1      36.865 -27.307 -16.205  0.00  0.00    -0.482 OA
ATOM     23  H   UNK     1      36.097 -27.815 -16.381  0.00  0.00    +0.295 HD
ENDBRANCH  21  22
ENDBRANCH  15  21
ENDBRANCH  14  15
ENDBRANCH  13  14
ENDBRANCH   1  13
TORSDOF 9
ENDMDL
MODEL 6
REMARK VINA RESULT:      -6.3      9.385     11.770
REMARK  Name = 5287494
REMARK  9 active torsions:
REMARK  status: ('A' for Active; 'I' for Inactive)
REMARK    1  A    between atoms: C_1  and  N_2
REMARK    2  A    between atoms: C_1  and  C_13
REMARK    3  A    between atoms: N_3  and  C_10
REMARK    4  A    between atoms: C_10  and  C_11
REMARK    5  A    between atoms: C_13  and  C_14
REMARK    6  A    between atoms: C_14  and  C_15
REMARK    7  A    between atoms: C_15  and  N_16
REMARK    8  A    between atoms: C_15  and  C_21
REMARK    9  A    between atoms: C_21  and  O_22
REMARK                            x       y       z     vdW  Elec       q    Type
REMARK                         _______ _______ _______ _____ _____    ______ ____
ROOT
ATOM      1  C   UNK     1      32.368 -14.532 -21.986  0.00  0.00    +0.100 C 
ENDROOT
BRANCH   1   2
ATOM      2  N   UNK     1      32.166 -13.107 -22.206  0.00  0.00    -0.347 N 
ATOM      3  N   UNK     1      32.749 -10.972 -23.156  0.00  0.00    -0.347 N 
ATOM      4  N   UNK     1      34.125 -12.918 -23.634  0.00  0.00    -0.371 N 
ATOM      5  C   UNK     1      33.023 -12.336 -23.005  0.00  0.00    +0.170 C 
ATOM      6  H   UNK     1      31.398 -12.667 -21.776  0.00  0.00    +0.163 HD
ATOM      7  H   UNK     1      31.965 -10.591 -22.698  0.00  0.00    +0.163 HD
ATOM      8  H   UNK     1      34.306 -13.878 -23.519  0.00  0.00    +0.159 HD
ATOM      9  H   UNK     1      34.721 -12.368 -24.192  0.00  0.00    +0.159 HD
BRANCH   3  10
ATOM     10  C   UNK     1      33.586 -10.089 -23.968  0.00  0.00    +0.100 C 
BRANCH  10  11
ATOM     11  C   UNK     1      33.397  -8.622 -23.599  0.00  0.00    +0.024 C 
ATOM     12  C   UNK     1      34.718  -7.873 -23.507  0.00  0.00    +0.002 C 
ENDBRANCH  10  11
ENDBRANCH   3  10
ENDBRANCH   1   2
BRANCH   1  13
ATOM     13  C   UNK     1      33.065 -14.813 -20.659  0.00  0.00    +0.022 C 
BRANCH  13  14
ATOM     14  C   UNK     1      34.500 -15.324 -20.860  0.00  0.00    -0.009 C 
BRANCH  14  15
ATOM     15  C   UNK     1      34.599 -16.690 -21.555  0.00  0.00    +0.036 C 
BRANCH  15  16
ATOM     16  N   UNK     1      35.341 -17.653 -20.742  0.00  0.00    +0.389 N 
ATOM     17  H   UNK     1      35.942 -17.153 -20.087  0.00  0.00    -0.088 HD
ATOM     18  H   UNK     1      35.912 -18.241 -21.347  0.00  0.00    -0.088 HD
ATOM     19  H   UNK     1      34.684 -18.236 -20.223  0.00  0.00    -0.088 HD
ENDBRANCH  15  16
BRANCH  15  21
ATOM     20  O   UNK     1      35.259 -15.612 -23.644  0.00  0.00    -0.253 OA
ATOM     21  C   UNK     1      35.278 -16.591 -22.910  0.00  0.00    +0.293 C 
BRANCH  21  22
ATOM     22  O   UNK     1      35.932 -17.737 -23.234  0.00  0.00    -0.482 OA
ATOM     23  H   UNK     1      35.639 -18.255 -23.959  0.00  0.00    +0.295 HD
ENDBRANCH  21  22
ENDBRANCH  15  21
ENDBRANCH  14  15
ENDBRANCH  13  14
ENDBRANCH   1  13
TORSDOF 9
ENDMDL
MODEL 7
REMARK VINA RESULT:      -6.3      5.387      7.308
REMARK  Name = 5287494
REMARK  9 active torsions:
REMARK  status: ('A' for Active; 'I' for Inactive)
REMARK    1  A    between atoms: C_1  and  N_2
REMARK    2  A    between atoms: C_1  and  C_13
REMARK    3  A    between atoms: N_3  and  C_10
REMARK    4  A    between atoms: C_10  and  C_11
REMARK    5  A    between atoms: C_13  and  C_14
REMARK    6  A    between atoms: C_14  and  C_15
REMARK    7  A    between atoms: C_15  and  N_16
REMARK    8  A    between atoms: C_15  and  C_21
REMARK    9  A    between atoms: C_21  and  O_22
REMARK                            x       y       z     vdW  Elec       q    Type
REMARK                         _______ _______ _______ _____ _____    ______ ____
ROOT
ATOM      1  C   UNK     1      36.759 -23.617 -12.289  0.00  0.00    +0.100 C 
ENDROOT
BRANCH   1   2
ATOM      2  N   UNK     1      35.957 -23.172 -13.420  0.00  0.00    -0.347 N 
ATOM      3  N   UNK     1      33.983 -23.192 -14.800  0.00  0.00    -0.347 N 
ATOM      4  N   UNK     1      34.112 -24.653 -12.862  0.00  0.00    -0.371 N 
ATOM      5  C   UNK     1      34.677 -23.680 -13.688  0.00  0.00    +0.170 C 
ATOM      6  H   UNK     1      36.328 -22.486 -14.021  0.00  0.00    +0.163 HD
ATOM      7  H   UNK     1      34.410 -22.507 -15.363  0.00  0.00    +0.163 HD
ATOM      8  H   UNK     1      34.612 -24.988 -12.083  0.00  0.00    +0.159 HD
ATOM      9  H   UNK     1      33.213 -25.005 -13.059  0.00  0.00    +0.159 HD
BRANCH   3  10
ATOM     10  C   UNK     1      32.645 -23.662 -15.158  0.00  0.00    +0.100 C 
BRANCH  10  11
ATOM     11  C   UNK     1      32.223 -23.187 -16.543  0.00  0.00    +0.024 C 
ATOM     12  C   UNK     1      33.384 -23.168 -17.527  0.00  0.00    +0.002 C 
ENDBRANCH  10  11
ENDBRANCH   3  10
ENDBRANCH   1   2
BRANCH   1  13
ATOM     13  C   UNK     1      37.965 -24.441 -12.732  0.00  0.00    +0.022 C 
BRANCH  13  14
ATOM     14  C   UNK     1      37.578 -25.886 -13.081  0.00  0.00    -0.009 C 
BRANCH  14  15
ATOM     15  C   UNK     1      37.982 -26.330 -14.495  0.00  0.00    +0.036 C 
BRANCH  15  16
ATOM     16  N   UNK     1      38.734 -25.286 -15.190  0.00  0.00    +0.389 N 
ATOM     17  H   UNK     1      38.086 -24.597 -15.571  0.00  0.00    -0.088 HD
ATOM     18  H   UNK     1      39.273 -25.703 -15.949  0.00  0.00    -0.088 HD
ATOM     19  H   UNK     1      39.368 -24.830 -14.534  0.00  0.00    -0.088 HD
ENDBRANCH  15  16
BRANCH  15  21
ATOM     20  O   UNK     1      36.787 -27.444 -16.309  0.00  0.00    -0.253 OA
ATOM     21  C   UNK     1      36.776 -26.691 -15.344  0.00  0.00    +0.293 C 
BRANCH  21  22
ATOM     22  O   UNK     1      35.646 -26.074 -14.909  0.00  0.00    -0.482 OA
ATOM     23  H   UNK     1      35.124 -26.471 -14.239  0.00  0.00    +0.295 HD
ENDBRANCH  21  22
ENDBRANCH  15  21
ENDBRANCH  14  15
ENDBRANCH  13  14
ENDBRANCH   1  13
TORSDOF 9
ENDMDL
MODEL 8
REMARK VINA RESULT:      -6.3      6.670      9.545
REMARK  Name = 5287494
REMARK  9 active torsions:
REMARK  status: ('A' for Active; 'I' for Inactive)
REMARK    1  A    between atoms: C_1  and  N_2
REMARK    2  A    between atoms: C_1  and  C_13
REMARK    3  A    between atoms: N_3  and  C_10
REMARK    4  A    between atoms: C_10  and  C_11
REMARK    5  A    between atoms: C_13  and  C_14
REMARK    6  A    between atoms: C_14  and  C_15
REMARK    7  A    between atoms: C_15  and  N_16
REMARK    8  A    between atoms: C_15  and  C_21
REMARK    9  A    between atoms: C_21  and  O_22
REMARK                            x       y       z     vdW  Elec       q    Type
REMARK                         _______ _______ _______ _____ _____    ______ ____
ROOT
ATOM      1  C   UNK     1      34.794 -16.759 -24.991  0.00  0.00    +0.100 C 
ENDROOT
BRANCH   1   2
ATOM      2  N   UNK     1      34.425 -17.948 -24.235  0.00  0.00    -0.347 N 
ATOM      3  N   UNK     1      34.643 -19.479 -22.388  0.00  0.00    -0.347 N 
ATOM      4  N   UNK     1      36.104 -17.540 -22.525  0.00  0.00    -0.371 N 
ATOM      5  C   UNK     1      35.066 -18.317 -23.043  0.00  0.00    +0.170 C 
ATOM      6  H   UNK     1      33.697 -18.516 -24.576  0.00  0.00    +0.163 HD
ATOM      7  H   UNK     1      33.909 -20.005 -22.781  0.00  0.00    +0.163 HD
ATOM      8  H   UNK     1      36.392 -16.726 -22.996  0.00  0.00    +0.159 HD
ATOM      9  H   UNK     1      36.548 -17.808 -21.688  0.00  0.00    +0.159 HD
BRANCH   3  10
ATOM     10  C   UNK     1      35.251 -19.942 -21.141  0.00  0.00    +0.100 C 
BRANCH  10  11
ATOM     11  C   UNK     1      34.227 -20.575 -20.207  0.00  0.00    +0.024 C 
ATOM     12  C   UNK     1      32.814 -20.078 -20.473  0.00  0.00    +0.002 C 
ENDBRANCH  10  11
ENDBRANCH   3  10
ENDBRANCH   1   2
BRANCH   1  13
ATOM     13  C   UNK     1      33.787 -15.629 -24.808  0.00  0.00    +0.022 C 
BRANCH  13  14
ATOM     14  C   UNK     1      34.093 -14.782 -23.563  0.00  0.00    -0.009 C 
BRANCH  14  15
ATOM     15  C   UNK     1      33.036 -14.875 -22.453  0.00  0.00    +0.036 C 
BRANCH  15  16
ATOM     16  N   UNK     1      32.198 -13.677 -22.408  0.00  0.00    +0.389 N 
ATOM     17  H   UNK     1      31.284 -13.888 -22.808  0.00  0.00    -0.088 HD
ATOM     18  H   UNK     1      32.641 -12.932 -22.944  0.00  0.00    -0.088 HD
ATOM     19  H   UNK     1      32.084 -13.379 -21.439  0.00  0.00    -0.088 HD
ENDBRANCH  15  16
BRANCH  15  21
ATOM     20  O   UNK     1      34.860 -15.220 -20.866  0.00  0.00    -0.253 OA
ATOM     21  C   UNK     1      33.665 -15.064 -21.084  0.00  0.00    +0.293 C 
BRANCH  21  22
ATOM     22  O   UNK     1      32.738 -15.041 -20.091  0.00  0.00    -0.482 OA
ATOM     23  H   UNK     1      31.824 -15.039 -20.304  0.00  0.00    +0.295 HD
ENDBRANCH  21  22
ENDBRANCH  15  21
ENDBRANCH  14  15
ENDBRANCH  13  14
ENDBRANCH   1  13
TORSDOF 9
ENDMDL
MODEL 9
REMARK VINA RESULT:      -6.2      6.090      8.576
REMARK  Name = 5287494
REMARK  9 active torsions:
REMARK  status: ('A' for Active; 'I' for Inactive)
REMARK    1  A    between atoms: C_1  and  N_2
REMARK    2  A    between atoms: C_1  and  C_13
REMARK    3  A    between atoms: N_3  and  C_10
REMARK    4  A    between atoms: C_10  and  C_11
REMARK    5  A    between atoms: C_13  and  C_14
REMARK    6  A    between atoms: C_14  and  C_15
REMARK    7  A    between atoms: C_15  and  N_16
REMARK    8  A    between atoms: C_15  and  C_21
REMARK    9  A    between atoms: C_21  and  O_22
REMARK                            x       y       z     vdW  Elec       q    Type
REMARK                         _______ _______ _______ _____ _____    ______ ____
ROOT
ATOM      1  C   UNK     1      35.792 -18.369 -22.604  0.00  0.00    +0.100 C 
ENDROOT
BRANCH   1   2
ATOM      2  N   UNK     1      35.359 -17.224 -23.394  0.00  0.00    -0.347 N 
ATOM      3  N   UNK     1      34.525 -14.979 -23.653  0.00  0.00    -0.347 N 
ATOM      4  N   UNK     1      34.891 -15.878 -21.424  0.00  0.00    -0.371 N 
ATOM      5  C   UNK     1      34.924 -16.024 -22.811  0.00  0.00    +0.170 C 
ATOM      6  H   UNK     1      35.371 -17.296 -24.375  0.00  0.00    +0.163 HD
ATOM      7  H   UNK     1      34.559 -15.115 -24.627  0.00  0.00    +0.163 HD
ATOM      8  H   UNK     1      35.174 -16.621 -20.844  0.00  0.00    +0.159 HD
ATOM      9  H   UNK     1      34.584 -15.032 -21.025  0.00  0.00    +0.159 HD
BRANCH   3  10
ATOM     10  C   UNK     1      34.057 -13.693 -23.138  0.00  0.00    +0.100 C 
BRANCH  10  11
ATOM     11  C   UNK     1      32.550 -13.679 -22.916  0.00  0.00    +0.024 C 
ATOM     12  C   UNK     1      32.179 -13.360 -21.475  0.00  0.00    +0.002 C 
ENDBRANCH  10  11
ENDBRANCH   3  10
ENDBRANCH   1   2
BRANCH   1  13
ATOM     13  C   UNK     1      34.651 -19.347 -22.342  0.00  0.00    +0.022 C 
BRANCH  13  14
ATOM     14  C   UNK     1      34.292 -19.425 -20.850  0.00  0.00    -0.009 C 
BRANCH  14  15
ATOM     15  C   UNK     1      33.988 -20.842 -20.341  0.00  0.00    +0.036 C 
BRANCH  15  16
ATOM     16  N   UNK     1      32.771 -20.870 -19.530  0.00  0.00    +0.389 N 
ATOM     17  H   UNK     1      32.724 -20.027 -18.958  0.00  0.00    -0.088 HD
ATOM     18  H   UNK     1      32.784 -21.691 -18.927  0.00  0.00    -0.088 HD
ATOM     19  H   UNK     1      31.956 -20.911 -20.143  0.00  0.00    -0.088 HD
ENDBRANCH  15  16
BRANCH  15  21
ATOM     20  O   UNK     1      35.141 -22.506 -18.976  0.00  0.00    -0.253 OA
ATOM     21  C   UNK     1      35.126 -21.403 -19.507  0.00  0.00    +0.293 C 
BRANCH  21  22
ATOM     22  O   UNK     1      36.161 -20.529 -19.408  0.00  0.00    -0.482 OA
ATOM     23  H   UNK     1      36.964 -20.699 -19.862  0.00  0.00    +0.295 HD
ENDBRANCH  21  22
ENDBRANCH  15  21
ENDBRANCH  14  15
ENDBRANCH  13  14
ENDBRANCH   1  13
TORSDOF 9
ENDMDL
