MODEL 1
REMARK VINA RESULT:      -7.9      0.000      0.000
REMARK  Name = 127293
REMARK  7 active torsions:
REMARK  status: ('A' for Active; 'I' for Inactive)
REMARK    1  A    between atoms: N_2  and  C_7
REMARK    2  A    between atoms: C_3  and  C_11
REMARK    3  A    between atoms: C_11  and  C_13
REMARK    4  A    between atoms: C_13  and  C_14
REMARK    5  A    between atoms: C_14  and  C_15
REMARK    6  A    between atoms: C_15  and  C_16
REMARK    7  A    between atoms: C_16  and  C_17
REMARK                            x       y       z     vdW  Elec       q    Type
REMARK                         _______ _______ _______ _____ _____    ______ ____
ROOT
ATOM      1  O   UNL     1      35.733 -22.563 -15.113  0.00  0.00    -0.275 OA
ATOM      2  N   UNL     1      37.734 -23.580 -15.724  0.00  0.00    -0.296 N 
ATOM      3  C   UNL     1      36.727 -22.632 -15.830  0.00  0.00    +0.230 C 
ATOM      4  H   UNL     1      38.486 -23.536 -16.357  0.00  0.00    +0.150 HD
ENDROOT
BRANCH   2   7
ATOM      5  O   UNL     1      38.872 -26.657 -14.521  0.00  0.00    -0.447 OA
ATOM      6  O   UNL     1      40.162 -24.782 -14.805  0.00  0.00    -0.248 OA
ATOM      7  C   UNL     1      37.731 -24.619 -14.739  0.00  0.00    +0.175 C 
ATOM      8  C   UNL     1      36.794 -25.755 -15.076  0.00  0.00    +0.078 C 
ATOM      9  C   UNL     1      37.469 -26.930 -14.415  0.00  0.00    +0.211 C 
ATOM     10  C   UNL     1      39.066 -25.314 -14.713  0.00  0.00    +0.335 C 
ENDBRANCH   2   7
BRANCH   3  11
ATOM     11  C   UNL     1      36.998 -21.647 -16.945  0.00  0.00    +0.149 C 
BRANCH  11  13
ATOM     12  O   UNL     1      35.206 -22.648 -18.167  0.00  0.00    -0.296 OA
ATOM     13  C   UNL     1      36.158 -21.869 -18.182  0.00  0.00    +0.160 C 
BRANCH  13  14
ATOM     14  C   UNL     1      36.545 -21.070 -19.417  0.00  0.00    +0.065 C 
BRANCH  14  15
ATOM     15  C   UNL     1      35.437 -20.992 -20.466  0.00  0.00    +0.008 C 
BRANCH  15  16
ATOM     16  C   UNL     1      35.316 -19.595 -21.082  0.00  0.00    +0.000 C 
BRANCH  16  17
ATOM     17  C   UNL     1      33.868 -19.105 -21.065  0.00  0.00    +0.000 C 
ATOM     18  C   UNL     1      32.928 -20.160 -20.505  0.00  0.00    +0.000 C 
ENDBRANCH  16  17
ENDBRANCH  15  16
ENDBRANCH  14  15
ENDBRANCH  13  14
ENDBRANCH  11  13
ENDBRANCH   3  11
TORSDOF 7
ENDMDL
MODEL 2
REMARK VINA RESULT:      -7.8      4.081      5.145
REMARK  Name = 127293
REMARK  7 active torsions:
REMARK  status: ('A' for Active; 'I' for Inactive)
REMARK    1  A    between atoms: N_2  and  C_7
REMARK    2  A    between atoms: C_3  and  C_11
REMARK    3  A    between atoms: C_11  and  C_13
REMARK    4  A    between atoms: C_13  and  C_14
REMARK    5  A    between atoms: C_14  and  C_15
REMARK    6  A    between atoms: C_15  and  C_16
REMARK    7  A    between atoms: C_16  and  C_17
REMARK                            x       y       z     vdW  Elec       q    Type
REMARK                         _______ _______ _______ _____ _____    ______ ____
ROOT
ATOM      1  O   UNL     1      33.993 -23.829 -19.651  0.00  0.00    -0.275 OA
ATOM      2  N   UNL     1      33.716 -22.476 -17.780  0.00  0.00    -0.296 N 
ATOM      3  C   UNL     1      34.073 -22.738 -19.094  0.00  0.00    +0.230 C 
ATOM      4  H   UNL     1      33.824 -21.559 -17.439  0.00  0.00    +0.150 HD
ENDROOT
BRANCH   2   7
ATOM      5  O   UNL     1      31.680 -23.437 -15.107  0.00  0.00    -0.447 OA
ATOM      6  O   UNL     1      30.938 -22.590 -17.105  0.00  0.00    -0.248 OA
ATOM      7  C   UNL     1      33.199 -23.475 -16.894  0.00  0.00    +0.175 C 
ATOM      8  C   UNL     1      33.957 -23.565 -15.591  0.00  0.00    +0.078 C 
ATOM      9  C   UNL     1      32.892 -24.038 -14.635  0.00  0.00    +0.211 C 
ATOM     10  C   UNL     1      31.820 -23.092 -16.426  0.00  0.00    +0.335 C 
ENDBRANCH   2   7
BRANCH   3  11
ATOM     11  C   UNL     1      34.570 -21.496 -19.799  0.00  0.00    +0.149 C 
BRANCH  11  13
ATOM     12  O   UNL     1      32.391 -20.541 -19.580  0.00  0.00    -0.296 OA
ATOM     13  C   UNL     1      33.481 -20.507 -20.149  0.00  0.00    +0.160 C 
BRANCH  13  14
ATOM     14  C   UNL     1      33.818 -19.476 -21.215  0.00  0.00    +0.065 C 
BRANCH  14  15
ATOM     15  C   UNL     1      35.318 -19.311 -21.453  0.00  0.00    +0.008 C 
BRANCH  15  16
ATOM     16  C   UNL     1      35.621 -18.534 -22.738  0.00  0.00    +0.000 C 
BRANCH  16  17
ATOM     17  C   UNL     1      34.804 -19.068 -23.914  0.00  0.00    +0.000 C 
ATOM     18  C   UNL     1      34.559 -17.991 -24.958  0.00  0.00    +0.000 C 
ENDBRANCH  16  17
ENDBRANCH  15  16
ENDBRANCH  14  15
ENDBRANCH  13  14
ENDBRANCH  11  13
ENDBRANCH   3  11
TORSDOF 7
ENDMDL
MODEL 3
REMARK VINA RESULT:      -7.7      2.052      2.902
REMARK  Name = 127293
REMARK  7 active torsions:
REMARK  status: ('A' for Active; 'I' for Inactive)
REMARK    1  A    between atoms: N_2  and  C_7
REMARK    2  A    between atoms: C_3  and  C_11
REMARK    3  A    between atoms: C_11  and  C_13
REMARK    4  A    between atoms: C_13  and  C_14
REMARK    5  A    between atoms: C_14  and  C_15
REMARK    6  A    between atoms: C_15  and  C_16
REMARK    7  A    between atoms: C_16  and  C_17
REMARK                            x       y       z     vdW  Elec       q    Type
REMARK                         _______ _______ _______ _____ _____    ______ ____
ROOT
ATOM      1  O   UNL     1      38.388 -23.524 -15.446  0.00  0.00    -0.275 OA
ATOM      2  N   UNL     1      36.270 -22.963 -14.665  0.00  0.00    -0.296 N 
ATOM      3  C   UNL     1      37.376 -22.829 -15.490  0.00  0.00    +0.230 C 
ATOM      4  H   UNL     1      35.514 -22.347 -14.792  0.00  0.00    +0.150 HD
ENDROOT
BRANCH   2   7
ATOM      5  O   UNL     1      34.569 -24.454 -12.000  0.00  0.00    -0.447 OA
ATOM      6  O   UNL     1      33.836 -24.385 -14.172  0.00  0.00    -0.248 OA
ATOM      7  C   UNL     1      36.175 -23.954 -13.637  0.00  0.00    +0.175 C 
ATOM      8  C   UNL     1      36.662 -23.466 -12.292  0.00  0.00    +0.078 C 
ATOM      9  C   UNL     1      35.828 -24.281 -11.337  0.00  0.00    +0.211 C 
ATOM     10  C   UNL     1      34.731 -24.268 -13.349  0.00  0.00    +0.335 C 
ENDBRANCH   2   7
BRANCH   3  11
ATOM     11  C   UNL     1      37.196 -21.714 -16.494  0.00  0.00    +0.149 C 
BRANCH  11  13
ATOM     12  O   UNL     1      35.267 -22.784 -17.412  0.00  0.00    -0.296 OA
ATOM     13  C   UNL     1      36.224 -22.036 -17.607  0.00  0.00    +0.160 C 
BRANCH  13  14
ATOM     14  C   UNL     1      36.489 -21.376 -18.951  0.00  0.00    +0.065 C 
BRANCH  14  15
ATOM     15  C   UNL     1      35.253 -21.294 -19.845  0.00  0.00    +0.008 C 
BRANCH  15  16
ATOM     16  C   UNL     1      35.333 -20.136 -20.844  0.00  0.00    +0.000 C 
BRANCH  16  17
ATOM     17  C   UNL     1      33.980 -19.441 -20.997  0.00  0.00    +0.000 C 
ATOM     18  C   UNL     1      32.864 -20.242 -20.349  0.00  0.00    +0.000 C 
ENDBRANCH  16  17
ENDBRANCH  15  16
ENDBRANCH  14  15
ENDBRANCH  13  14
ENDBRANCH  11  13
ENDBRANCH   3  11
TORSDOF 7
ENDMDL
MODEL 4
REMARK VINA RESULT:      -7.5      7.235     11.760
REMARK  Name = 127293
REMARK  7 active torsions:
REMARK  status: ('A' for Active; 'I' for Inactive)
REMARK    1  A    between atoms: N_2  and  C_7
REMARK    2  A    between atoms: C_3  and  C_11
REMARK    3  A    between atoms: C_11  and  C_13
REMARK    4  A    between atoms: C_13  and  C_14
REMARK    5  A    between atoms: C_14  and  C_15
REMARK    6  A    between atoms: C_15  and  C_16
REMARK    7  A    between atoms: C_16  and  C_17
REMARK                            x       y       z     vdW  Elec       q    Type
REMARK                         _______ _______ _______ _____ _____    ______ ____
ROOT
ATOM      1  O   UNL     1      32.267 -14.640 -22.334  0.00  0.00    -0.275 OA
ATOM      2  N   UNL     1      33.970 -14.203 -23.857  0.00  0.00    -0.296 N 
ATOM      3  C   UNL     1      33.454 -14.468 -22.597  0.00  0.00    +0.230 C 
ATOM      4  H   UNL     1      34.943 -14.082 -23.948  0.00  0.00    +0.150 HD
ENDROOT
BRANCH   2   7
ATOM      5  O   UNL     1      33.446 -14.727 -27.272  0.00  0.00    -0.447 OA
ATOM      6  O   UNL     1      33.706 -16.376 -25.700  0.00  0.00    -0.248 OA
ATOM      7  C   UNL     1      33.158 -14.098 -25.030  0.00  0.00    +0.175 C 
ATOM      8  C   UNL     1      33.465 -12.872 -25.859  0.00  0.00    +0.078 C 
ATOM      9  C   UNL     1      33.115 -13.333 -27.250  0.00  0.00    +0.211 C 
ATOM     10  C   UNL     1      33.483 -15.211 -25.990  0.00  0.00    +0.335 C 
ENDBRANCH   2   7
BRANCH   3  11
ATOM     11  C   UNL     1      34.541 -14.541 -21.549  0.00  0.00    +0.149 C 
BRANCH  11  13
ATOM     12  O   UNL     1      34.957 -16.090 -19.778  0.00  0.00    -0.296 OA
ATOM     13  C   UNL     1      34.758 -15.926 -20.981  0.00  0.00    +0.160 C 
BRANCH  13  14
ATOM     14  C   UNL     1      34.696 -17.082 -21.967  0.00  0.00    +0.065 C 
BRANCH  14  15
ATOM     15  C   UNL     1      34.123 -18.365 -21.370  0.00  0.00    +0.008 C 
BRANCH  15  16
ATOM     16  C   UNL     1      35.193 -19.442 -21.167  0.00  0.00    +0.000 C 
BRANCH  16  17
ATOM     17  C   UNL     1      34.685 -20.566 -20.264  0.00  0.00    +0.000 C 
ATOM     18  C   UNL     1      33.170 -20.542 -20.142  0.00  0.00    +0.000 C 
ENDBRANCH  16  17
ENDBRANCH  15  16
ENDBRANCH  14  15
ENDBRANCH  13  14
ENDBRANCH  11  13
ENDBRANCH   3  11
TORSDOF 7
ENDMDL
MODEL 5
REMARK VINA RESULT:      -7.5      5.053      7.864
REMARK  Name = 127293
REMARK  7 active torsions:
REMARK  status: ('A' for Active; 'I' for Inactive)
REMARK    1  A    between atoms: N_2  and  C_7
REMARK    2  A    between atoms: C_3  and  C_11
REMARK    3  A    between atoms: C_11  and  C_13
REMARK    4  A    between atoms: C_13  and  C_14
REMARK    5  A    between atoms: C_14  and  C_15
REMARK    6  A    between atoms: C_15  and  C_16
REMARK    7  A    between atoms: C_16  and  C_17
REMARK                            x       y       z     vdW  Elec       q    Type
REMARK                         _______ _______ _______ _____ _____    ______ ____
ROOT
ATOM      1  O   UNL     1      35.588 -18.659 -23.405  0.00  0.00    -0.275 OA
ATOM      2  N   UNL     1      34.836 -18.692 -21.204  0.00  0.00    -0.296 N 
ATOM      3  C   UNL     1      35.193 -18.080 -22.396  0.00  0.00    +0.230 C 
ATOM      4  H   UNL     1      34.533 -18.124 -20.459  0.00  0.00    +0.150 HD
ENDROOT
BRANCH   2   7
ATOM      5  O   UNL     1      34.120 -21.542 -19.313  0.00  0.00    -0.447 OA
ATOM      6  O   UNL     1      32.563 -20.158 -20.271  0.00  0.00    -0.248 OA
ATOM      7  C   UNL     1      34.886 -20.108 -21.004  0.00  0.00    +0.175 C 
ATOM      8  C   UNL     1      36.055 -20.547 -20.152  0.00  0.00    +0.078 C 
ATOM      9  C   UNL     1      35.518 -21.793 -19.496  0.00  0.00    +0.211 C 
ATOM     10  C   UNL     1      33.712 -20.559 -20.177  0.00  0.00    +0.335 C 
ENDBRANCH   2   7
BRANCH   3  11
ATOM     11  C   UNL     1      35.024 -16.579 -22.330  0.00  0.00    +0.149 C 
BRANCH  11  13
ATOM     12  O   UNL     1      35.039 -16.035 -20.004  0.00  0.00    -0.296 OA
ATOM     13  C   UNL     1      34.392 -16.085 -21.049  0.00  0.00    +0.160 C 
BRANCH  13  14
ATOM     14  C   UNL     1      32.939 -15.644 -21.135  0.00  0.00    +0.065 C 
BRANCH  14  15
ATOM     15  C   UNL     1      32.687 -14.253 -20.555  0.00  0.00    +0.008 C 
BRANCH  15  16
ATOM     16  C   UNL     1      32.303 -13.234 -21.632  0.00  0.00    +0.000 C 
BRANCH  16  17
ATOM     17  C   UNL     1      32.646 -13.750 -23.030  0.00  0.00    +0.000 C 
ATOM     18  C   UNL     1      33.375 -12.697 -23.849  0.00  0.00    +0.000 C 
ENDBRANCH  16  17
ENDBRANCH  15  16
ENDBRANCH  14  15
ENDBRANCH  13  14
ENDBRANCH  11  13
ENDBRANCH   3  11
TORSDOF 7
ENDMDL
MODEL 6
REMARK VINA RESULT:      -7.5      4.082      5.420
REMARK  Name = 127293
REMARK  7 active torsions:
REMARK  status: ('A' for Active; 'I' for Inactive)
REMARK    1  A    between atoms: N_2  and  C_7
REMARK    2  A    between atoms: C_3  and  C_11
REMARK    3  A    between atoms: C_11  and  C_13
REMARK    4  A    between atoms: C_13  and  C_14
REMARK    5  A    between atoms: C_14  and  C_15
REMARK    6  A    between atoms: C_15  and  C_16
REMARK    7  A    between atoms: C_16  and  C_17
REMARK                            x       y       z     vdW  Elec       q    Type
REMARK                         _______ _______ _______ _____ _____    ______ ____
ROOT
ATOM      1  O   UNL     1      35.463 -22.730 -15.863  0.00  0.00    -0.275 OA
ATOM      2  N   UNL     1      35.526 -24.834 -14.872  0.00  0.00    -0.296 N 
ATOM      3  C   UNL     1      34.901 -23.686 -15.335  0.00  0.00    +0.230 C 
ATOM      4  H   UNL     1      34.972 -25.537 -14.464  0.00  0.00    +0.150 HD
ENDROOT
BRANCH   2   7
ATOM      5  O   UNL     1      38.337 -26.885 -14.552  0.00  0.00    -0.447 OA
ATOM      6  O   UNL     1      36.618 -27.209 -16.034  0.00  0.00    -0.248 OA
ATOM      7  C   UNL     1      36.939 -25.046 -14.959  0.00  0.00    +0.175 C 
ATOM      8  C   UNL     1      37.652 -24.850 -13.642  0.00  0.00    +0.078 C 
ATOM      9  C   UNL     1      38.827 -25.785 -13.774  0.00  0.00    +0.211 C 
ATOM     10  C   UNL     1      37.231 -26.492 -15.259  0.00  0.00    +0.335 C 
ENDBRANCH   2   7
BRANCH   3  11
ATOM     11  C   UNL     1      33.404 -23.740 -15.130  0.00  0.00    +0.149 C 
BRANCH  11  13
ATOM     12  O   UNL     1      33.654 -24.101 -12.782  0.00  0.00    -0.296 OA
ATOM     13  C   UNL     1      32.984 -24.307 -13.793  0.00  0.00    +0.160 C 
BRANCH  13  14
ATOM     14  C   UNL     1      31.695 -25.115 -13.773  0.00  0.00    +0.065 C 
BRANCH  14  15
ATOM     15  C   UNL     1      30.445 -24.277 -14.033  0.00  0.00    +0.008 C 
BRANCH  15  16
ATOM     16  C   UNL     1      29.414 -25.021 -14.888  0.00  0.00    +0.000 C 
BRANCH  16  17
ATOM     17  C   UNL     1      28.809 -24.103 -15.950  0.00  0.00    +0.000 C 
ATOM     18  C   UNL     1      29.735 -22.943 -16.278  0.00  0.00    +0.000 C 
ENDBRANCH  16  17
ENDBRANCH  15  16
ENDBRANCH  14  15
ENDBRANCH  13  14
ENDBRANCH  11  13
ENDBRANCH   3  11
TORSDOF 7
ENDMDL
MODEL 7
REMARK VINA RESULT:      -7.5      4.753      6.738
REMARK  Name = 127293
REMARK  7 active torsions:
REMARK  status: ('A' for Active; 'I' for Inactive)
REMARK    1  A    between atoms: N_2  and  C_7
REMARK    2  A    between atoms: C_3  and  C_11
REMARK    3  A    between atoms: C_11  and  C_13
REMARK    4  A    between atoms: C_13  and  C_14
REMARK    5  A    between atoms: C_14  and  C_15
REMARK    6  A    between atoms: C_15  and  C_16
REMARK    7  A    between atoms: C_16  and  C_17
REMARK                            x       y       z     vdW  Elec       q    Type
REMARK                         _______ _______ _______ _____ _____    ______ ____
ROOT
ATOM      1  O   UNL     1      35.553 -17.671 -20.566  0.00  0.00    -0.275 OA
ATOM      2  N   UNL     1      35.257 -19.873 -21.257  0.00  0.00    -0.296 N 
ATOM      3  C   UNL     1      35.606 -18.542 -21.431  0.00  0.00    +0.230 C 
ATOM      4  H   UNL     1      35.341 -20.483 -22.025  0.00  0.00    +0.150 HD
ENDROOT
BRANCH   2   7
ATOM      5  O   UNL     1      34.889 -22.513 -18.997  0.00  0.00    -0.447 OA
ATOM      6  O   UNL     1      36.883 -21.572 -19.628  0.00  0.00    -0.248 OA
ATOM      7  C   UNL     1      34.781 -20.402 -20.016  0.00  0.00    +0.175 C 
ATOM      8  C   UNL     1      33.438 -21.085 -20.136  0.00  0.00    +0.078 C 
ATOM      9  C   UNL     1      33.511 -22.123 -19.045  0.00  0.00    +0.211 C 
ATOM     10  C   UNL     1      35.664 -21.532 -19.558  0.00  0.00    +0.335 C 
ENDBRANCH   2   7
BRANCH   3  11
ATOM     11  C   UNL     1      36.092 -18.268 -22.836  0.00  0.00    +0.149 C 
BRANCH  11  13
ATOM     12  O   UNL     1      34.275 -19.124 -24.130  0.00  0.00    -0.296 OA
ATOM     13  C   UNL     1      34.986 -18.156 -23.861  0.00  0.00    +0.160 C 
BRANCH  13  14
ATOM     14  C   UNL     1      34.798 -16.795 -24.512  0.00  0.00    +0.065 C 
BRANCH  14  15
ATOM     15  C   UNL     1      34.902 -15.629 -23.531  0.00  0.00    +0.008 C 
BRANCH  15  16
ATOM     16  C   UNL     1      33.611 -15.422 -22.734  0.00  0.00    +0.000 C 
BRANCH  16  17
ATOM     17  C   UNL     1      33.879 -14.672 -21.429  0.00  0.00    +0.000 C 
ATOM     18  C   UNL     1      32.841 -15.005 -20.370  0.00  0.00    +0.000 C 
ENDBRANCH  16  17
ENDBRANCH  15  16
ENDBRANCH  14  15
ENDBRANCH  13  14
ENDBRANCH  11  13
ENDBRANCH   3  11
TORSDOF 7
ENDMDL
MODEL 8
REMARK VINA RESULT:      -7.4      6.671     10.961
REMARK  Name = 127293
REMARK  7 active torsions:
REMARK  status: ('A' for Active; 'I' for Inactive)
REMARK    1  A    between atoms: N_2  and  C_7
REMARK    2  A    between atoms: C_3  and  C_11
REMARK    3  A    between atoms: C_11  and  C_13
REMARK    4  A    between atoms: C_13  and  C_14
REMARK    5  A    between atoms: C_14  and  C_15
REMARK    6  A    between atoms: C_15  and  C_16
REMARK    7  A    between atoms: C_16  and  C_17
REMARK                            x       y       z     vdW  Elec       q    Type
REMARK                         _______ _______ _______ _____ _____    ______ ____
ROOT
ATOM      1  O   UNL     1      34.349 -15.887 -21.326  0.00  0.00    -0.275 OA
ATOM      2  N   UNL     1      34.426 -16.109 -23.640  0.00  0.00    -0.296 N 
ATOM      3  C   UNL     1      34.767 -16.443 -22.338  0.00  0.00    +0.230 C 
ATOM      4  H   UNL     1      34.825 -16.627 -24.376  0.00  0.00    +0.150 HD
ENDROOT
BRANCH   2   7
ATOM      5  O   UNL     1      33.263 -13.645 -25.828  0.00  0.00    -0.447 OA
ATOM      6  O   UNL     1      33.226 -15.902 -26.229  0.00  0.00    -0.248 OA
ATOM      7  C   UNL     1      33.522 -15.048 -23.966  0.00  0.00    +0.175 C 
ATOM      8  C   UNL     1      34.071 -13.678 -23.640  0.00  0.00    +0.078 C 
ATOM      9  C   UNL     1      33.392 -12.812 -24.669  0.00  0.00    +0.211 C 
ATOM     10  C   UNL     1      33.337 -14.962 -25.457  0.00  0.00    +0.335 C 
ENDBRANCH   2   7
BRANCH   3  11
ATOM     11  C   UNL     1      35.724 -17.613 -22.290  0.00  0.00    +0.149 C 
BRANCH  11  13
ATOM     12  O   UNL     1      34.842 -19.356 -23.666  0.00  0.00    -0.296 OA
ATOM     13  C   UNL     1      35.070 -18.956 -22.525  0.00  0.00    +0.160 C 
BRANCH  13  14
ATOM     14  C   UNL     1      34.734 -19.773 -21.287  0.00  0.00    +0.065 C 
BRANCH  14  15
ATOM     15  C   UNL     1      33.296 -19.592 -20.807  0.00  0.00    +0.008 C 
BRANCH  15  16
ATOM     16  C   UNL     1      32.864 -20.695 -19.835  0.00  0.00    +0.000 C 
BRANCH  16  17
ATOM     17  C   UNL     1      34.040 -21.596 -19.461  0.00  0.00    +0.000 C 
ATOM     18  C   UNL     1      33.643 -22.630 -18.422  0.00  0.00    +0.000 C 
ENDBRANCH  16  17
ENDBRANCH  15  16
ENDBRANCH  14  15
ENDBRANCH  13  14
ENDBRANCH  11  13
ENDBRANCH   3  11
TORSDOF 7
ENDMDL
MODEL 9
REMARK VINA RESULT:      -7.4      3.823      4.866
REMARK  Name = 127293
REMARK  7 active torsions:
REMARK  status: ('A' for Active; 'I' for Inactive)
REMARK    1  A    between atoms: N_2  and  C_7
REMARK    2  A    between atoms: C_3  and  C_11
REMARK    3  A    between atoms: C_11  and  C_13
REMARK    4  A    between atoms: C_13  and  C_14
REMARK    5  A    between atoms: C_14  and  C_15
REMARK    6  A    between atoms: C_15  and  C_16
REMARK    7  A    between atoms: C_16  and  C_17
REMARK                            x       y       z     vdW  Elec       q    Type
REMARK                         _______ _______ _______ _____ _____    ______ ____
ROOT
ATOM      1  O   UNL     1      35.840 -22.423 -15.283  0.00  0.00    -0.275 OA
ATOM      2  N   UNL     1      35.615 -24.728 -15.063  0.00  0.00    -0.296 N 
ATOM      3  C   UNL     1      35.144 -23.432 -15.209  0.00  0.00    +0.230 C 
ATOM      4  H   UNL     1      34.961 -25.461 -15.014  0.00  0.00    +0.150 HD
ENDROOT
BRANCH   2   7
ATOM      5  O   UNL     1      38.197 -26.991 -14.412  0.00  0.00    -0.447 OA
ATOM      6  O   UNL     1      36.650 -27.187 -16.094  0.00  0.00    -0.248 OA
ATOM      7  C   UNL     1      37.007 -25.050 -14.978  0.00  0.00    +0.175 C 
ATOM      8  C   UNL     1      37.569 -24.904 -13.583  0.00  0.00    +0.078 C 
ATOM      9  C   UNL     1      38.673 -25.929 -13.576  0.00  0.00    +0.211 C 
ATOM     10  C   UNL     1      37.219 -26.516 -15.246  0.00  0.00    +0.335 C 
ENDBRANCH   2   7
BRANCH   3  11
ATOM     11  C   UNL     1      33.634 -23.389 -15.288  0.00  0.00    +0.149 C 
BRANCH  11  13
ATOM     12  O   UNL     1      33.780 -23.734 -17.648  0.00  0.00    -0.296 OA
ATOM     13  C   UNL     1      33.091 -23.362 -16.699  0.00  0.00    +0.160 C 
BRANCH  13  14
ATOM     14  C   UNL     1      31.660 -22.874 -16.866  0.00  0.00    +0.065 C 
BRANCH  14  15
ATOM     15  C   UNL     1      30.813 -23.022 -15.604  0.00  0.00    +0.008 C 
BRANCH  15  16
ATOM     16  C   UNL     1      29.518 -23.798 -15.860  0.00  0.00    +0.000 C 
BRANCH  16  17
ATOM     17  C   UNL     1      29.400 -25.004 -14.927  0.00  0.00    +0.000 C 
ATOM     18  C   UNL     1      30.658 -25.190 -14.094  0.00  0.00    +0.000 C 
ENDBRANCH  16  17
ENDBRANCH  15  16
ENDBRANCH  14  15
ENDBRANCH  13  14
ENDBRANCH  11  13
ENDBRANCH   3  11
TORSDOF 7
ENDMDL
