MODEL 1
REMARK VINA RESULT:      -8.8      0.000      0.000
REMARK  Name = 2442
REMARK  4 active torsions:
REMARK  status: ('A' for Active; 'I' for Inactive)
REMARK    1  A    between atoms: C_3  and  C_12
REMARK    2  A    between atoms: C_4  and  N_9
REMARK    3  A    between atoms: C_12  and  N_13
REMARK    4  A    between atoms: N_13  and  C_16
REMARK                            x       y       z     vdW  Elec       q    Type
REMARK                         _______ _______ _______ _____ _____    ______ ____
ROOT
ATOM      1 BR   UNL     1      32.278 -12.901 -20.859  0.00  0.00    -0.048 Br
ATOM      2 BR   UNL     1      33.013 -14.352 -26.287  0.00  0.00    -0.049 Br
ATOM      3  C   UNL     1      34.339 -16.022 -22.722  0.00  0.00    -0.029 C 
ATOM      4  C   UNL     1      33.808 -15.183 -21.750  0.00  0.00    +0.042 C 
ATOM      5  C   UNL     1      34.109 -15.783 -24.071  0.00  0.00    +0.002 C 
ATOM      6  C   UNL     1      33.034 -14.088 -22.134  0.00  0.00    +0.048 C 
ATOM      7  C   UNL     1      33.334 -14.688 -24.454  0.00  0.00    +0.035 C 
ATOM      8  C   UNL     1      32.797 -13.840 -23.486  0.00  0.00    +0.015 C 
ENDROOT
BRANCH   4   9
ATOM      9  N   UNL     1      34.059 -15.449 -20.382  0.00  0.00    -0.357 N 
ATOM     10  H   UNL     1      33.306 -15.561 -19.757  0.00  0.00    +0.142 HD
ATOM     11  H   UNL     1      34.984 -15.519 -20.057  0.00  0.00    +0.142 HD
ENDBRANCH   4   9
BRANCH   3  12
ATOM     12  C   UNL     1      35.179 -17.212 -22.341  0.00  0.00    -0.049 C 
BRANCH  12  13
ATOM     13  N   UNL     1      34.426 -18.463 -22.432  0.00  0.00    +0.390 N 
ATOM     14  C   UNL     1      34.984 -19.320 -23.478  0.00  0.00    -0.100 C 
ATOM     15  H   UNL     1      33.460 -18.241 -22.677  0.00  0.00    -0.079 HD
BRANCH  13  16
ATOM     16  C   UNL     1      34.429 -19.156 -21.146  0.00  0.00    -0.058 C 
ATOM     17  C   UNL     1      33.137 -19.964 -20.986  0.00  0.00    -0.021 C 
ATOM     18  C   UNL     1      35.663 -20.061 -21.044  0.00  0.00    -0.021 C 
ATOM     19  C   UNL     1      33.138 -20.764 -19.685  0.00  0.00    -0.002 C 
ATOM     20  C   UNL     1      35.661 -20.861 -19.744  0.00  0.00    -0.002 C 
ATOM     21  C   UNL     1      34.371 -21.658 -19.575  0.00  0.00    -0.000 C 
ENDBRANCH  13  16
ENDBRANCH  12  13
ENDBRANCH   3  12
TORSDOF 4
ENDMDL
MODEL 2
REMARK VINA RESULT:      -8.7      0.885      2.485
REMARK  Name = 2442
REMARK  4 active torsions:
REMARK  status: ('A' for Active; 'I' for Inactive)
REMARK    1  A    between atoms: C_3  and  C_12
REMARK    2  A    between atoms: C_4  and  N_9
REMARK    3  A    between atoms: C_12  and  N_13
REMARK    4  A    between atoms: N_13  and  C_16
REMARK                            x       y       z     vdW  Elec       q    Type
REMARK                         _______ _______ _______ _____ _____    ______ ____
ROOT
ATOM      1 BR   UNL     1      33.089 -14.155 -26.188  0.00  0.00    -0.048 Br
ATOM      2 BR   UNL     1      32.169 -13.186 -20.681  0.00  0.00    -0.049 Br
ATOM      3  C   UNL     1      34.313 -16.112 -22.705  0.00  0.00    -0.029 C 
ATOM      4  C   UNL     1      34.138 -15.781 -24.042  0.00  0.00    +0.042 C 
ATOM      5  C   UNL     1      33.732 -15.348 -21.700  0.00  0.00    +0.002 C 
ATOM      6  C   UNL     1      33.370 -14.666 -24.381  0.00  0.00    +0.048 C 
ATOM      7  C   UNL     1      32.965 -14.234 -22.039  0.00  0.00    +0.035 C 
ATOM      8  C   UNL     1      32.783 -13.893 -23.379  0.00  0.00    +0.015 C 
ENDROOT
BRANCH   4   9
ATOM      9  N   UNL     1      34.740 -16.576 -25.047  0.00  0.00    -0.357 N 
ATOM     10  H   UNL     1      34.991 -16.173 -25.909  0.00  0.00    +0.142 HD
ATOM     11  H   UNL     1      34.906 -17.532 -24.883  0.00  0.00    +0.142 HD
ENDBRANCH   4   9
BRANCH   3  12
ATOM     12  C   UNL     1      35.136 -17.309 -22.306  0.00  0.00    -0.049 C 
BRANCH  12  13
ATOM     13  N   UNL     1      34.364 -18.550 -22.381  0.00  0.00    +0.390 N 
ATOM     14  C   UNL     1      34.891 -19.416 -23.434  0.00  0.00    -0.100 C 
ATOM     15  H   UNL     1      33.397 -18.316 -22.609  0.00  0.00    -0.079 HD
BRANCH  13  16
ATOM     16  C   UNL     1      34.381 -19.240 -21.094  0.00  0.00    -0.058 C 
ATOM     17  C   UNL     1      33.081 -20.032 -20.910  0.00  0.00    -0.021 C 
ATOM     18  C   UNL     1      35.604 -20.160 -21.011  0.00  0.00    -0.021 C 
ATOM     19  C   UNL     1      33.095 -20.830 -19.608  0.00  0.00    -0.002 C 
ATOM     20  C   UNL     1      35.615 -20.958 -19.709  0.00  0.00    -0.002 C 
ATOM     21  C   UNL     1      34.318 -21.739 -19.516  0.00  0.00    -0.000 C 
ENDBRANCH  13  16
ENDBRANCH  12  13
ENDBRANCH   3  12
TORSDOF 4
ENDMDL
MODEL 3
REMARK VINA RESULT:      -8.4      2.814      4.252
REMARK  Name = 2442
REMARK  4 active torsions:
REMARK  status: ('A' for Active; 'I' for Inactive)
REMARK    1  A    between atoms: C_3  and  C_12
REMARK    2  A    between atoms: C_4  and  N_9
REMARK    3  A    between atoms: C_12  and  N_13
REMARK    4  A    between atoms: N_13  and  C_16
REMARK                            x       y       z     vdW  Elec       q    Type
REMARK                         _______ _______ _______ _____ _____    ______ ____
ROOT
ATOM      1 BR   UNL     1      31.550  -9.423 -21.912  0.00  0.00    -0.048 Br
ATOM      2 BR   UNL     1      35.352 -10.353 -26.010  0.00  0.00    -0.049 Br
ATOM      3  C   UNL     1      33.282 -12.897 -23.461  0.00  0.00    -0.029 C 
ATOM      4  C   UNL     1      32.507 -12.034 -22.696  0.00  0.00    +0.042 C 
ATOM      5  C   UNL     1      34.129 -12.407 -24.447  0.00  0.00    +0.002 C 
ATOM      6  C   UNL     1      32.580 -10.660 -22.921  0.00  0.00    +0.048 C 
ATOM      7  C   UNL     1      34.202 -11.032 -24.672  0.00  0.00    +0.035 C 
ATOM      8  C   UNL     1      33.428 -10.158 -23.908  0.00  0.00    +0.015 C 
ENDROOT
BRANCH   4   9
ATOM      9  N   UNL     1      31.652 -12.559 -21.697  0.00  0.00    -0.357 N 
ATOM     10  H   UNL     1      31.710 -13.511 -21.451  0.00  0.00    +0.142 HD
ATOM     11  H   UNL     1      31.000 -11.973 -21.250  0.00  0.00    +0.142 HD
ENDBRANCH   4   9
BRANCH   3  12
ATOM     12  C   UNL     1      33.226 -14.386 -23.243  0.00  0.00    -0.049 C 
BRANCH  12  13
ATOM     13  N   UNL     1      34.427 -14.883 -22.570  0.00  0.00    +0.390 N 
ATOM     14  C   UNL     1      34.134 -15.200 -21.172  0.00  0.00    -0.100 C 
ATOM     15  H   UNL     1      35.137 -14.150 -22.593  0.00  0.00    -0.079 HD
BRANCH  13  16
ATOM     16  C   UNL     1      34.952 -16.057 -23.263  0.00  0.00    -0.058 C 
ATOM     17  C   UNL     1      34.907 -17.274 -22.332  0.00  0.00    -0.021 C 
ATOM     18  C   UNL     1      34.147 -16.311 -24.542  0.00  0.00    -0.021 C 
ATOM     19  C   UNL     1      35.377 -18.539 -23.047  0.00  0.00    -0.002 C 
ATOM     20  C   UNL     1      34.617 -17.577 -25.254  0.00  0.00    -0.002 C 
ATOM     21  C   UNL     1      34.586 -18.790 -24.328  0.00  0.00    -0.000 C 
ENDBRANCH  13  16
ENDBRANCH  12  13
ENDBRANCH   3  12
TORSDOF 4
ENDMDL
MODEL 4
REMARK VINA RESULT:      -8.1      4.488      7.563
REMARK  Name = 2442
REMARK  4 active torsions:
REMARK  status: ('A' for Active; 'I' for Inactive)
REMARK    1  A    between atoms: C_3  and  C_12
REMARK    2  A    between atoms: C_4  and  N_9
REMARK    3  A    between atoms: C_12  and  N_13
REMARK    4  A    between atoms: N_13  and  C_16
REMARK                            x       y       z     vdW  Elec       q    Type
REMARK                         _______ _______ _______ _____ _____    ______ ____
ROOT
ATOM      1 BR   UNL     1      32.049 -23.296 -16.968  0.00  0.00    -0.048 Br
ATOM      2 BR   UNL     1      37.574 -22.605 -15.914  0.00  0.00    -0.049 Br
ATOM      3  C   UNL     1      35.195 -21.675 -19.189  0.00  0.00    -0.029 C 
ATOM      4  C   UNL     1      33.930 -22.104 -18.808  0.00  0.00    +0.042 C 
ATOM      5  C   UNL     1      36.282 -21.820 -18.337  0.00  0.00    +0.002 C 
ATOM      6  C   UNL     1      33.750 -22.687 -17.554  0.00  0.00    +0.048 C 
ATOM      7  C   UNL     1      36.101 -22.402 -17.083  0.00  0.00    +0.035 C 
ATOM      8  C   UNL     1      34.836 -22.837 -16.691  0.00  0.00    +0.015 C 
ENDROOT
BRANCH   4   9
ATOM      9  N   UNL     1      32.839 -21.945 -19.696  0.00  0.00    -0.357 N 
ATOM     10  H   UNL     1      32.785 -22.494 -20.512  0.00  0.00    +0.142 HD
ATOM     11  H   UNL     1      32.135 -21.287 -19.497  0.00  0.00    +0.142 HD
ENDBRANCH   4   9
BRANCH   3  12
ATOM     12  C   UNL     1      35.423 -21.042 -20.537  0.00  0.00    -0.049 C 
BRANCH  12  13
ATOM     13  N   UNL     1      35.711 -19.612 -20.426  0.00  0.00    +0.390 N 
ATOM     14  C   UNL     1      37.137 -19.360 -20.633  0.00  0.00    -0.100 C 
ATOM     15  H   UNL     1      35.461 -19.304 -19.486  0.00  0.00    -0.079 HD
BRANCH  13  16
ATOM     16  C   UNL     1      34.913 -18.855 -21.387  0.00  0.00    -0.058 C 
ATOM     17  C   UNL     1      35.169 -17.354 -21.209  0.00  0.00    -0.021 C 
ATOM     18  C   UNL     1      35.246 -19.307 -22.813  0.00  0.00    -0.021 C 
ATOM     19  C   UNL     1      34.410 -16.532 -22.249  0.00  0.00    -0.002 C 
ATOM     20  C   UNL     1      34.486 -18.483 -23.850  0.00  0.00    -0.002 C 
ATOM     21  C   UNL     1      34.730 -16.987 -23.670  0.00  0.00    -0.000 C 
ENDBRANCH  13  16
ENDBRANCH  12  13
ENDBRANCH   3  12
TORSDOF 4
ENDMDL
MODEL 5
REMARK VINA RESULT:      -8.0      3.793      5.546
REMARK  Name = 2442
REMARK  4 active torsions:
REMARK  status: ('A' for Active; 'I' for Inactive)
REMARK    1  A    between atoms: C_3  and  C_12
REMARK    2  A    between atoms: C_4  and  N_9
REMARK    3  A    between atoms: C_12  and  N_13
REMARK    4  A    between atoms: N_13  and  C_16
REMARK                            x       y       z     vdW  Elec       q    Type
REMARK                         _______ _______ _______ _____ _____    ______ ____
ROOT
ATOM      1 BR   UNL     1      33.961  -7.624 -23.747  0.00  0.00    -0.048 Br
ATOM      2 BR   UNL     1      30.595 -11.166 -20.878  0.00  0.00    -0.049 Br
ATOM      3  C   UNL     1      33.543 -11.782 -23.738  0.00  0.00    -0.029 C 
ATOM      4  C   UNL     1      33.983 -10.498 -24.036  0.00  0.00    +0.042 C 
ATOM      5  C   UNL     1      32.538 -11.990 -22.802  0.00  0.00    +0.002 C 
ATOM      6  C   UNL     1      33.409  -9.405 -23.387  0.00  0.00    +0.048 C 
ATOM      7  C   UNL     1      31.964 -10.896 -22.153  0.00  0.00    +0.035 C 
ATOM      8  C   UNL     1      32.399  -9.604 -22.446  0.00  0.00    +0.015 C 
ENDROOT
BRANCH   4   9
ATOM      9  N   UNL     1      35.009 -10.314 -24.994  0.00  0.00    -0.357 N 
ATOM     10  H   UNL     1      35.011  -9.511 -25.565  0.00  0.00    +0.142 HD
ATOM     11  H   UNL     1      35.719 -10.988 -25.091  0.00  0.00    +0.142 HD
ENDBRANCH   4   9
BRANCH   3  12
ATOM     12  C   UNL     1      34.142 -12.983 -24.421  0.00  0.00    -0.049 C 
BRANCH  12  13
ATOM     13  N   UNL     1      33.116 -13.934 -24.848  0.00  0.00    +0.390 N 
ATOM     14  C   UNL     1      32.991 -13.930 -26.305  0.00  0.00    -0.100 C 
ATOM     15  H   UNL     1      32.223 -13.648 -24.446  0.00  0.00    -0.079 HD
BRANCH  13  16
ATOM     16  C   UNL     1      33.431 -15.277 -24.365  0.00  0.00    -0.058 C 
ATOM     17  C   UNL     1      33.825 -16.175 -25.543  0.00  0.00    -0.021 C 
ATOM     18  C   UNL     1      34.555 -15.206 -23.324  0.00  0.00    -0.021 C 
ATOM     19  C   UNL     1      34.236 -17.567 -25.068  0.00  0.00    -0.002 C 
ATOM     20  C   UNL     1      34.965 -16.599 -22.853  0.00  0.00    -0.002 C 
ATOM     21  C   UNL     1      35.347 -17.501 -24.023  0.00  0.00    -0.000 C 
ENDBRANCH  13  16
ENDBRANCH  12  13
ENDBRANCH   3  12
TORSDOF 4
ENDMDL
MODEL 6
REMARK VINA RESULT:      -7.7      3.921      8.280
REMARK  Name = 2442
REMARK  4 active torsions:
REMARK  status: ('A' for Active; 'I' for Inactive)
REMARK    1  A    between atoms: C_3  and  C_12
REMARK    2  A    between atoms: C_4  and  N_9
REMARK    3  A    between atoms: C_12  and  N_13
REMARK    4  A    between atoms: N_13  and  C_16
REMARK                            x       y       z     vdW  Elec       q    Type
REMARK                         _______ _______ _______ _____ _____    ______ ____
ROOT
ATOM      1 BR   UNL     1      34.211 -17.562 -25.487  0.00  0.00    -0.048 Br
ATOM      2 BR   UNL     1      34.639 -15.396 -20.267  0.00  0.00    -0.049 Br
ATOM      3  C   UNL     1      33.646 -13.722 -23.937  0.00  0.00    -0.029 C 
ATOM      4  C   UNL     1      33.727 -14.793 -24.818  0.00  0.00    +0.042 C 
ATOM      5  C   UNL     1      33.916 -13.891 -22.585  0.00  0.00    +0.002 C 
ATOM      6  C   UNL     1      34.081 -16.054 -24.338  0.00  0.00    +0.048 C 
ATOM      7  C   UNL     1      34.270 -15.153 -22.106  0.00  0.00    +0.035 C 
ATOM      8  C   UNL     1      34.354 -16.233 -22.982  0.00  0.00    +0.015 C 
ENDROOT
BRANCH   4   9
ATOM      9  N   UNL     1      33.448 -14.593 -26.192  0.00  0.00    -0.357 N 
ATOM     10  H   UNL     1      33.019 -13.759 -26.490  0.00  0.00    +0.142 HD
ATOM     11  H   UNL     1      33.682 -15.289 -26.847  0.00  0.00    +0.142 HD
ENDBRANCH   4   9
BRANCH   3  12
ATOM     12  C   UNL     1      33.266 -12.348 -24.423  0.00  0.00    -0.049 C 
BRANCH  12  13
ATOM     13  N   UNL     1      34.429 -11.465 -24.523  0.00  0.00    +0.390 N 
ATOM     14  C   UNL     1      34.680 -11.109 -25.920  0.00  0.00    -0.100 C 
ATOM     15  H   UNL     1      35.244 -11.963 -24.165  0.00  0.00    -0.079 HD
BRANCH  13  16
ATOM     16  C   UNL     1      34.229 -10.264 -23.717  0.00  0.00    -0.058 C 
ATOM     17  C   UNL     1      34.969  -9.081 -24.351  0.00  0.00    -0.021 C 
ATOM     18  C   UNL     1      32.731  -9.969 -23.581  0.00  0.00    -0.021 C 
ATOM     19  C   UNL     1      34.721  -7.788 -23.577  0.00  0.00    -0.002 C 
ATOM     20  C   UNL     1      32.485  -8.676 -22.807  0.00  0.00    -0.002 C 
ATOM     21  C   UNL     1      33.229  -7.497 -23.429  0.00  0.00    -0.000 C 
ENDBRANCH  13  16
ENDBRANCH  12  13
ENDBRANCH   3  12
TORSDOF 4
ENDMDL
MODEL 7
REMARK VINA RESULT:      -7.7      5.546      8.745
REMARK  Name = 2442
REMARK  4 active torsions:
REMARK  status: ('A' for Active; 'I' for Inactive)
REMARK    1  A    between atoms: C_3  and  C_12
REMARK    2  A    between atoms: C_4  and  N_9
REMARK    3  A    between atoms: C_12  and  N_13
REMARK    4  A    between atoms: N_13  and  C_16
REMARK                            x       y       z     vdW  Elec       q    Type
REMARK                         _______ _______ _______ _____ _____    ______ ____
ROOT
ATOM      1 BR   UNL     1      34.327 -24.180 -13.038  0.00  0.00    -0.048 Br
ATOM      2 BR   UNL     1      29.697 -22.924 -16.054  0.00  0.00    -0.049 Br
ATOM      3  C   UNL     1      33.708 -23.283 -17.072  0.00  0.00    -0.029 C 
ATOM      4  C   UNL     1      34.323 -23.610 -15.871  0.00  0.00    +0.042 C 
ATOM      5  C   UNL     1      32.336 -23.077 -17.136  0.00  0.00    +0.002 C 
ATOM      6  C   UNL     1      33.552 -23.735 -14.715  0.00  0.00    +0.048 C 
ATOM      7  C   UNL     1      31.566 -23.202 -15.980  0.00  0.00    +0.035 C 
ATOM      8  C   UNL     1      32.174 -23.530 -14.769  0.00  0.00    +0.015 C 
ENDROOT
BRANCH   4   9
ATOM      9  N   UNL     1      35.723 -23.814 -15.832  0.00  0.00    -0.357 N 
ATOM     10  H   UNL     1      36.311 -23.119 -15.458  0.00  0.00    +0.142 HD
ATOM     11  H   UNL     1      36.108 -24.649 -16.181  0.00  0.00    +0.142 HD
ENDBRANCH   4   9
BRANCH   3  12
ATOM     12  C   UNL     1      34.511 -23.139 -18.338  0.00  0.00    -0.049 C 
BRANCH  12  13
ATOM     13  N   UNL     1      34.994 -21.771 -18.525  0.00  0.00    +0.390 N 
ATOM     14  C   UNL     1      36.451 -21.723 -18.404  0.00  0.00    -0.100 C 
ATOM     15  H   UNL     1      34.589 -21.183 -17.796  0.00  0.00    -0.079 HD
BRANCH  13  16
ATOM     16  C   UNL     1      34.572 -21.253 -19.824  0.00  0.00    -0.058 C 
ATOM     17  C   UNL     1      33.180 -20.623 -19.706  0.00  0.00    -0.021 C 
ATOM     18  C   UNL     1      35.597 -20.236 -20.339  0.00  0.00    -0.021 C 
ATOM     19  C   UNL     1      32.736 -20.001 -21.029  0.00  0.00    -0.002 C 
ATOM     20  C   UNL     1      35.150 -19.615 -21.660  0.00  0.00    -0.002 C 
ATOM     21  C   UNL     1      33.760 -18.996 -21.550  0.00  0.00    -0.000 C 
ENDBRANCH  13  16
ENDBRANCH  12  13
ENDBRANCH   3  12
TORSDOF 4
ENDMDL
MODEL 8
REMARK VINA RESULT:      -7.6      2.876      4.762
REMARK  Name = 2442
REMARK  4 active torsions:
REMARK  status: ('A' for Active; 'I' for Inactive)
REMARK    1  A    between atoms: C_3  and  C_12
REMARK    2  A    between atoms: C_4  and  N_9
REMARK    3  A    between atoms: C_12  and  N_13
REMARK    4  A    between atoms: N_13  and  C_16
REMARK                            x       y       z     vdW  Elec       q    Type
REMARK                         _______ _______ _______ _____ _____    ______ ____
ROOT
ATOM      1 BR   UNL     1      33.785  -9.333 -24.347  0.00  0.00    -0.048 Br
ATOM      2 BR   UNL     1      30.659 -10.841 -19.867  0.00  0.00    -0.049 Br
ATOM      3  C   UNL     1      32.831 -13.031 -22.649  0.00  0.00    -0.029 C 
ATOM      4  C   UNL     1      33.364 -12.059 -23.487  0.00  0.00    +0.042 C 
ATOM      5  C   UNL     1      32.027 -12.679 -21.572  0.00  0.00    +0.002 C 
ATOM      6  C   UNL     1      33.089 -10.713 -23.242  0.00  0.00    +0.048 C 
ATOM      7  C   UNL     1      31.752 -11.332 -21.329  0.00  0.00    +0.035 C 
ATOM      8  C   UNL     1      32.283 -10.350 -22.164  0.00  0.00    +0.015 C 
ENDROOT
BRANCH   4   9
ATOM      9  N   UNL     1      34.180 -12.444 -24.577  0.00  0.00    -0.357 N 
ATOM     10  H   UNL     1      33.771 -12.653 -25.448  0.00  0.00    +0.142 HD
ATOM     11  H   UNL     1      35.156 -12.505 -24.464  0.00  0.00    +0.142 HD
ENDBRANCH   4   9
BRANCH   3  12
ATOM     12  C   UNL     1      33.108 -14.492 -22.885  0.00  0.00    -0.049 C 
BRANCH  12  13
ATOM     13  N   UNL     1      34.403 -14.896 -22.339  0.00  0.00    +0.390 N 
ATOM     14  C   UNL     1      34.267 -15.284 -20.935  0.00  0.00    -0.100 C 
ATOM     15  H   UNL     1      35.040 -14.100 -22.394  0.00  0.00    -0.079 HD
BRANCH  13  16
ATOM     16  C   UNL     1      34.968 -15.993 -23.121  0.00  0.00    -0.058 C 
ATOM     17  C   UNL     1      35.002 -17.272 -22.276  0.00  0.00    -0.021 C 
ATOM     18  C   UNL     1      34.148 -16.199 -24.400  0.00  0.00    -0.021 C 
ATOM     19  C   UNL     1      35.516 -18.461 -23.086  0.00  0.00    -0.002 C 
ATOM     20  C   UNL     1      34.662 -17.388 -25.206  0.00  0.00    -0.002 C 
ATOM     21  C   UNL     1      34.709 -18.661 -24.366  0.00  0.00    -0.000 C 
ENDBRANCH  13  16
ENDBRANCH  12  13
ENDBRANCH   3  12
TORSDOF 4
ENDMDL
MODEL 9
REMARK VINA RESULT:      -7.6      3.958      8.149
REMARK  Name = 2442
REMARK  4 active torsions:
REMARK  status: ('A' for Active; 'I' for Inactive)
REMARK    1  A    between atoms: C_3  and  C_12
REMARK    2  A    between atoms: C_4  and  N_9
REMARK    3  A    between atoms: C_12  and  N_13
REMARK    4  A    between atoms: N_13  and  C_16
REMARK                            x       y       z     vdW  Elec       q    Type
REMARK                         _______ _______ _______ _____ _____    ______ ____
ROOT
ATOM      1 BR   UNL     1      32.403 -15.160 -20.190  0.00  0.00    -0.048 Br
ATOM      2 BR   UNL     1      34.724 -16.956 -25.037  0.00  0.00    -0.049 Br
ATOM      3  C   UNL     1      33.237 -13.272 -23.823  0.00  0.00    -0.029 C 
ATOM      4  C   UNL     1      32.813 -13.503 -22.521  0.00  0.00    +0.042 C 
ATOM      5  C   UNL     1      33.805 -14.291 -24.578  0.00  0.00    +0.002 C 
ATOM      6  C   UNL     1      32.961 -14.774 -21.964  0.00  0.00    +0.048 C 
ATOM      7  C   UNL     1      33.952 -15.561 -24.020  0.00  0.00    +0.035 C 
ATOM      8  C   UNL     1      33.530 -15.803 -22.714  0.00  0.00    +0.015 C 
ENDROOT
BRANCH   4   9
ATOM      9  N   UNL     1      32.236 -12.448 -21.774  0.00  0.00    -0.357 N 
ATOM     10  H   UNL     1      32.748 -12.023 -21.048  0.00  0.00    +0.142 HD
ATOM     11  H   UNL     1      31.324 -12.141 -21.979  0.00  0.00    +0.142 HD
ENDBRANCH   4   9
BRANCH   3  12
ATOM     12  C   UNL     1      33.091 -11.913 -24.455  0.00  0.00    -0.049 C 
BRANCH  12  13
ATOM     13  N   UNL     1      34.324 -11.131 -24.357  0.00  0.00    +0.390 N 
ATOM     14  C   UNL     1      34.869 -10.869 -25.689  0.00  0.00    -0.100 C 
ATOM     15  H   UNL     1      35.009 -11.673 -23.828  0.00  0.00    -0.079 HD
BRANCH  13  16
ATOM     16  C   UNL     1      34.080  -9.878 -23.648  0.00  0.00    -0.058 C 
ATOM     17  C   UNL     1      34.963  -8.769 -24.230  0.00  0.00    -0.021 C 
ATOM     18  C   UNL     1      32.595  -9.507 -23.739  0.00  0.00    -0.021 C 
ATOM     19  C   UNL     1      34.680  -7.424 -23.564  0.00  0.00    -0.002 C 
ATOM     20  C   UNL     1      32.315  -8.161 -23.074  0.00  0.00    -0.002 C 
ATOM     21  C   UNL     1      33.201  -7.056 -23.643  0.00  0.00    -0.000 C 
ENDBRANCH  13  16
ENDBRANCH  12  13
ENDBRANCH   3  12
TORSDOF 4
ENDMDL
