MODEL 1
REMARK VINA RESULT:     -10.0      0.000      0.000
REMARK  Name = 153909
REMARK  5 active torsions:
REMARK  status: ('A' for Active; 'I' for Inactive)
REMARK    1  A    between atoms: N_2  and  S_14
REMARK    2  A    between atoms: C_11  and  O_27
REMARK    3  A    between atoms: S_14  and  C_17
REMARK    4  A    between atoms: C_18  and  C_24
REMARK    5  A    between atoms: C_24  and  O_25
REMARK                            x       y       z     vdW  Elec       q    Type
REMARK                         _______ _______ _______ _____ _____    ______ ____
ROOT
ATOM      1  O   UNL     1      32.072 -12.936 -21.649  0.00  0.00    -0.250 OA
ATOM      2  N   UNL     1      33.902 -13.961 -22.632  0.00  0.00    -0.168 N 
ATOM      3  N   UNL     1      33.125 -11.769 -23.353  0.00  0.00    -0.164 N 
ATOM      4  N   UNL     1      33.001  -9.475 -23.784  0.00  0.00    -0.264 NA
ATOM      5  N   UNL     1      32.318 -10.369 -21.664  0.00  0.00    -0.229 NA
ATOM      6  N   UNL     1      32.177  -8.009 -22.073  0.00  0.00    -0.247 NA
ATOM      7  C   UNL     1      32.948 -12.890 -22.511  0.00  0.00    +0.336 C 
ATOM      8  C   UNL     1      32.792 -10.444 -22.902  0.00  0.00    +0.232 C 
ATOM      9  C   UNL     1      33.658 -11.996 -24.697  0.00  0.00    +0.136 C 
ATOM     10  C   UNL     1      32.668  -8.269 -23.295  0.00  0.00    +0.142 C 
ATOM     11  C   UNL     1      32.028  -9.105 -21.313  0.00  0.00    +0.331 C 
ATOM     12  C   UNL     1      32.864  -7.103 -24.202  0.00  0.00    +0.145 C 
ATOM     13  H   UNL     1      34.623 -13.851 -23.294  0.00  0.00    +0.178 HD
ENDROOT
BRANCH   2  14
ATOM     14  S   UNL     1      33.888 -15.409 -21.721  0.00  0.00    +0.077 S 
ATOM     15  O   UNL     1      35.008 -15.402 -20.800  0.00  0.00    -0.150 OA
ATOM     16  O   UNL     1      32.546 -15.674 -21.241  0.00  0.00    -0.150 OA
BRANCH  14  17
ATOM     17  C   UNL     1      34.265 -16.593 -22.979  0.00  0.00    +0.131 C 
ATOM     18  C   UNL     1      34.572 -17.905 -22.649  0.00  0.00    +0.094 C 
ATOM     19  C   UNL     1      34.244 -16.170 -24.299  0.00  0.00    +0.020 C 
ATOM     20  C   UNL     1      34.864 -18.815 -23.665  0.00  0.00    +0.008 C 
ATOM     21  C   UNL     1      34.537 -17.081 -25.314  0.00  0.00    +0.001 C 
ATOM     22  C   UNL     1      34.846 -18.403 -24.997  0.00  0.00    +0.000 C 
BRANCH  18  24
ATOM     23  O   UNL     1      35.610 -18.377 -20.556  0.00  0.00    -0.245 OA
ATOM     24  C   UNL     1      34.599 -18.372 -21.269  0.00  0.00    +0.343 C 
BRANCH  24  25
ATOM     25  O   UNL     1      33.368 -18.803 -20.862  0.00  0.00    -0.441 OA
ATOM     26  C   UNL     1      33.248 -20.192 -20.534  0.00  0.00    +0.256 C 
ENDBRANCH  24  25
ENDBRANCH  18  24
ENDBRANCH  14  17
ENDBRANCH   2  14
BRANCH  11  27
ATOM     27  O   UNL     1      31.530  -8.916 -20.046  0.00  0.00    -0.395 OA
ATOM     28  C   UNL     1      31.477 -10.061 -19.207  0.00  0.00    +0.271 C 
ENDBRANCH  11  27
TORSDOF 5
ENDMDL
MODEL 2
REMARK VINA RESULT:      -9.4      3.185      8.339
REMARK  Name = 153909
REMARK  5 active torsions:
REMARK  status: ('A' for Active; 'I' for Inactive)
REMARK    1  A    between atoms: N_2  and  S_14
REMARK    2  A    between atoms: C_11  and  O_27
REMARK    3  A    between atoms: S_14  and  C_17
REMARK    4  A    between atoms: C_18  and  C_24
REMARK    5  A    between atoms: C_24  and  O_25
REMARK                            x       y       z     vdW  Elec       q    Type
REMARK                         _______ _______ _______ _____ _____    ______ ____
ROOT
ATOM      1  O   UNL     1      31.598 -12.859 -23.649  0.00  0.00    -0.250 OA
ATOM      2  N   UNL     1      32.522 -11.979 -21.715  0.00  0.00    -0.168 N 
ATOM      3  N   UNL     1      33.017 -14.247 -22.450  0.00  0.00    -0.164 N 
ATOM      4  N   UNL     1      34.132 -16.147 -23.232  0.00  0.00    -0.264 NA
ATOM      5  N   UNL     1      33.194 -14.553 -24.761  0.00  0.00    -0.229 NA
ATOM      6  N   UNL     1      34.332 -16.492 -25.597  0.00  0.00    -0.247 NA
ATOM      7  C   UNL     1      32.309 -13.043 -22.662  0.00  0.00    +0.336 C 
ATOM      8  C   UNL     1      33.481 -15.038 -23.559  0.00  0.00    +0.232 C 
ATOM      9  C   UNL     1      33.265 -14.666 -21.070  0.00  0.00    +0.136 C 
ATOM     10  C   UNL     1      34.533 -16.833 -24.314  0.00  0.00    +0.142 C 
ATOM     11  C   UNL     1      33.656 -15.342 -25.744  0.00  0.00    +0.331 C 
ATOM     12  C   UNL     1      35.278 -18.100 -24.066  0.00  0.00    +0.145 C 
ATOM     13  H   UNL     1      33.149 -12.152 -20.975  0.00  0.00    +0.178 HD
ENDROOT
BRANCH   2  14
ATOM     14  S   UNL     1      31.777 -10.440 -21.769  0.00  0.00    +0.077 S 
ATOM     15  O   UNL     1      30.579 -10.520 -22.582  0.00  0.00    -0.150 OA
ATOM     16  O   UNL     1      31.722  -9.875 -20.435  0.00  0.00    -0.150 OA
BRANCH  14  17
ATOM     17  C   UNL     1      32.971  -9.529 -22.703  0.00  0.00    +0.131 C 
ATOM     18  C   UNL     1      33.069  -8.152 -22.577  0.00  0.00    +0.094 C 
ATOM     19  C   UNL     1      33.802 -10.234 -23.560  0.00  0.00    +0.020 C 
ATOM     20  C   UNL     1      34.022  -7.462 -23.328  0.00  0.00    +0.008 C 
ATOM     21  C   UNL     1      34.755  -9.543 -24.311  0.00  0.00    +0.001 C 
ATOM     22  C   UNL     1      34.864  -8.159 -24.194  0.00  0.00    +0.000 C 
BRANCH  18  24
ATOM     23  O   UNL     1      32.501  -7.091 -20.519  0.00  0.00    -0.245 OA
ATOM     24  C   UNL     1      32.207  -7.391 -21.683  0.00  0.00    +0.343 C 
BRANCH  24  25
ATOM     25  O   UNL     1      31.032  -7.048 -22.292  0.00  0.00    -0.441 OA
ATOM     26  C   UNL     1      30.726  -5.651 -22.360  0.00  0.00    +0.256 C 
ENDBRANCH  24  25
ENDBRANCH  18  24
ENDBRANCH  14  17
ENDBRANCH   2  14
BRANCH  11  27
ATOM     27  O   UNL     1      33.413 -14.928 -27.033  0.00  0.00    -0.395 OA
ATOM     28  C   UNL     1      33.375 -13.526 -27.253  0.00  0.00    +0.271 C 
ENDBRANCH  11  27
TORSDOF 5
ENDMDL
MODEL 3
REMARK VINA RESULT:      -8.8      2.168      8.237
REMARK  Name = 153909
REMARK  5 active torsions:
REMARK  status: ('A' for Active; 'I' for Inactive)
REMARK    1  A    between atoms: N_2  and  S_14
REMARK    2  A    between atoms: C_11  and  O_27
REMARK    3  A    between atoms: S_14  and  C_17
REMARK    4  A    between atoms: C_18  and  C_24
REMARK    5  A    between atoms: C_24  and  O_25
REMARK                            x       y       z     vdW  Elec       q    Type
REMARK                         _______ _______ _______ _____ _____    ______ ____
ROOT
ATOM      1  O   UNL     1      34.209 -13.436 -22.307  0.00  0.00    -0.250 OA
ATOM      2  N   UNL     1      32.292 -12.660 -23.352  0.00  0.00    -0.168 N 
ATOM      3  N   UNL     1      33.482 -14.624 -24.161  0.00  0.00    -0.164 N 
ATOM      4  N   UNL     1      34.030 -16.822 -24.736  0.00  0.00    -0.264 NA
ATOM      5  N   UNL     1      34.415 -15.998 -22.516  0.00  0.00    -0.229 NA
ATOM      6  N   UNL     1      34.990 -18.260 -23.072  0.00  0.00    -0.247 NA
ATOM      7  C   UNL     1      33.409 -13.561 -23.234  0.00  0.00    +0.336 C 
ATOM      8  C   UNL     1      34.013 -15.906 -23.777  0.00  0.00    +0.232 C 
ATOM      9  C   UNL     1      33.002 -14.384 -25.522  0.00  0.00    +0.136 C 
ATOM     10  C   UNL     1      34.537 -17.990 -24.307  0.00  0.00    +0.142 C 
ATOM     11  C   UNL     1      34.898 -17.218 -22.231  0.00  0.00    +0.331 C 
ATOM     12  C   UNL     1      34.604 -19.096 -25.303  0.00  0.00    +0.145 C 
ATOM     13  H   UNL     1      31.643 -12.837 -24.072  0.00  0.00    +0.178 HD
ENDROOT
BRANCH   2  14
ATOM     14  S   UNL     1      31.998 -11.307 -22.346  0.00  0.00    +0.077 S 
ATOM     15  O   UNL     1      30.661 -10.807 -22.602  0.00  0.00    -0.150 OA
ATOM     16  O   UNL     1      32.424 -11.602 -20.992  0.00  0.00    -0.150 OA
BRANCH  14  17
ATOM     17  C   UNL     1      33.126 -10.133 -23.035  0.00  0.00    +0.131 C 
ATOM     18  C   UNL     1      33.167  -8.829 -22.565  0.00  0.00    +0.094 C 
ATOM     19  C   UNL     1      33.965 -10.556 -24.054  0.00  0.00    +0.020 C 
ATOM     20  C   UNL     1      34.068  -7.926 -23.129  0.00  0.00    +0.008 C 
ATOM     21  C   UNL     1      34.867  -9.653 -24.617  0.00  0.00    +0.001 C 
ATOM     22  C   UNL     1      34.918  -8.339 -24.154  0.00  0.00    +0.000 C 
BRANCH  18  24
ATOM     23  O   UNL     1      32.444  -8.647 -20.300  0.00  0.00    -0.245 OA
ATOM     24  C   UNL     1      32.295  -8.362 -21.495  0.00  0.00    +0.343 C 
BRANCH  24  25
ATOM     25  O   UNL     1      31.292  -7.568 -21.977  0.00  0.00    -0.441 OA
ATOM     26  C   UNL     1      31.342  -6.182 -21.621  0.00  0.00    +0.256 C 
ENDBRANCH  24  25
ENDBRANCH  18  24
ENDBRANCH  14  17
ENDBRANCH   2  14
BRANCH  11  27
ATOM     27  O   UNL     1      35.343 -17.421 -20.945  0.00  0.00    -0.395 OA
ATOM     28  C   UNL     1      35.990 -18.657 -20.684  0.00  0.00    +0.271 C 
ENDBRANCH  11  27
TORSDOF 5
ENDMDL
MODEL 4
REMARK VINA RESULT:      -8.3      1.863      3.249
REMARK  Name = 153909
REMARK  5 active torsions:
REMARK  status: ('A' for Active; 'I' for Inactive)
REMARK    1  A    between atoms: N_2  and  S_14
REMARK    2  A    between atoms: C_11  and  O_27
REMARK    3  A    between atoms: S_14  and  C_17
REMARK    4  A    between atoms: C_18  and  C_24
REMARK    5  A    between atoms: C_24  and  O_25
REMARK                            x       y       z     vdW  Elec       q    Type
REMARK                         _______ _______ _______ _____ _____    ______ ____
ROOT
ATOM      1  O   UNL     1      32.290 -11.745 -22.502  0.00  0.00    -0.250 OA
ATOM      2  N   UNL     1      34.081 -13.105 -23.061  0.00  0.00    -0.168 N 
ATOM      3  N   UNL     1      33.835 -10.870 -23.994  0.00  0.00    -0.164 N 
ATOM      4  N   UNL     1      34.181  -8.617 -24.513  0.00  0.00    -0.264 NA
ATOM      5  N   UNL     1      32.958  -9.255 -22.549  0.00  0.00    -0.229 NA
ATOM      6  N   UNL     1      33.295  -6.933 -23.052  0.00  0.00    -0.247 NA
ATOM      7  C   UNL     1      33.313 -11.892 -23.170  0.00  0.00    +0.336 C 
ATOM      8  C   UNL     1      33.645  -9.483 -23.662  0.00  0.00    +0.232 C 
ATOM      9  C   UNL     1      34.574 -11.264 -25.194  0.00  0.00    +0.136 C 
ATOM     10  C   UNL     1      33.964  -7.345 -24.141  0.00  0.00    +0.142 C 
ATOM     11  C   UNL     1      32.820  -7.942 -22.304  0.00  0.00    +0.331 C 
ATOM     12  C   UNL     1      34.524  -6.285 -25.025  0.00  0.00    +0.145 C 
ATOM     13  H   UNL     1      34.925 -13.153 -23.566  0.00  0.00    +0.178 HD
ENDROOT
BRANCH   2  14
ATOM     14  S   UNL     1      33.648 -14.472 -22.126  0.00  0.00    +0.077 S 
ATOM     15  O   UNL     1      34.499 -14.535 -20.954  0.00  0.00    -0.150 OA
ATOM     16  O   UNL     1      32.206 -14.537 -21.990  0.00  0.00    -0.150 OA
BRANCH  14  17
ATOM     17  C   UNL     1      34.158 -15.780 -23.201  0.00  0.00    +0.131 C 
ATOM     18  C   UNL     1      33.881 -15.732 -24.558  0.00  0.00    +0.094 C 
ATOM     19  C   UNL     1      34.843 -16.851 -22.644  0.00  0.00    +0.020 C 
ATOM     20  C   UNL     1      34.298 -16.779 -25.380  0.00  0.00    +0.008 C 
ATOM     21  C   UNL     1      35.259 -17.898 -23.467  0.00  0.00    +0.001 C 
ATOM     22  C   UNL     1      34.987 -17.862 -24.834  0.00  0.00    +0.000 C 
BRANCH  18  24
ATOM     23  O   UNL     1      32.033 -14.250 -24.826  0.00  0.00    -0.245 OA
ATOM     24  C   UNL     1      33.165 -14.617 -25.165  0.00  0.00    +0.343 C 
BRANCH  24  25
ATOM     25  O   UNL     1      33.901 -14.028 -26.154  0.00  0.00    -0.441 OA
ATOM     26  C   UNL     1      33.211 -13.712 -27.368  0.00  0.00    +0.256 C 
ENDBRANCH  24  25
ENDBRANCH  18  24
ENDBRANCH  14  17
ENDBRANCH   2  14
BRANCH  11  27
ATOM     27  O   UNL     1      32.122  -7.596 -21.171  0.00  0.00    -0.395 OA
ATOM     28  C   UNL     1      32.233  -8.476 -20.063  0.00  0.00    +0.271 C 
ENDBRANCH  11  27
TORSDOF 5
ENDMDL
MODEL 5
REMARK VINA RESULT:      -8.3      2.437      8.098
REMARK  Name = 153909
REMARK  5 active torsions:
REMARK  status: ('A' for Active; 'I' for Inactive)
REMARK    1  A    between atoms: N_2  and  S_14
REMARK    2  A    between atoms: C_11  and  O_27
REMARK    3  A    between atoms: S_14  and  C_17
REMARK    4  A    between atoms: C_18  and  C_24
REMARK    5  A    between atoms: C_24  and  O_25
REMARK                            x       y       z     vdW  Elec       q    Type
REMARK                         _______ _______ _______ _____ _____    ______ ____
ROOT
ATOM      1  O   UNL     1      34.417 -11.665 -23.124  0.00  0.00    -0.250 OA
ATOM      2  N   UNL     1      32.659 -10.754 -24.327  0.00  0.00    -0.168 N 
ATOM      3  N   UNL     1      33.586 -12.937 -24.876  0.00  0.00    -0.164 N 
ATOM      4  N   UNL     1      33.838 -15.239 -25.197  0.00  0.00    -0.264 NA
ATOM      5  N   UNL     1      34.270 -14.239 -23.058  0.00  0.00    -0.229 NA
ATOM      6  N   UNL     1      34.539 -16.605 -23.353  0.00  0.00    -0.247 NA
ATOM      7  C   UNL     1      33.635 -11.780 -24.067  0.00  0.00    +0.336 C 
ATOM      8  C   UNL     1      33.922 -14.230 -24.339  0.00  0.00    +0.232 C 
ATOM      9  C   UNL     1      33.184 -12.783 -26.274  0.00  0.00    +0.136 C 
ATOM     10  C   UNL     1      34.165 -16.411 -24.628  0.00  0.00    +0.142 C 
ATOM     11  C   UNL     1      34.570 -15.475 -22.628  0.00  0.00    +0.331 C 
ATOM     12  C   UNL     1      34.106 -17.617 -25.500  0.00  0.00    +0.145 C 
ATOM     13  H   UNL     1      32.013 -10.918 -25.052  0.00  0.00    +0.178 HD
ENDROOT
BRANCH   2  14
ATOM     14  S   UNL     1      32.527  -9.273 -23.479  0.00  0.00    +0.077 S 
ATOM     15  O   UNL     1      33.851  -8.714 -23.290  0.00  0.00    -0.150 OA
ATOM     16  O   UNL     1      31.467  -8.470 -24.058  0.00  0.00    -0.150 OA
BRANCH  14  17
ATOM     17  C   UNL     1      31.981  -9.846 -21.898  0.00  0.00    +0.131 C 
ATOM     18  C   UNL     1      32.007  -9.010 -20.793  0.00  0.00    +0.094 C 
ATOM     19  C   UNL     1      31.527 -11.153 -21.800  0.00  0.00    +0.020 C 
ATOM     20  C   UNL     1      31.569  -9.491 -19.559  0.00  0.00    +0.008 C 
ATOM     21  C   UNL     1      31.089 -11.634 -20.565  0.00  0.00    +0.001 C 
ATOM     22  C   UNL     1      31.110 -10.804 -19.446  0.00  0.00    +0.000 C 
BRANCH  18  24
ATOM     23  O   UNL     1      33.617  -7.268 -20.555  0.00  0.00    -0.245 OA
ATOM     24  C   UNL     1      32.479  -7.633 -20.872  0.00  0.00    +0.343 C 
BRANCH  24  25
ATOM     25  O   UNL     1      31.506  -6.797 -21.343  0.00  0.00    -0.441 OA
ATOM     26  C   UNL     1      31.944  -5.641 -22.065  0.00  0.00    +0.256 C 
ENDBRANCH  24  25
ENDBRANCH  18  24
ENDBRANCH  14  17
ENDBRANCH   2  14
BRANCH  11  27
ATOM     27  O   UNL     1      34.944 -15.596 -21.311  0.00  0.00    -0.395 OA
ATOM     28  C   UNL     1      34.944 -16.908 -20.768  0.00  0.00    +0.271 C 
ENDBRANCH  11  27
TORSDOF 5
ENDMDL
MODEL 6
REMARK VINA RESULT:      -8.2      2.845      4.964
REMARK  Name = 153909
REMARK  5 active torsions:
REMARK  status: ('A' for Active; 'I' for Inactive)
REMARK    1  A    between atoms: N_2  and  S_14
REMARK    2  A    between atoms: C_11  and  O_27
REMARK    3  A    between atoms: S_14  and  C_17
REMARK    4  A    between atoms: C_18  and  C_24
REMARK    5  A    between atoms: C_24  and  O_25
REMARK                            x       y       z     vdW  Elec       q    Type
REMARK                         _______ _______ _______ _____ _____    ______ ____
ROOT
ATOM      1  O   UNL     1      34.097 -16.091 -21.976  0.00  0.00    -0.250 OA
ATOM      2  N   UNL     1      35.410 -17.855 -22.705  0.00  0.00    -0.168 N 
ATOM      3  N   UNL     1      34.092 -16.518 -24.255  0.00  0.00    -0.164 N 
ATOM      4  N   UNL     1      33.468 -15.055 -25.968  0.00  0.00    -0.264 NA
ATOM      5  N   UNL     1      33.947 -14.237 -23.763  0.00  0.00    -0.229 NA
ATOM      6  N   UNL     1      33.307 -12.708 -25.498  0.00  0.00    -0.247 NA
ATOM      7  C   UNL     1      34.474 -16.783 -22.921  0.00  0.00    +0.336 C 
ATOM      8  C   UNL     1      33.816 -15.175 -24.694  0.00  0.00    +0.232 C 
ATOM      9  C   UNL     1      33.988 -17.649 -25.178  0.00  0.00    +0.136 C 
ATOM     10  C   UNL     1      33.225 -13.778 -26.305  0.00  0.00    +0.142 C 
ATOM     11  C   UNL     1      33.673 -13.013 -24.243  0.00  0.00    +0.331 C 
ATOM     12  C   UNL     1      32.825 -13.523 -27.717  0.00  0.00    +0.145 C 
ATOM     13  H   UNL     1      35.732 -18.341 -23.499  0.00  0.00    +0.178 HD
ENDROOT
BRANCH   2  14
ATOM     14  S   UNL     1      36.012 -18.354 -21.183  0.00  0.00    +0.077 S 
ATOM     15  O   UNL     1      37.262 -19.064 -21.376  0.00  0.00    -0.150 OA
ATOM     16  O   UNL     1      35.930 -17.257 -20.239  0.00  0.00    -0.150 OA
BRANCH  14  17
ATOM     17  C   UNL     1      34.802 -19.561 -20.730  0.00  0.00    +0.131 C 
ATOM     18  C   UNL     1      35.168 -20.713 -20.050  0.00  0.00    +0.094 C 
ATOM     19  C   UNL     1      33.481 -19.319 -21.074  0.00  0.00    +0.020 C 
ATOM     20  C   UNL     1      34.190 -21.645 -19.707  0.00  0.00    +0.008 C 
ATOM     21  C   UNL     1      32.502 -20.253 -20.730  0.00  0.00    +0.001 C 
ATOM     22  C   UNL     1      32.857 -21.415 -20.046  0.00  0.00    +0.000 C 
BRANCH  18  24
ATOM     23  O   UNL     1      37.361 -21.581 -20.399  0.00  0.00    -0.245 OA
ATOM     24  C   UNL     1      36.550 -20.988 -19.678  0.00  0.00    +0.343 C 
BRANCH  24  25
ATOM     25  O   UNL     1      36.838 -20.506 -18.432  0.00  0.00    -0.441 OA
ATOM     26  C   UNL     1      36.880 -21.461 -17.366  0.00  0.00    +0.256 C 
ENDBRANCH  24  25
ENDBRANCH  18  24
ENDBRANCH  14  17
ENDBRANCH   2  14
BRANCH  11  27
ATOM     27  O   UNL     1      33.779 -11.966 -23.358  0.00  0.00    -0.395 OA
ATOM     28  C   UNL     1      33.822 -10.662 -23.918  0.00  0.00    +0.271 C 
ENDBRANCH  11  27
TORSDOF 5
ENDMDL
MODEL 7
REMARK VINA RESULT:      -8.2      3.394      5.419
REMARK  Name = 153909
REMARK  5 active torsions:
REMARK  status: ('A' for Active; 'I' for Inactive)
REMARK    1  A    between atoms: N_2  and  S_14
REMARK    2  A    between atoms: C_11  and  O_27
REMARK    3  A    between atoms: S_14  and  C_17
REMARK    4  A    between atoms: C_18  and  C_24
REMARK    5  A    between atoms: C_24  and  O_25
REMARK                            x       y       z     vdW  Elec       q    Type
REMARK                         _______ _______ _______ _____ _____    ______ ____
ROOT
ATOM      1  O   UNL     1      35.571 -16.676 -23.057  0.00  0.00    -0.250 OA
ATOM      2  N   UNL     1      35.119 -17.584 -20.975  0.00  0.00    -0.168 N 
ATOM      3  N   UNL     1      34.428 -15.324 -21.560  0.00  0.00    -0.164 N 
ATOM      4  N   UNL     1      33.128 -13.446 -22.056  0.00  0.00    -0.264 NA
ATOM      5  N   UNL     1      33.734 -15.012 -23.770  0.00  0.00    -0.229 NA
ATOM      6  N   UNL     1      32.399 -13.094 -24.314  0.00  0.00    -0.247 NA
ATOM      7  C   UNL     1      35.094 -16.512 -21.935  0.00  0.00    +0.336 C 
ATOM      8  C   UNL     1      33.712 -14.538 -22.530  0.00  0.00    +0.232 C 
ATOM      9  C   UNL     1      34.485 -14.918 -20.155  0.00  0.00    +0.136 C 
ATOM     10  C   UNL     1      32.482 -12.764 -23.016  0.00  0.00    +0.142 C 
ATOM     11  C   UNL     1      33.049 -14.229 -24.619  0.00  0.00    +0.331 C 
ATOM     12  C   UNL     1      31.786 -11.515 -22.596  0.00  0.00    +0.145 C 
ATOM     13  H   UNL     1      34.670 -17.428 -20.112  0.00  0.00    +0.178 HD
ENDROOT
BRANCH   2  14
ATOM     14  S   UNL     1      35.864 -19.107 -21.207  0.00  0.00    +0.077 S 
ATOM     15  O   UNL     1      35.814 -19.450 -22.615  0.00  0.00    -0.150 OA
ATOM     16  O   UNL     1      37.120 -19.154 -20.485  0.00  0.00    -0.150 OA
BRANCH  14  17
ATOM     17  C   UNL     1      34.714 -20.166 -20.380  0.00  0.00    +0.131 C 
ATOM     18  C   UNL     1      35.157 -21.165 -19.527  0.00  0.00    +0.094 C 
ATOM     19  C   UNL     1      33.362 -19.964 -20.609  0.00  0.00    +0.020 C 
ATOM     20  C   UNL     1      34.225 -21.984 -18.889  0.00  0.00    +0.008 C 
ATOM     21  C   UNL     1      32.430 -20.782 -19.970  0.00  0.00    +0.001 C 
ATOM     22  C   UNL     1      32.862 -21.791 -19.111  0.00  0.00    +0.000 C 
BRANCH  18  24
ATOM     23  O   UNL     1      37.341 -21.959 -20.060  0.00  0.00    -0.245 OA
ATOM     24  C   UNL     1      36.573 -21.395 -19.271  0.00  0.00    +0.343 C 
BRANCH  24  25
ATOM     25  O   UNL     1      36.946 -20.908 -18.050  0.00  0.00    -0.441 OA
ATOM     26  C   UNL     1      37.193 -21.873 -17.020  0.00  0.00    +0.256 C 
ENDBRANCH  24  25
ENDBRANCH  18  24
ENDBRANCH  14  17
ENDBRANCH   2  14
BRANCH  11  27
ATOM     27  O   UNL     1      33.007 -14.632 -25.933  0.00  0.00    -0.395 OA
ATOM     28  C   UNL     1      33.205 -13.623 -26.913  0.00  0.00    +0.271 C 
ENDBRANCH  11  27
TORSDOF 5
ENDMDL
MODEL 8
REMARK VINA RESULT:      -8.1      4.603      9.025
REMARK  Name = 153909
REMARK  5 active torsions:
REMARK  status: ('A' for Active; 'I' for Inactive)
REMARK    1  A    between atoms: N_2  and  S_14
REMARK    2  A    between atoms: C_11  and  O_27
REMARK    3  A    between atoms: S_14  and  C_17
REMARK    4  A    between atoms: C_18  and  C_24
REMARK    5  A    between atoms: C_24  and  O_25
REMARK                            x       y       z     vdW  Elec       q    Type
REMARK                         _______ _______ _______ _____ _____    ______ ____
ROOT
ATOM      1  O   UNL     1      35.591 -20.042 -21.916  0.00  0.00    -0.250 OA
ATOM      2  N   UNL     1      34.150 -18.256 -22.237  0.00  0.00    -0.168 N 
ATOM      3  N   UNL     1      33.509 -20.192 -20.907  0.00  0.00    -0.164 N 
ATOM      4  N   UNL     1      32.899 -21.569 -19.120  0.00  0.00    -0.264 NA
ATOM      5  N   UNL     1      35.208 -21.151 -19.620  0.00  0.00    -0.229 NA
ATOM      6  N   UNL     1      34.617 -22.570 -17.778  0.00  0.00    -0.247 NA
ATOM      7  C   UNL     1      34.477 -19.558 -21.716  0.00  0.00    +0.336 C 
ATOM      8  C   UNL     1      33.899 -21.030 -19.804  0.00  0.00    +0.232 C 
ATOM      9  C   UNL     1      32.097 -19.971 -21.223  0.00  0.00    +0.136 C 
ATOM     10  C   UNL     1      33.337 -22.337 -18.109  0.00  0.00    +0.142 C 
ATOM     11  C   UNL     1      35.497 -21.946 -18.576  0.00  0.00    +0.331 C 
ATOM     12  C   UNL     1      32.297 -22.995 -17.269  0.00  0.00    +0.145 C 
ATOM     13  H   UNL     1      33.271 -17.882 -21.998  0.00  0.00    +0.178 HD
ENDROOT
BRANCH   2  14
ATOM     14  S   UNL     1      35.163 -17.303 -23.235  0.00  0.00    +0.077 S 
ATOM     15  O   UNL     1      36.321 -16.881 -22.471  0.00  0.00    -0.150 OA
ATOM     16  O   UNL     1      35.329 -17.948 -24.523  0.00  0.00    -0.150 OA
BRANCH  14  17
ATOM     17  C   UNL     1      34.149 -15.873 -23.462  0.00  0.00    +0.131 C 
ATOM     18  C   UNL     1      33.728 -15.121 -22.376  0.00  0.00    +0.094 C 
ATOM     19  C   UNL     1      33.791 -15.527 -24.757  0.00  0.00    +0.020 C 
ATOM     20  C   UNL     1      32.929 -13.998 -22.588  0.00  0.00    +0.008 C 
ATOM     21  C   UNL     1      32.991 -14.403 -24.969  0.00  0.00    +0.001 C 
ATOM     22  C   UNL     1      32.562 -13.639 -23.885  0.00  0.00    +0.000 C 
BRANCH  18  24
ATOM     23  O   UNL     1      35.040 -14.962 -20.391  0.00  0.00    -0.245 OA
ATOM     24  C   UNL     1      34.093 -15.465 -21.007  0.00  0.00    +0.343 C 
BRANCH  24  25
ATOM     25  O   UNL     1      33.255 -16.412 -20.489  0.00  0.00    -0.441 OA
ATOM     26  C   UNL     1      31.868 -16.066 -20.401  0.00  0.00    +0.256 C 
ENDBRANCH  24  25
ENDBRANCH  18  24
ENDBRANCH  14  17
ENDBRANCH   2  14
BRANCH  11  27
ATOM     27  O   UNL     1      36.830 -22.138 -18.298  0.00  0.00    -0.395 OA
ATOM     28  C   UNL     1      37.213 -22.050 -16.933  0.00  0.00    +0.271 C 
ENDBRANCH  11  27
TORSDOF 5
ENDMDL
MODEL 9
REMARK VINA RESULT:      -8.0      2.740      8.209
REMARK  Name = 153909
REMARK  5 active torsions:
REMARK  status: ('A' for Active; 'I' for Inactive)
REMARK    1  A    between atoms: N_2  and  S_14
REMARK    2  A    between atoms: C_11  and  O_27
REMARK    3  A    between atoms: S_14  and  C_17
REMARK    4  A    between atoms: C_18  and  C_24
REMARK    5  A    between atoms: C_24  and  O_25
REMARK                            x       y       z     vdW  Elec       q    Type
REMARK                         _______ _______ _______ _____ _____    ______ ____
ROOT
ATOM      1  O   UNL     1      33.189 -14.400 -24.397  0.00  0.00    -0.250 OA
ATOM      2  N   UNL     1      34.245 -12.533 -23.523  0.00  0.00    -0.168 N 
ATOM      3  N   UNL     1      34.373 -14.703 -22.427  0.00  0.00    -0.164 N 
ATOM      4  N   UNL     1      35.172 -16.717 -21.551  0.00  0.00    -0.264 NA
ATOM      5  N   UNL     1      34.495 -16.555 -23.847  0.00  0.00    -0.229 NA
ATOM      6  N   UNL     1      35.310 -18.639 -22.981  0.00  0.00    -0.247 NA
ATOM      7  C   UNL     1      33.865 -13.921 -23.487  0.00  0.00    +0.336 C 
ATOM      8  C   UNL     1      34.704 -16.090 -22.622  0.00  0.00    +0.232 C 
ATOM      9  C   UNL     1      34.555 -14.061 -21.124  0.00  0.00    +0.136 C 
ATOM     10  C   UNL     1      35.458 -18.005 -21.807  0.00  0.00    +0.142 C 
ATOM     11  C   UNL     1      34.824 -17.853 -23.954  0.00  0.00    +0.331 C 
ATOM     12  C   UNL     1      35.994 -18.809 -20.673  0.00  0.00    +0.145 C 
ATOM     13  H   UNL     1      34.838 -12.209 -22.806  0.00  0.00    +0.178 HD
ENDROOT
BRANCH   2  14
ATOM     14  S   UNL     1      33.753 -11.399 -24.707  0.00  0.00    +0.077 S 
ATOM     15  O   UNL     1      34.798 -11.270 -25.704  0.00  0.00    -0.150 OA
ATOM     16  O   UNL     1      32.386 -11.671 -25.107  0.00  0.00    -0.150 OA
BRANCH  14  17
ATOM     17  C   UNL     1      33.762  -9.907 -23.758  0.00  0.00    +0.131 C 
ATOM     18  C   UNL     1      32.831  -9.702 -22.750  0.00  0.00    +0.094 C 
ATOM     19  C   UNL     1      34.726  -8.955 -24.051  0.00  0.00    +0.020 C 
ATOM     20  C   UNL     1      32.865  -8.515 -22.019  0.00  0.00    +0.008 C 
ATOM     21  C   UNL     1      34.759  -7.767 -23.319  0.00  0.00    +0.001 C 
ATOM     22  C   UNL     1      33.829  -7.548 -22.303  0.00  0.00    +0.000 C 
BRANCH  18  24
ATOM     23  O   UNL     1      30.652 -10.664 -22.859  0.00  0.00    -0.245 OA
ATOM     24  C   UNL     1      31.810 -10.689 -22.424  0.00  0.00    +0.343 C 
BRANCH  24  25
ATOM     25  O   UNL     1      32.293 -11.648 -21.578  0.00  0.00    -0.441 OA
ATOM     26  C   UNL     1      31.734 -11.685 -20.261  0.00  0.00    +0.256 C 
ENDBRANCH  24  25
ENDBRANCH  18  24
ENDBRANCH  14  17
ENDBRANCH   2  14
BRANCH  11  27
ATOM     27  O   UNL     1      34.646 -18.435 -25.188  0.00  0.00    -0.395 OA
ATOM     28  C   UNL     1      34.685 -19.853 -25.233  0.00  0.00    +0.271 C 
ENDBRANCH  11  27
TORSDOF 5
ENDMDL
