MODEL 1
REMARK VINA RESULT:      -9.9      0.000      0.000
REMARK  Name = 36910
REMARK  10 active torsions:
REMARK  status: ('A' for Active; 'I' for Inactive)
REMARK    1  A    between atoms: N_1  and  C_9
REMARK    2  A    between atoms: N_2  and  C_22
REMARK    3  A    between atoms: C_9  and  C_10
REMARK    4  A    between atoms: C_10  and  O_11
REMARK    5  A    between atoms: C_10  and  C_13
REMARK    6  A    between atoms: C_13  and  C_14
REMARK    7  A    between atoms: C_13  and  O_20
REMARK    8  A    between atoms: C_22  and  C_23
REMARK    9  A    between atoms: C_23  and  C_24
REMARK   10  A    between atoms: C_23  and  O_30
REMARK                            x       y       z     vdW  Elec       q    Type
REMARK                         _______ _______ _______ _____ _____    ______ ____
ROOT
ATOM      1  N   UNL     1      32.915 -14.734 -22.317  0.00  0.00    +0.386 N 
ATOM      2  N   UNL     1      33.096 -11.895 -22.829  0.00  0.00    +0.386 N 
ATOM      3  C   UNL     1      32.241 -13.759 -21.451  0.00  0.00    -0.101 C 
ATOM      4  C   UNL     1      34.118 -14.143 -22.915  0.00  0.00    -0.101 C 
ATOM      5  C   UNL     1      31.893 -12.486 -22.230  0.00  0.00    -0.101 C 
ATOM      6  C   UNL     1      33.770 -12.870 -23.695  0.00  0.00    -0.101 C 
ATOM      7  H   UNL     1      32.276 -14.992 -23.070  0.00  0.00    -0.080 HD
ATOM      8  H   UNL     1      33.735 -11.635 -22.078  0.00  0.00    -0.080 HD
ENDROOT
BRANCH   1   9
ATOM      9  C   UNL     1      33.247 -15.947 -21.573  0.00  0.00    -0.045 C 
BRANCH   9  10
ATOM     10  C   UNL     1      34.755 -16.237 -21.572  0.00  0.00    +0.121 C 
BRANCH  10  11
ATOM     11  O   UNL     1      35.206 -16.322 -20.215  0.00  0.00    -0.384 OA
ATOM     12  H   UNL     1      36.089 -16.724 -20.191  0.00  0.00    +0.210 HD
ENDBRANCH  10  11
BRANCH  10  13
ATOM     13  C   UNL     1      35.178 -17.533 -22.288  0.00  0.00    +0.162 C 
BRANCH  13  14
ATOM     14  C   UNL     1      35.137 -18.767 -21.418  0.00  0.00    +0.007 C 
ATOM     15  C   UNL     1      36.323 -19.318 -20.933  0.00  0.00    -0.002 C 
ATOM     16  C   UNL     1      33.913 -19.354 -21.099  0.00  0.00    -0.002 C 
ATOM     17  C   UNL     1      36.284 -20.457 -20.129  0.00  0.00    -0.000 C 
ATOM     18  C   UNL     1      33.875 -20.493 -20.295  0.00  0.00    -0.000 C 
ATOM     19  C   UNL     1      35.061 -21.044 -19.809  0.00  0.00    -0.000 C 
ENDBRANCH  13  14
BRANCH  13  20
ATOM     20  O   UNL     1      34.296 -17.760 -23.393  0.00  0.00    -0.347 OA
ATOM     21  C   UNL     1      34.899 -17.374 -24.616  0.00  0.00    +0.175 C 
ENDBRANCH  13  20
ENDBRANCH  10  13
ENDBRANCH   9  10
ENDBRANCH   1   9
BRANCH   2  22
ATOM     22  C   UNL     1      32.761 -10.682 -23.575  0.00  0.00    -0.043 C 
BRANCH  22  23
ATOM     23  C   UNL     1      32.936  -9.437 -22.696  0.00  0.00    +0.117 C 
BRANCH  23  24
ATOM     24  C   UNL     1      33.060  -8.182 -23.532  0.00  0.00    +0.002 C 
ATOM     25  C   UNL     1      34.310  -7.779 -24.004  0.00  0.00    -0.002 C 
ATOM     26  C   UNL     1      31.925  -7.428 -23.832  0.00  0.00    -0.002 C 
ATOM     27  C   UNL     1      34.424  -6.622 -24.774  0.00  0.00    -0.000 C 
ATOM     28  C   UNL     1      32.039  -6.272 -24.604  0.00  0.00    -0.000 C 
ATOM     29  C   UNL     1      33.290  -5.869 -25.074  0.00  0.00    -0.000 C 
ENDBRANCH  23  24
BRANCH  23  30
ATOM     30  O   UNL     1      31.815  -9.284 -21.826  0.00  0.00    -0.351 OA
ATOM     31  C   UNL     1      32.222  -8.892 -20.524  0.00  0.00    +0.174 C 
ENDBRANCH  23  30
ENDBRANCH  22  23
ENDBRANCH   2  22
TORSDOF 10
ENDMDL
MODEL 2
REMARK VINA RESULT:      -9.7      1.418     10.395
REMARK  Name = 36910
REMARK  10 active torsions:
REMARK  status: ('A' for Active; 'I' for Inactive)
REMARK    1  A    between atoms: N_1  and  C_9
REMARK    2  A    between atoms: N_2  and  C_22
REMARK    3  A    between atoms: C_9  and  C_10
REMARK    4  A    between atoms: C_10  and  O_11
REMARK    5  A    between atoms: C_10  and  C_13
REMARK    6  A    between atoms: C_13  and  C_14
REMARK    7  A    between atoms: C_13  and  O_20
REMARK    8  A    between atoms: C_22  and  C_23
REMARK    9  A    between atoms: C_23  and  C_24
REMARK   10  A    between atoms: C_23  and  O_30
REMARK                            x       y       z     vdW  Elec       q    Type
REMARK                         _______ _______ _______ _____ _____    ______ ____
ROOT
ATOM      1  N   UNL     1      33.542 -13.839 -22.725  0.00  0.00    +0.386 N 
ATOM      2  N   UNL     1      34.233 -16.493 -21.810  0.00  0.00    +0.386 N 
ATOM      3  C   UNL     1      32.732 -14.532 -21.715  0.00  0.00    -0.101 C 
ATOM      4  C   UNL     1      34.187 -14.809 -23.618  0.00  0.00    -0.101 C 
ATOM      5  C   UNL     1      33.586 -15.523 -20.918  0.00  0.00    -0.101 C 
ATOM      6  C   UNL     1      35.042 -15.799 -22.820  0.00  0.00    -0.101 C 
ATOM      7  H   UNL     1      34.270 -13.310 -22.245  0.00  0.00    -0.080 HD
ATOM      8  H   UNL     1      33.506 -17.024 -22.290  0.00  0.00    -0.080 HD
ENDROOT
BRANCH   1   9
ATOM      9  C   UNL     1      32.726 -12.895 -23.487  0.00  0.00    -0.045 C 
BRANCH   9  10
ATOM     10  C   UNL     1      33.339 -11.488 -23.521  0.00  0.00    +0.121 C 
BRANCH  10  11
ATOM     11  O   UNL     1      33.334 -11.017 -24.873  0.00  0.00    -0.384 OA
ATOM     12  H   UNL     1      34.242 -11.002 -25.215  0.00  0.00    +0.210 HD
ENDBRANCH  10  11
BRANCH  10  13
ATOM     13  C   UNL     1      32.622 -10.435 -22.655  0.00  0.00    +0.162 C 
BRANCH  13  14
ATOM     14  C   UNL     1      32.668  -9.033 -23.214  0.00  0.00    +0.007 C 
ATOM     15  C   UNL     1      33.890  -8.370 -23.334  0.00  0.00    -0.002 C 
ATOM     16  C   UNL     1      31.490  -8.402 -23.613  0.00  0.00    -0.002 C 
ATOM     17  C   UNL     1      33.933  -7.076 -23.852  0.00  0.00    -0.000 C 
ATOM     18  C   UNL     1      31.534  -7.107 -24.130  0.00  0.00    -0.000 C 
ATOM     19  C   UNL     1      32.755  -6.445 -24.250  0.00  0.00    -0.000 C 
ENDBRANCH  13  14
BRANCH  13  20
ATOM     20  O   UNL     1      31.243 -10.800 -22.531  0.00  0.00    -0.347 OA
ATOM     21  C   UNL     1      30.912 -11.099 -21.185  0.00  0.00    +0.175 C 
ENDBRANCH  13  20
ENDBRANCH  10  13
ENDBRANCH   9  10
ENDBRANCH   1   9
BRANCH   2  22
ATOM     22  C   UNL     1      35.050 -17.435 -21.047  0.00  0.00    -0.043 C 
BRANCH  22  23
ATOM     23  C   UNL     1      35.131 -18.790 -21.763  0.00  0.00    +0.117 C 
BRANCH  23  24
ATOM     24  C   UNL     1      34.824 -19.933 -20.821  0.00  0.00    +0.002 C 
ATOM     25  C   UNL     1      35.863 -20.705 -20.300  0.00  0.00    -0.002 C 
ATOM     26  C   UNL     1      33.503 -20.215 -20.473  0.00  0.00    -0.002 C 
ATOM     27  C   UNL     1      35.580 -21.760 -19.432  0.00  0.00    -0.000 C 
ATOM     28  C   UNL     1      33.221 -21.269 -19.603  0.00  0.00    -0.000 C 
ATOM     29  C   UNL     1      34.260 -22.041 -19.083  0.00  0.00    -0.000 C 
ENDBRANCH  23  24
BRANCH  23  30
ATOM     30  O   UNL     1      34.196 -18.837 -22.840  0.00  0.00    -0.351 OA
ATOM     31  C   UNL     1      34.817 -19.260 -24.044  0.00  0.00    +0.174 C 
ENDBRANCH  23  30
ENDBRANCH  22  23
ENDBRANCH   2  22
TORSDOF 10
ENDMDL
MODEL 3
REMARK VINA RESULT:      -9.7      1.693      9.890
REMARK  Name = 36910
REMARK  10 active torsions:
REMARK  status: ('A' for Active; 'I' for Inactive)
REMARK    1  A    between atoms: N_1  and  C_9
REMARK    2  A    between atoms: N_2  and  C_22
REMARK    3  A    between atoms: C_9  and  C_10
REMARK    4  A    between atoms: C_10  and  O_11
REMARK    5  A    between atoms: C_10  and  C_13
REMARK    6  A    between atoms: C_13  and  C_14
REMARK    7  A    between atoms: C_13  and  O_20
REMARK    8  A    between atoms: C_22  and  C_23
REMARK    9  A    between atoms: C_23  and  C_24
REMARK   10  A    between atoms: C_23  and  O_30
REMARK                            x       y       z     vdW  Elec       q    Type
REMARK                         _______ _______ _______ _____ _____    ______ ____
ROOT
ATOM      1  N   UNL     1      33.612 -13.736 -22.872  0.00  0.00    +0.386 N 
ATOM      2  N   UNL     1      34.254 -16.373 -21.876  0.00  0.00    +0.386 N 
ATOM      3  C   UNL     1      32.785 -14.386 -21.848  0.00  0.00    -0.101 C 
ATOM      4  C   UNL     1      34.246 -14.742 -23.732  0.00  0.00    -0.101 C 
ATOM      5  C   UNL     1      33.618 -15.367 -21.017  0.00  0.00    -0.101 C 
ATOM      6  C   UNL     1      35.080 -15.723 -22.901  0.00  0.00    -0.101 C 
ATOM      7  H   UNL     1      34.347 -13.205 -22.404  0.00  0.00    -0.080 HD
ATOM      8  H   UNL     1      33.521 -16.906 -22.344  0.00  0.00    -0.080 HD
ENDROOT
BRANCH   1   9
ATOM      9  C   UNL     1      32.816 -12.802 -23.666  0.00  0.00    -0.045 C 
BRANCH   9  10
ATOM     10  C   UNL     1      33.321 -11.357 -23.547  0.00  0.00    +0.121 C 
BRANCH  10  11
ATOM     11  O   UNL     1      33.901 -10.968 -24.798  0.00  0.00    -0.384 OA
ATOM     12  H   UNL     1      33.458 -11.441 -25.521  0.00  0.00    +0.210 HD
ENDBRANCH  10  11
BRANCH  10  13
ATOM     13  C   UNL     1      32.250 -10.312 -23.182  0.00  0.00    +0.162 C 
BRANCH  13  14
ATOM     14  C   UNL     1      31.953 -10.214 -21.704  0.00  0.00    +0.007 C 
ATOM     15  C   UNL     1      31.280 -11.251 -21.059  0.00  0.00    -0.002 C 
ATOM     16  C   UNL     1      32.355  -9.089 -20.986  0.00  0.00    -0.002 C 
ATOM     17  C   UNL     1      31.007 -11.162 -19.694  0.00  0.00    -0.000 C 
ATOM     18  C   UNL     1      32.081  -9.000 -19.620  0.00  0.00    -0.000 C 
ATOM     19  C   UNL     1      31.408 -10.037 -18.975  0.00  0.00    -0.000 C 
ENDBRANCH  13  14
BRANCH  13  20
ATOM     20  O   UNL     1      32.696  -9.022 -23.614  0.00  0.00    -0.347 OA
ATOM     21  C   UNL     1      31.610  -8.229 -24.062  0.00  0.00    +0.175 C 
ENDBRANCH  13  20
ENDBRANCH  10  13
ENDBRANCH   9  10
ENDBRANCH   1   9
BRANCH   2  22
ATOM     22  C   UNL     1      35.051 -17.306 -21.081  0.00  0.00    -0.043 C 
BRANCH  22  23
ATOM     23  C   UNL     1      35.181 -18.658 -21.796  0.00  0.00    +0.117 C 
BRANCH  23  24
ATOM     24  C   UNL     1      34.910 -19.810 -20.854  0.00  0.00    +0.002 C 
ATOM     25  C   UNL     1      33.597 -20.147 -20.525  0.00  0.00    -0.002 C 
ATOM     26  C   UNL     1      35.973 -20.536 -20.315  0.00  0.00    -0.002 C 
ATOM     27  C   UNL     1      33.347 -21.210 -19.656  0.00  0.00    -0.000 C 
ATOM     28  C   UNL     1      35.722 -21.599 -19.448  0.00  0.00    -0.000 C 
ATOM     29  C   UNL     1      34.408 -21.936 -19.118  0.00  0.00    -0.000 C 
ENDBRANCH  23  24
BRANCH  23  30
ATOM     30  O   UNL     1      34.253 -18.737 -22.876  0.00  0.00    -0.351 OA
ATOM     31  C   UNL     1      34.861 -19.272 -24.041  0.00  0.00    +0.174 C 
ENDBRANCH  23  30
ENDBRANCH  22  23
ENDBRANCH   2  22
TORSDOF 10
ENDMDL
MODEL 4
REMARK VINA RESULT:      -9.5      1.587      2.174
REMARK  Name = 36910
REMARK  10 active torsions:
REMARK  status: ('A' for Active; 'I' for Inactive)
REMARK    1  A    between atoms: N_1  and  C_9
REMARK    2  A    between atoms: N_2  and  C_22
REMARK    3  A    between atoms: C_9  and  C_10
REMARK    4  A    between atoms: C_10  and  O_11
REMARK    5  A    between atoms: C_10  and  C_13
REMARK    6  A    between atoms: C_13  and  C_14
REMARK    7  A    between atoms: C_13  and  O_20
REMARK    8  A    between atoms: C_22  and  C_23
REMARK    9  A    between atoms: C_23  and  C_24
REMARK   10  A    between atoms: C_23  and  O_30
REMARK                            x       y       z     vdW  Elec       q    Type
REMARK                         _______ _______ _______ _____ _____    ______ ____
ROOT
ATOM      1  N   UNL     1      33.805 -15.348 -22.212  0.00  0.00    +0.386 N 
ATOM      2  N   UNL     1      32.696 -12.678 -22.149  0.00  0.00    +0.386 N 
ATOM      3  C   UNL     1      33.806 -14.551 -20.979  0.00  0.00    -0.101 C 
ATOM      4  C   UNL     1      33.860 -14.471 -23.388  0.00  0.00    -0.101 C 
ATOM      5  C   UNL     1      32.642 -13.554 -20.972  0.00  0.00    -0.101 C 
ATOM      6  C   UNL     1      32.695 -13.475 -23.381  0.00  0.00    -0.101 C 
ATOM      7  H   UNL     1      32.935 -15.880 -22.250  0.00  0.00    -0.080 HD
ATOM      8  H   UNL     1      33.564 -12.143 -22.112  0.00  0.00    -0.080 HD
ENDROOT
BRANCH   1   9
ATOM      9  C   UNL     1      34.916 -16.296 -22.219  0.00  0.00    -0.045 C 
BRANCH   9  10
ATOM     10  C   UNL     1      34.673 -17.488 -21.281  0.00  0.00    +0.121 C 
BRANCH  10  11
ATOM     11  O   UNL     1      33.269 -17.584 -21.015  0.00  0.00    -0.384 OA
ATOM     12  H   UNL     1      33.093 -18.375 -20.481  0.00  0.00    +0.210 HD
ENDBRANCH  10  11
BRANCH  10  13
ATOM     13  C   UNL     1      35.143 -18.854 -21.816  0.00  0.00    +0.162 C 
BRANCH  13  14
ATOM     14  C   UNL     1      35.178 -19.950 -20.777  0.00  0.00    +0.007 C 
ATOM     15  C   UNL     1      33.995 -20.570 -20.378  0.00  0.00    -0.002 C 
ATOM     16  C   UNL     1      36.394 -20.342 -20.219  0.00  0.00    -0.002 C 
ATOM     17  C   UNL     1      34.027 -21.583 -19.420  0.00  0.00    -0.000 C 
ATOM     18  C   UNL     1      36.426 -21.355 -19.260  0.00  0.00    -0.000 C 
ATOM     19  C   UNL     1      35.243 -21.976 -18.861  0.00  0.00    -0.000 C 
ENDBRANCH  13  14
BRANCH  13  20
ATOM     20  O   UNL     1      34.251 -19.277 -22.853  0.00  0.00    -0.347 OA
ATOM     21  C   UNL     1      34.886 -19.241 -24.119  0.00  0.00    +0.175 C 
ENDBRANCH  13  20
ENDBRANCH  10  13
ENDBRANCH   9  10
ENDBRANCH   1   9
BRANCH   2  22
ATOM     22  C   UNL     1      31.583 -11.731 -22.141  0.00  0.00    -0.043 C 
BRANCH  22  23
ATOM     23  C   UNL     1      31.830 -10.608 -21.125  0.00  0.00    +0.117 C 
BRANCH  23  24
ATOM     24  C   UNL     1      31.861  -9.252 -21.795  0.00  0.00    +0.002 C 
ATOM     25  C   UNL     1      32.375  -8.149 -21.113  0.00  0.00    -0.002 C 
ATOM     26  C   UNL     1      31.375  -9.104 -23.095  0.00  0.00    -0.002 C 
ATOM     27  C   UNL     1      32.404  -6.898 -21.731  0.00  0.00    -0.000 C 
ATOM     28  C   UNL     1      31.405  -7.854 -23.713  0.00  0.00    -0.000 C 
ATOM     29  C   UNL     1      31.919  -6.751 -23.030  0.00  0.00    -0.000 C 
ENDBRANCH  23  24
BRANCH  23  30
ATOM     30  O   UNL     1      30.796 -10.595 -20.141  0.00  0.00    -0.351 OA
ATOM     31  C   UNL     1      31.318 -10.821 -18.841  0.00  0.00    +0.174 C 
ENDBRANCH  23  30
ENDBRANCH  22  23
ENDBRANCH   2  22
TORSDOF 10
ENDMDL
MODEL 5
REMARK VINA RESULT:      -9.4      1.806      9.854
REMARK  Name = 36910
REMARK  10 active torsions:
REMARK  status: ('A' for Active; 'I' for Inactive)
REMARK    1  A    between atoms: N_1  and  C_9
REMARK    2  A    between atoms: N_2  and  C_22
REMARK    3  A    between atoms: C_9  and  C_10
REMARK    4  A    between atoms: C_10  and  O_11
REMARK    5  A    between atoms: C_10  and  C_13
REMARK    6  A    between atoms: C_13  and  C_14
REMARK    7  A    between atoms: C_13  and  O_20
REMARK    8  A    between atoms: C_22  and  C_23
REMARK    9  A    between atoms: C_23  and  C_24
REMARK   10  A    between atoms: C_23  and  O_30
REMARK                            x       y       z     vdW  Elec       q    Type
REMARK                         _______ _______ _______ _____ _____    ______ ____
ROOT
ATOM      1  N   UNL     1      32.384 -13.829 -21.503  0.00  0.00    +0.386 N 
ATOM      2  N   UNL     1      33.885 -16.299 -21.578  0.00  0.00    +0.386 N 
ATOM      3  C   UNL     1      33.524 -14.002 -22.413  0.00  0.00    -0.101 C 
ATOM      4  C   UNL     1      32.562 -14.650 -20.300  0.00  0.00    -0.101 C 
ATOM      5  C   UNL     1      33.709 -15.477 -22.782  0.00  0.00    -0.101 C 
ATOM      6  C   UNL     1      32.746 -16.126 -20.668  0.00  0.00    -0.101 C 
ATOM      7  H   UNL     1      31.540 -14.141 -21.983  0.00  0.00    -0.080 HD
ATOM      8  H   UNL     1      34.730 -15.990 -21.098  0.00  0.00    -0.080 HD
ENDROOT
BRANCH   1   9
ATOM      9  C   UNL     1      32.210 -12.422 -21.151  0.00  0.00    -0.045 C 
BRANCH   9  10
ATOM     10  C   UNL     1      31.645 -11.594 -22.314  0.00  0.00    +0.121 C 
BRANCH  10  11
ATOM     11  O   UNL     1      30.284 -11.259 -22.022  0.00  0.00    -0.384 OA
ATOM     12  H   UNL     1      29.862 -11.997 -21.552  0.00  0.00    +0.210 HD
ENDBRANCH  10  11
BRANCH  10  13
ATOM     13  C   UNL     1      32.396 -10.283 -22.616  0.00  0.00    +0.162 C 
BRANCH  13  14
ATOM     14  C   UNL     1      33.396 -10.383 -23.744  0.00  0.00    +0.007 C 
ATOM     15  C   UNL     1      34.397  -9.422 -23.874  0.00  0.00    -0.002 C 
ATOM     16  C   UNL     1      33.318 -11.438 -24.652  0.00  0.00    -0.002 C 
ATOM     17  C   UNL     1      35.321  -9.515 -24.915  0.00  0.00    -0.000 C 
ATOM     18  C   UNL     1      34.243 -11.531 -25.693  0.00  0.00    -0.000 C 
ATOM     19  C   UNL     1      35.244 -10.569 -25.824  0.00  0.00    -0.000 C 
ENDBRANCH  13  14
BRANCH  13  20
ATOM     20  O   UNL     1      31.443  -9.277 -22.978  0.00  0.00    -0.347 OA
ATOM     21  C   UNL     1      31.650  -8.087 -22.237  0.00  0.00    +0.175 C 
ENDBRANCH  13  20
ENDBRANCH  10  13
ENDBRANCH   9  10
ENDBRANCH   1   9
BRANCH   2  22
ATOM     22  C   UNL     1      34.058 -17.707 -21.932  0.00  0.00    -0.043 C 
BRANCH  22  23
ATOM     23  C   UNL     1      35.424 -18.224 -21.461  0.00  0.00    +0.117 C 
BRANCH  23  24
ATOM     24  C   UNL     1      35.291 -19.525 -20.700  0.00  0.00    +0.002 C 
ATOM     25  C   UNL     1      36.431 -20.171 -20.221  0.00  0.00    -0.002 C 
ATOM     26  C   UNL     1      34.030 -20.077 -20.477  0.00  0.00    -0.002 C 
ATOM     27  C   UNL     1      36.309 -21.371 -19.520  0.00  0.00    -0.000 C 
ATOM     28  C   UNL     1      33.908 -21.276 -19.774  0.00  0.00    -0.000 C 
ATOM     29  C   UNL     1      35.049 -21.923 -19.296  0.00  0.00    -0.000 C 
ENDBRANCH  23  24
BRANCH  23  30
ATOM     30  O   UNL     1      36.281 -18.448 -22.580  0.00  0.00    -0.351 OA
ATOM     31  C   UNL     1      35.533 -18.657 -23.768  0.00  0.00    +0.174 C 
ENDBRANCH  23  30
ENDBRANCH  22  23
ENDBRANCH   2  22
TORSDOF 10
ENDMDL
MODEL 6
REMARK VINA RESULT:      -9.4      1.708     10.394
REMARK  Name = 36910
REMARK  10 active torsions:
REMARK  status: ('A' for Active; 'I' for Inactive)
REMARK    1  A    between atoms: N_1  and  C_9
REMARK    2  A    between atoms: N_2  and  C_22
REMARK    3  A    between atoms: C_9  and  C_10
REMARK    4  A    between atoms: C_10  and  O_11
REMARK    5  A    between atoms: C_10  and  C_13
REMARK    6  A    between atoms: C_13  and  C_14
REMARK    7  A    between atoms: C_13  and  O_20
REMARK    8  A    between atoms: C_22  and  C_23
REMARK    9  A    between atoms: C_23  and  C_24
REMARK   10  A    between atoms: C_23  and  O_30
REMARK                            x       y       z     vdW  Elec       q    Type
REMARK                         _______ _______ _______ _____ _____    ______ ____
ROOT
ATOM      1  N   UNL     1      32.978 -13.234 -22.809  0.00  0.00    +0.386 N 
ATOM      2  N   UNL     1      33.972 -15.886 -22.228  0.00  0.00    +0.386 N 
ATOM      3  C   UNL     1      33.928 -13.906 -23.706  0.00  0.00    -0.101 C 
ATOM      4  C   UNL     1      33.168 -13.692 -21.428  0.00  0.00    -0.101 C 
ATOM      5  C   UNL     1      33.784 -15.428 -23.611  0.00  0.00    -0.101 C 
ATOM      6  C   UNL     1      33.024 -15.214 -21.332  0.00  0.00    -0.101 C 
ATOM      7  H   UNL     1      32.032 -13.479 -23.101  0.00  0.00    -0.080 HD
ATOM      8  H   UNL     1      34.919 -15.644 -21.936  0.00  0.00    -0.080 HD
ENDROOT
BRANCH   1   9
ATOM      9  C   UNL     1      33.117 -11.782 -22.900  0.00  0.00    -0.045 C 
BRANCH   9  10
ATOM     10  C   UNL     1      31.842 -11.046 -22.466  0.00  0.00    +0.121 C 
BRANCH  10  11
ATOM     11  O   UNL     1      30.836 -12.015 -22.148  0.00  0.00    -0.384 OA
ATOM     12  H   UNL     1      31.167 -12.904 -22.355  0.00  0.00    +0.210 HD
ENDBRANCH  10  11
BRANCH  10  13
ATOM     13  C   UNL     1      32.000 -10.117 -21.246  0.00  0.00    +0.162 C 
BRANCH  13  14
ATOM     14  C   UNL     1      31.887  -8.645 -21.566  0.00  0.00    +0.007 C 
ATOM     15  C   UNL     1      32.216  -7.695 -20.600  0.00  0.00    -0.002 C 
ATOM     16  C   UNL     1      31.455  -8.237 -22.827  0.00  0.00    -0.002 C 
ATOM     17  C   UNL     1      32.113  -6.336 -20.895  0.00  0.00    -0.000 C 
ATOM     18  C   UNL     1      31.351  -6.877 -23.122  0.00  0.00    -0.000 C 
ATOM     19  C   UNL     1      31.681  -5.927 -22.156  0.00  0.00    -0.000 C 
ENDBRANCH  13  14
BRANCH  13  20
ATOM     20  O   UNL     1      30.977 -10.427 -20.293  0.00  0.00    -0.347 OA
ATOM     21  C   UNL     1      31.537 -10.859 -19.065  0.00  0.00    +0.175 C 
ENDBRANCH  13  20
ENDBRANCH  10  13
ENDBRANCH   9  10
ENDBRANCH   1   9
BRANCH   2  22
ATOM     22  C   UNL     1      33.832 -17.339 -22.139  0.00  0.00    -0.043 C 
BRANCH  22  23
ATOM     23  C   UNL     1      35.168 -17.994 -21.767  0.00  0.00    +0.117 C 
BRANCH  23  24
ATOM     24  C   UNL     1      34.960 -19.266 -20.976  0.00  0.00    +0.002 C 
ATOM     25  C   UNL     1      33.667 -19.715 -20.706  0.00  0.00    -0.002 C 
ATOM     26  C   UNL     1      36.060 -19.991 -20.517  0.00  0.00    -0.002 C 
ATOM     27  C   UNL     1      33.475 -20.889 -19.976  0.00  0.00    -0.000 C 
ATOM     28  C   UNL     1      35.868 -21.165 -19.788  0.00  0.00    -0.000 C 
ATOM     29  C   UNL     1      34.574 -21.613 -19.517  0.00  0.00    -0.000 C 
ENDBRANCH  23  24
BRANCH  23  30
ATOM     30  O   UNL     1      35.905 -18.318 -22.945  0.00  0.00    -0.351 OA
ATOM     31  C   UNL     1      35.068 -18.895 -23.935  0.00  0.00    +0.174 C 
ENDBRANCH  23  30
ENDBRANCH  22  23
ENDBRANCH   2  22
TORSDOF 10
ENDMDL
MODEL 7
REMARK VINA RESULT:      -9.3      4.194     11.581
REMARK  Name = 36910
REMARK  10 active torsions:
REMARK  status: ('A' for Active; 'I' for Inactive)
REMARK    1  A    between atoms: N_1  and  C_9
REMARK    2  A    between atoms: N_2  and  C_22
REMARK    3  A    between atoms: C_9  and  C_10
REMARK    4  A    between atoms: C_10  and  O_11
REMARK    5  A    between atoms: C_10  and  C_13
REMARK    6  A    between atoms: C_13  and  C_14
REMARK    7  A    between atoms: C_13  and  O_20
REMARK    8  A    between atoms: C_22  and  C_23
REMARK    9  A    between atoms: C_23  and  C_24
REMARK   10  A    between atoms: C_23  and  O_30
REMARK                            x       y       z     vdW  Elec       q    Type
REMARK                         _______ _______ _______ _____ _____    ______ ____
ROOT
ATOM      1  N   UNL     1      35.262 -20.163 -20.905  0.00  0.00    +0.386 N 
ATOM      2  N   UNL     1      34.259 -21.799 -18.743  0.00  0.00    +0.386 N 
ATOM      3  C   UNL     1      36.138 -20.600 -19.810  0.00  0.00    -0.101 C 
ATOM      4  C   UNL     1      33.877 -20.039 -20.434  0.00  0.00    -0.101 C 
ATOM      5  C   UNL     1      35.645 -21.922 -19.212  0.00  0.00    -0.101 C 
ATOM      6  C   UNL     1      33.384 -21.361 -19.837  0.00  0.00    -0.101 C 
ATOM      7  H   UNL     1      35.289 -20.869 -21.640  0.00  0.00    -0.080 HD
ATOM      8  H   UNL     1      34.230 -21.094 -18.006  0.00  0.00    -0.080 HD
ENDROOT
BRANCH   1   9
ATOM      9  C   UNL     1      35.732 -18.901 -21.473  0.00  0.00    -0.045 C 
BRANCH   9  10
ATOM     10  C   UNL     1      34.720 -17.762 -21.284  0.00  0.00    +0.121 C 
BRANCH  10  11
ATOM     11  O   UNL     1      35.341 -16.716 -20.527  0.00  0.00    -0.384 OA
ATOM     12  H   UNL     1      34.668 -16.247 -20.009  0.00  0.00    +0.210 HD
ENDBRANCH  10  11
BRANCH  10  13
ATOM     13  C   UNL     1      34.177 -17.140 -22.584  0.00  0.00    +0.162 C 
BRANCH  13  14
ATOM     14  C   UNL     1      33.710 -15.710 -22.442  0.00  0.00    +0.007 C 
ATOM     15  C   UNL     1      34.251 -14.716 -23.257  0.00  0.00    -0.002 C 
ATOM     16  C   UNL     1      32.736 -15.385 -21.499  0.00  0.00    -0.002 C 
ATOM     17  C   UNL     1      33.820 -13.397 -23.127  0.00  0.00    -0.000 C 
ATOM     18  C   UNL     1      32.305 -14.065 -21.369  0.00  0.00    -0.000 C 
ATOM     19  C   UNL     1      32.846 -13.071 -22.184  0.00  0.00    -0.000 C 
ENDBRANCH  13  14
BRANCH  13  20
ATOM     20  O   UNL     1      35.212 -17.155 -23.573  0.00  0.00    -0.347 OA
ATOM     21  C   UNL     1      34.781 -17.807 -24.755  0.00  0.00    +0.175 C 
ENDBRANCH  13  20
ENDBRANCH  10  13
ENDBRANCH   9  10
ENDBRANCH   1   9
BRANCH   2  22
ATOM     22  C   UNL     1      33.790 -23.062 -18.176  0.00  0.00    -0.043 C 
BRANCH  22  23
ATOM     23  C   UNL     1      33.946 -23.066 -16.649  0.00  0.00    +0.117 C 
BRANCH  23  24
ATOM     24  C   UNL     1      32.603 -23.128 -15.955  0.00  0.00    +0.002 C 
ATOM     25  C   UNL     1      31.428 -22.996 -16.697  0.00  0.00    -0.002 C 
ATOM     26  C   UNL     1      32.539 -23.319 -14.575  0.00  0.00    -0.002 C 
ATOM     27  C   UNL     1      30.190 -23.054 -16.057  0.00  0.00    -0.000 C 
ATOM     28  C   UNL     1      31.300 -23.378 -13.936  0.00  0.00    -0.000 C 
ATOM     29  C   UNL     1      30.126 -23.244 -14.678  0.00  0.00    -0.000 C 
ENDBRANCH  23  24
BRANCH  23  30
ATOM     30  O   UNL     1      34.715 -24.193 -16.234  0.00  0.00    -0.351 OA
ATOM     31  C   UNL     1      35.916 -23.791 -15.594  0.00  0.00    +0.174 C 
ENDBRANCH  23  30
ENDBRANCH  22  23
ENDBRANCH   2  22
TORSDOF 10
ENDMDL
MODEL 8
REMARK VINA RESULT:      -9.3      1.269      2.174
REMARK  Name = 36910
REMARK  10 active torsions:
REMARK  status: ('A' for Active; 'I' for Inactive)
REMARK    1  A    between atoms: N_1  and  C_9
REMARK    2  A    between atoms: N_2  and  C_22
REMARK    3  A    between atoms: C_9  and  C_10
REMARK    4  A    between atoms: C_10  and  O_11
REMARK    5  A    between atoms: C_10  and  C_13
REMARK    6  A    between atoms: C_13  and  C_14
REMARK    7  A    between atoms: C_13  and  O_20
REMARK    8  A    between atoms: C_22  and  C_23
REMARK    9  A    between atoms: C_23  and  C_24
REMARK   10  A    between atoms: C_23  and  O_30
REMARK                            x       y       z     vdW  Elec       q    Type
REMARK                         _______ _______ _______ _____ _____    ______ ____
ROOT
ATOM      1  N   UNL     1      32.348 -14.847 -21.603  0.00  0.00    +0.386 N 
ATOM      2  N   UNL     1      32.248 -12.064 -22.380  0.00  0.00    +0.386 N 
ATOM      3  C   UNL     1      32.364 -13.775 -20.600  0.00  0.00    -0.101 C 
ATOM      4  C   UNL     1      32.952 -14.384 -22.858  0.00  0.00    -0.101 C 
ATOM      5  C   UNL     1      31.644 -12.528 -21.124  0.00  0.00    -0.101 C 
ATOM      6  C   UNL     1      32.232 -13.137 -23.382  0.00  0.00    -0.101 C 
ATOM      7  H   UNL     1      31.377 -15.100 -21.789  0.00  0.00    -0.080 HD
ATOM      8  H   UNL     1      33.218 -11.810 -22.196  0.00  0.00    -0.080 HD
ENDROOT
BRANCH   1   9
ATOM      9  C   UNL     1      33.036 -16.036 -21.103  0.00  0.00    -0.045 C 
BRANCH   9  10
ATOM     10  C   UNL     1      34.549 -15.985 -21.358  0.00  0.00    +0.121 C 
BRANCH  10  11
ATOM     11  O   UNL     1      35.227 -15.958 -20.096  0.00  0.00    -0.384 OA
ATOM     12  H   UNL     1      35.695 -15.113 -19.998  0.00  0.00    +0.210 HD
ENDBRANCH  10  11
BRANCH  10  13
ATOM     13  C   UNL     1      35.120 -17.162 -22.171  0.00  0.00    +0.162 C 
BRANCH  13  14
ATOM     14  C   UNL     1      35.216 -18.460 -21.405  0.00  0.00    +0.007 C 
ATOM     15  C   UNL     1      34.057 -19.168 -21.085  0.00  0.00    -0.002 C 
ATOM     16  C   UNL     1      36.463 -18.952 -21.019  0.00  0.00    -0.002 C 
ATOM     17  C   UNL     1      34.146 -20.367 -20.378  0.00  0.00    -0.000 C 
ATOM     18  C   UNL     1      36.550 -20.151 -20.312  0.00  0.00    -0.000 C 
ATOM     19  C   UNL     1      35.392 -20.859 -19.992  0.00  0.00    -0.000 C 
ENDBRANCH  13  14
BRANCH  13  20
ATOM     20  O   UNL     1      34.275 -17.396 -23.303  0.00  0.00    -0.347 OA
ATOM     21  C   UNL     1      34.932 -17.053 -24.511  0.00  0.00    +0.175 C 
ENDBRANCH  13  20
ENDBRANCH  10  13
ENDBRANCH   9  10
ENDBRANCH   1   9
BRANCH   2  22
ATOM     22  C   UNL     1      31.557 -10.876 -22.879  0.00  0.00    -0.043 C 
BRANCH  22  23
ATOM     23  C   UNL     1      32.564  -9.792 -23.286  0.00  0.00    +0.117 C 
BRANCH  23  24
ATOM     24  C   UNL     1      32.443  -8.566 -22.408  0.00  0.00    +0.002 C 
ATOM     25  C   UNL     1      32.417  -8.703 -21.019  0.00  0.00    -0.002 C 
ATOM     26  C   UNL     1      32.357  -7.299 -22.986  0.00  0.00    -0.002 C 
ATOM     27  C   UNL     1      32.305  -7.573 -20.210  0.00  0.00    -0.000 C 
ATOM     28  C   UNL     1      32.246  -6.169 -22.175  0.00  0.00    -0.000 C 
ATOM     29  C   UNL     1      32.220  -6.307 -20.787  0.00  0.00    -0.000 C 
ENDBRANCH  23  24
BRANCH  23  30
ATOM     30  O   UNL     1      33.897 -10.288 -23.176  0.00  0.00    -0.351 OA
ATOM     31  C   UNL     1      34.642 -10.032 -24.356  0.00  0.00    +0.174 C 
ENDBRANCH  23  30
ENDBRANCH  22  23
ENDBRANCH   2  22
TORSDOF 10
ENDMDL
MODEL 9
REMARK VINA RESULT:      -9.2      4.341      7.826
REMARK  Name = 36910
REMARK  10 active torsions:
REMARK  status: ('A' for Active; 'I' for Inactive)
REMARK    1  A    between atoms: N_1  and  C_9
REMARK    2  A    between atoms: N_2  and  C_22
REMARK    3  A    between atoms: C_9  and  C_10
REMARK    4  A    between atoms: C_10  and  O_11
REMARK    5  A    between atoms: C_10  and  C_13
REMARK    6  A    between atoms: C_13  and  C_14
REMARK    7  A    between atoms: C_13  and  O_20
REMARK    8  A    between atoms: C_22  and  C_23
REMARK    9  A    between atoms: C_23  and  C_24
REMARK   10  A    between atoms: C_23  and  O_30
REMARK                            x       y       z     vdW  Elec       q    Type
REMARK                         _______ _______ _______ _____ _____    ______ ____
ROOT
ATOM      1  N   UNL     1      35.144 -21.293 -19.876  0.00  0.00    +0.386 N 
ATOM      2  N   UNL     1      34.741 -18.864 -21.391  0.00  0.00    +0.386 N 
ATOM      3  C   UNL     1      33.848 -20.602 -19.879  0.00  0.00    -0.101 C 
ATOM      4  C   UNL     1      36.235 -20.334 -20.083  0.00  0.00    -0.101 C 
ATOM      5  C   UNL     1      33.648 -19.822 -21.182  0.00  0.00    -0.101 C 
ATOM      6  C   UNL     1      36.036 -19.554 -21.388  0.00  0.00    -0.101 C 
ATOM      7  H   UNL     1      35.153 -21.962 -20.647  0.00  0.00    -0.080 HD
ATOM      8  H   UNL     1      34.732 -18.193 -20.622  0.00  0.00    -0.080 HD
ENDROOT
BRANCH   1   9
ATOM      9  C   UNL     1      35.333 -22.035 -18.632  0.00  0.00    -0.045 C 
BRANCH   9  10
ATOM     10  C   UNL     1      34.038 -22.700 -18.145  0.00  0.00    +0.121 C 
BRANCH  10  11
ATOM     11  O   UNL     1      33.862 -23.935 -18.850  0.00  0.00    -0.384 OA
ATOM     12  H   UNL     1      32.985 -24.300 -18.649  0.00  0.00    +0.210 HD
ENDBRANCH  10  11
BRANCH  10  13
ATOM     13  C   UNL     1      33.982 -23.009 -16.637  0.00  0.00    +0.162 C 
BRANCH  13  14
ATOM     14  C   UNL     1      32.585 -23.169 -16.085  0.00  0.00    +0.007 C 
ATOM     15  C   UNL     1      32.397 -23.659 -14.793  0.00  0.00    -0.002 C 
ATOM     16  C   UNL     1      31.483 -22.824 -16.868  0.00  0.00    -0.002 C 
ATOM     17  C   UNL     1      31.107 -23.805 -14.284  0.00  0.00    -0.000 C 
ATOM     18  C   UNL     1      30.193 -22.971 -16.358  0.00  0.00    -0.000 C 
ATOM     19  C   UNL     1      30.006 -23.461 -15.065  0.00  0.00    -0.000 C 
ENDBRANCH  13  14
BRANCH  13  20
ATOM     20  O   UNL     1      34.681 -24.234 -16.389  0.00  0.00    -0.347 OA
ATOM     21  C   UNL     1      35.790 -24.025 -15.531  0.00  0.00    +0.175 C 
ENDBRANCH  13  20
ENDBRANCH  10  13
ENDBRANCH   9  10
ENDBRANCH   1   9
BRANCH   2  22
ATOM     22  C   UNL     1      34.550 -18.123 -22.637  0.00  0.00    -0.043 C 
BRANCH  22  23
ATOM     23  C   UNL     1      34.609 -16.610 -22.386  0.00  0.00    +0.117 C 
BRANCH  23  24
ATOM     24  C   UNL     1      34.068 -15.832 -23.565  0.00  0.00    +0.002 C 
ATOM     25  C   UNL     1      34.049 -16.412 -24.834  0.00  0.00    -0.002 C 
ATOM     26  C   UNL     1      33.587 -14.535 -23.383  0.00  0.00    -0.002 C 
ATOM     27  C   UNL     1      33.550 -15.694 -25.921  0.00  0.00    -0.000 C 
ATOM     28  C   UNL     1      33.087 -13.818 -24.471  0.00  0.00    -0.000 C 
ATOM     29  C   UNL     1      33.069 -14.398 -25.740  0.00  0.00    -0.000 C 
ENDBRANCH  23  24
BRANCH  23  30
ATOM     30  O   UNL     1      33.837 -16.269 -21.235  0.00  0.00    -0.351 OA
ATOM     31  C   UNL     1      34.599 -15.511 -20.309  0.00  0.00    +0.174 C 
ENDBRANCH  23  30
ENDBRANCH  22  23
ENDBRANCH   2  22
TORSDOF 10
ENDMDL
