MODEL 1
REMARK VINA RESULT:      -7.2      0.000      0.000
REMARK  Name = 9838022
REMARK  6 active torsions:
REMARK  status: ('A' for Active; 'I' for Inactive)
REMARK    1  A    between atoms: C_1  and  C_2
REMARK    2  A    between atoms: C_1  and  C_10
REMARK    3  A    between atoms: C_1  and  C_17
REMARK    4  A    between atoms: C_5  and  O_8
REMARK    5  A    between atoms: C_10  and  C_12
REMARK    6  A    between atoms: C_12  and  N_13
REMARK                            x       y       z     vdW  Elec       q    Type
REMARK                         _______ _______ _______ _____ _____    ______ ____
ROOT
ATOM      1  C   UNL     1      34.123 -17.818 -21.982  0.00  0.00    +0.020 C 
ENDROOT
BRANCH   1   2
ATOM      2  C   UNL     1      34.450 -19.063 -21.165  0.00  0.00    -0.020 C 
ATOM      3  C   UNL     1      33.412 -19.823 -20.669  0.00  0.00    +0.032 C 
ATOM      4  C   UNL     1      35.772 -19.388 -20.949  0.00  0.00    -0.004 C 
ATOM      5  C   UNL     1      33.710 -20.961 -19.921  0.00  0.00    +0.133 C 
ATOM      6  C   UNL     1      36.070 -20.526 -20.201  0.00  0.00    +0.003 C 
ATOM      7  C   UNL     1      35.040 -21.313 -19.687  0.00  0.00    +0.037 C 
BRANCH   5   8
ATOM      8  O   UNL     1      32.705 -21.728 -19.419  0.00  0.00    -0.506 OA
ATOM      9  H   UNL     1      31.916 -21.848 -19.910  0.00  0.00    +0.292 HD
ENDBRANCH   5   8
ENDBRANCH   1   2
BRANCH   1  10
ATOM     10  C   UNL     1      33.675 -16.629 -21.062  0.00  0.00    -0.017 C 
ATOM     11  C   UNL     1      34.871 -15.825 -20.526  0.00  0.00    -0.002 C 
BRANCH  10  12
ATOM     12  C   UNL     1      32.665 -15.674 -21.747  0.00  0.00    -0.077 C 
BRANCH  12  13
ATOM     13  N   UNL     1      33.220 -14.359 -22.050  0.00  0.00    +0.384 N 
ATOM     14  C   UNL     1      32.310 -13.302 -21.606  0.00  0.00    -0.101 C 
ATOM     15  C   UNL     1      33.486 -14.229 -23.484  0.00  0.00    -0.101 C 
ATOM     16  H   UNL     1      34.101 -14.260 -21.546  0.00  0.00    -0.080 HD
ENDBRANCH  12  13
ENDBRANCH  10  12
ENDBRANCH   1  10
BRANCH   1  17
ATOM     17  C   UNL     1      35.310 -17.438 -22.906  0.00  0.00    +0.004 C 
ATOM     18  C   UNL     1      34.980 -17.521 -24.393  0.00  0.00    +0.000 C 
ENDBRANCH   1  17
TORSDOF 6
ENDMDL
MODEL 2
REMARK VINA RESULT:      -7.1      1.620      2.278
REMARK  Name = 9838022
REMARK  6 active torsions:
REMARK  status: ('A' for Active; 'I' for Inactive)
REMARK    1  A    between atoms: C_1  and  C_2
REMARK    2  A    between atoms: C_1  and  C_10
REMARK    3  A    between atoms: C_1  and  C_17
REMARK    4  A    between atoms: C_5  and  O_8
REMARK    5  A    between atoms: C_10  and  C_12
REMARK    6  A    between atoms: C_12  and  N_13
REMARK                            x       y       z     vdW  Elec       q    Type
REMARK                         _______ _______ _______ _____ _____    ______ ____
ROOT
ATOM      1  C   UNL     1      34.217 -18.434 -22.597  0.00  0.00    +0.020 C 
ENDROOT
BRANCH   1   2
ATOM      2  C   UNL     1      34.250 -19.463 -21.471  0.00  0.00    -0.020 C 
ATOM      3  C   UNL     1      35.465 -19.984 -21.083  0.00  0.00    +0.032 C 
ATOM      4  C   UNL     1      33.062 -19.837 -20.879  0.00  0.00    -0.004 C 
ATOM      5  C   UNL     1      35.495 -20.925 -20.055  0.00  0.00    +0.133 C 
ATOM      6  C   UNL     1      33.092 -20.778 -19.850  0.00  0.00    +0.003 C 
ATOM      7  C   UNL     1      34.308 -21.322 -19.438  0.00  0.00    +0.037 C 
BRANCH   5   8
ATOM      8  O   UNL     1      36.682 -21.457 -19.653  0.00  0.00    -0.506 OA
ATOM      9  H   UNL     1      36.954 -21.374 -18.760  0.00  0.00    +0.292 HD
ENDBRANCH   5   8
ENDBRANCH   1   2
BRANCH   1  10
ATOM     10  C   UNL     1      34.256 -16.970 -22.037  0.00  0.00    -0.017 C 
ATOM     11  C   UNL     1      35.079 -16.863 -20.743  0.00  0.00    -0.002 C 
BRANCH  10  12
ATOM     12  C   UNL     1      34.766 -15.934 -23.070  0.00  0.00    -0.077 C 
BRANCH  12  13
ATOM     13  N   UNL     1      33.700 -15.312 -23.848  0.00  0.00    +0.384 N 
ATOM     14  C   UNL     1      33.759 -15.749 -25.244  0.00  0.00    -0.101 C 
ATOM     15  C   UNL     1      33.788 -13.853 -23.768  0.00  0.00    -0.101 C 
ATOM     16  H   UNL     1      32.806 -15.604 -23.455  0.00  0.00    -0.080 HD
ENDBRANCH  12  13
ENDBRANCH  10  12
ENDBRANCH   1  10
BRANCH   1  17
ATOM     17  C   UNL     1      35.347 -18.706 -23.624  0.00  0.00    +0.004 C 
ATOM     18  C   UNL     1      34.899 -19.534 -24.824  0.00  0.00    +0.000 C 
ENDBRANCH   1  17
TORSDOF 6
ENDMDL
MODEL 3
REMARK VINA RESULT:      -7.0      1.325      2.385
REMARK  Name = 9838022
REMARK  6 active torsions:
REMARK  status: ('A' for Active; 'I' for Inactive)
REMARK    1  A    between atoms: C_1  and  C_2
REMARK    2  A    between atoms: C_1  and  C_10
REMARK    3  A    between atoms: C_1  and  C_17
REMARK    4  A    between atoms: C_5  and  O_8
REMARK    5  A    between atoms: C_10  and  C_12
REMARK    6  A    between atoms: C_12  and  N_13
REMARK                            x       y       z     vdW  Elec       q    Type
REMARK                         _______ _______ _______ _____ _____    ______ ____
ROOT
ATOM      1  C   UNL     1      35.140 -17.057 -21.731  0.00  0.00    +0.020 C 
ENDROOT
BRANCH   1   2
ATOM      2  C   UNL     1      35.114 -18.471 -21.160  0.00  0.00    -0.020 C 
ATOM      3  C   UNL     1      33.897 -19.092 -20.981  0.00  0.00    +0.032 C 
ATOM      4  C   UNL     1      36.309 -19.080 -20.840  0.00  0.00    -0.004 C 
ATOM      5  C   UNL     1      33.873 -20.385 -20.458  0.00  0.00    +0.133 C 
ATOM      6  C   UNL     1      36.285 -20.372 -20.317  0.00  0.00    +0.003 C 
ATOM      7  C   UNL     1      35.067 -21.025 -20.126  0.00  0.00    +0.037 C 
BRANCH   5   8
ATOM      8  O   UNL     1      32.685 -21.021 -20.270  0.00  0.00    -0.506 OA
ATOM      9  H   UNL     1      32.532 -21.506 -19.484  0.00  0.00    +0.292 HD
ENDBRANCH   5   8
ENDBRANCH   1   2
BRANCH   1  10
ATOM     10  C   UNL     1      35.074 -17.071 -23.298  0.00  0.00    -0.017 C 
ATOM     11  C   UNL     1      35.199 -18.491 -23.873  0.00  0.00    -0.002 C 
BRANCH  10  12
ATOM     12  C   UNL     1      33.802 -16.387 -23.862  0.00  0.00    -0.077 C 
BRANCH  12  13
ATOM     13  N   UNL     1      34.087 -15.235 -24.711  0.00  0.00    +0.384 N 
ATOM     14  C   UNL     1      33.701 -13.993 -24.040  0.00  0.00    -0.101 C 
ATOM     15  C   UNL     1      33.392 -15.357 -25.994  0.00  0.00    -0.101 C 
ATOM     16  H   UNL     1      35.091 -15.209 -24.888  0.00  0.00    -0.080 HD
ENDBRANCH  12  13
ENDBRANCH  10  12
ENDBRANCH   1  10
BRANCH   1  17
ATOM     17  C   UNL     1      34.023 -16.187 -21.098  0.00  0.00    +0.004 C 
ATOM     18  C   UNL     1      34.525 -14.860 -20.536  0.00  0.00    +0.000 C 
ENDBRANCH   1  17
TORSDOF 6
ENDMDL
MODEL 4
REMARK VINA RESULT:      -6.7      3.196      5.288
REMARK  Name = 9838022
REMARK  6 active torsions:
REMARK  status: ('A' for Active; 'I' for Inactive)
REMARK    1  A    between atoms: C_1  and  C_2
REMARK    2  A    between atoms: C_1  and  C_10
REMARK    3  A    between atoms: C_1  and  C_17
REMARK    4  A    between atoms: C_5  and  O_8
REMARK    5  A    between atoms: C_10  and  C_12
REMARK    6  A    between atoms: C_12  and  N_13
REMARK                            x       y       z     vdW  Elec       q    Type
REMARK                         _______ _______ _______ _____ _____    ______ ____
ROOT
ATOM      1  C   UNL     1      33.582 -13.282 -23.165  0.00  0.00    +0.020 C 
ENDROOT
BRANCH   1   2
ATOM      2  C   UNL     1      34.144 -14.565 -22.563  0.00  0.00    -0.020 C 
ATOM      3  C   UNL     1      34.698 -15.506 -23.405  0.00  0.00    +0.032 C 
ATOM      4  C   UNL     1      34.079 -14.742 -21.198  0.00  0.00    -0.004 C 
ATOM      5  C   UNL     1      35.212 -16.680 -22.856  0.00  0.00    +0.133 C 
ATOM      6  C   UNL     1      34.593 -15.917 -20.648  0.00  0.00    +0.003 C 
ATOM      7  C   UNL     1      35.159 -16.886 -21.477  0.00  0.00    +0.037 C 
BRANCH   5   8
ATOM      8  O   UNL     1      35.763 -17.626 -23.664  0.00  0.00    -0.506 OA
ATOM      9  H   UNL     1      35.868 -17.456 -24.579  0.00  0.00    +0.292 HD
ENDBRANCH   5   8
ENDBRANCH   1   2
BRANCH   1  10
ATOM     10  C   UNL     1      33.814 -13.225 -24.715  0.00  0.00    -0.017 C 
ATOM     11  C   UNL     1      32.835 -14.127 -25.484  0.00  0.00    -0.002 C 
BRANCH  10  12
ATOM     12  C   UNL     1      33.762 -11.786 -25.289  0.00  0.00    -0.077 C 
BRANCH  12  13
ATOM     13  N   UNL     1      34.808 -10.913 -24.767  0.00  0.00    +0.384 N 
ATOM     14  C   UNL     1      34.227  -9.837 -23.963  0.00  0.00    -0.101 C 
ATOM     15  C   UNL     1      35.607 -10.355 -25.860  0.00  0.00    -0.101 C 
ATOM     16  H   UNL     1      35.420 -11.468 -24.170  0.00  0.00    -0.080 HD
ENDBRANCH  12  13
ENDBRANCH  10  12
ENDBRANCH   1  10
BRANCH   1  17
ATOM     17  C   UNL     1      32.090 -13.101 -22.783  0.00  0.00    +0.004 C 
ATOM     18  C   UNL     1      31.825 -11.880 -21.907  0.00  0.00    +0.000 C 
ENDBRANCH   1  17
TORSDOF 6
ENDMDL
MODEL 5
REMARK VINA RESULT:      -6.6      7.691     10.045
REMARK  Name = 9838022
REMARK  6 active torsions:
REMARK  status: ('A' for Active; 'I' for Inactive)
REMARK    1  A    between atoms: C_1  and  C_2
REMARK    2  A    between atoms: C_1  and  C_10
REMARK    3  A    between atoms: C_1  and  C_17
REMARK    4  A    between atoms: C_5  and  O_8
REMARK    5  A    between atoms: C_10  and  C_12
REMARK    6  A    between atoms: C_12  and  N_13
REMARK                            x       y       z     vdW  Elec       q    Type
REMARK                         _______ _______ _______ _____ _____    ______ ____
ROOT
ATOM      1  C   UNL     1      32.527  -8.097 -22.773  0.00  0.00    +0.020 C 
ENDROOT
BRANCH   1   2
ATOM      2  C   UNL     1      32.145  -9.266 -21.870  0.00  0.00    -0.020 C 
ATOM      3  C   UNL     1      31.975 -10.512 -22.435  0.00  0.00    +0.032 C 
ATOM      4  C   UNL     1      31.983  -9.037 -20.521  0.00  0.00    -0.004 C 
ATOM      5  C   UNL     1      31.626 -11.581 -21.610  0.00  0.00    +0.133 C 
ATOM      6  C   UNL     1      31.633 -10.106 -19.696  0.00  0.00    +0.003 C 
ATOM      7  C   UNL     1      31.455 -11.378 -20.241  0.00  0.00    +0.037 C 
BRANCH   5   8
ATOM      8  O   UNL     1      31.451 -12.822 -22.141  0.00  0.00    -0.506 OA
ATOM      9  H   UNL     1      31.466 -13.575 -21.585  0.00  0.00    +0.292 HD
ENDBRANCH   5   8
ENDBRANCH   1   2
BRANCH   1  10
ATOM     10  C   UNL     1      31.436  -6.970 -22.744  0.00  0.00    -0.017 C 
ATOM     11  C   UNL     1      31.805  -5.828 -21.784  0.00  0.00    -0.002 C 
BRANCH  10  12
ATOM     12  C   UNL     1      31.116  -6.394 -24.147  0.00  0.00    -0.077 C 
BRANCH  12  13
ATOM     13  N   UNL     1      31.835  -5.161 -24.449  0.00  0.00    +0.384 N 
ATOM     14  C   UNL     1      30.899  -4.097 -24.815  0.00  0.00    -0.101 C 
ATOM     15  C   UNL     1      32.802  -5.379 -25.526  0.00  0.00    -0.101 C 
ATOM     16  H   UNL     1      32.341  -4.873 -23.612  0.00  0.00    -0.080 HD
ENDBRANCH  12  13
ENDBRANCH  10  12
ENDBRANCH   1  10
BRANCH   1  17
ATOM     17  C   UNL     1      33.939  -7.564 -22.417  0.00  0.00    +0.004 C 
ATOM     18  C   UNL     1      34.916  -7.587 -23.589  0.00  0.00    +0.000 C 
ENDBRANCH   1  17
TORSDOF 6
ENDMDL
MODEL 6
REMARK VINA RESULT:      -6.6      7.654     10.097
REMARK  Name = 9838022
REMARK  6 active torsions:
REMARK  status: ('A' for Active; 'I' for Inactive)
REMARK    1  A    between atoms: C_1  and  C_2
REMARK    2  A    between atoms: C_1  and  C_10
REMARK    3  A    between atoms: C_1  and  C_17
REMARK    4  A    between atoms: C_5  and  O_8
REMARK    5  A    between atoms: C_10  and  C_12
REMARK    6  A    between atoms: C_12  and  N_13
REMARK                            x       y       z     vdW  Elec       q    Type
REMARK                         _______ _______ _______ _____ _____    ______ ____
ROOT
ATOM      1  C   UNL     1      34.240 -23.155 -15.274  0.00  0.00    +0.020 C 
ENDROOT
BRANCH   1   2
ATOM      2  C   UNL     1      32.747 -23.434 -15.126  0.00  0.00    -0.020 C 
ATOM      3  C   UNL     1      32.288 -23.980 -13.947  0.00  0.00    +0.032 C 
ATOM      4  C   UNL     1      31.908 -23.132 -16.177  0.00  0.00    -0.004 C 
ATOM      5  C   UNL     1      30.924 -24.236 -13.811  0.00  0.00    +0.133 C 
ATOM      6  C   UNL     1      30.544 -23.388 -16.042  0.00  0.00    +0.003 C 
ATOM      7  C   UNL     1      30.052 -23.940 -14.859  0.00  0.00    +0.037 C 
BRANCH   5   8
ATOM      8  O   UNL     1      30.444 -24.775 -12.658  0.00  0.00    -0.506 OA
ATOM      9  H   UNL     1      29.670 -25.303 -12.675  0.00  0.00    +0.292 HD
ENDBRANCH   5   8
ENDBRANCH   1   2
BRANCH   1  10
ATOM     10  C   UNL     1      35.096 -24.137 -14.401  0.00  0.00    -0.017 C 
ATOM     11  C   UNL     1      35.633 -25.324 -15.219  0.00  0.00    -0.002 C 
BRANCH  10  12
ATOM     12  C   UNL     1      36.265 -23.437 -13.663  0.00  0.00    -0.077 C 
BRANCH  12  13
ATOM     13  N   UNL     1      36.023 -23.247 -12.237  0.00  0.00    +0.384 N 
ATOM     14  C   UNL     1      37.260 -22.867 -11.552  0.00  0.00    -0.101 C 
ATOM     15  C   UNL     1      35.466 -24.462 -11.642  0.00  0.00    -0.101 C 
ATOM     16  H   UNL     1      35.347 -22.492 -12.125  0.00  0.00    -0.080 HD
ENDBRANCH  12  13
ENDBRANCH  10  12
ENDBRANCH   1  10
BRANCH   1  17
ATOM     17  C   UNL     1      34.658 -23.170 -16.768  0.00  0.00    +0.004 C 
ATOM     18  C   UNL     1      35.821 -22.236 -17.088  0.00  0.00    +0.000 C 
ENDBRANCH   1  17
TORSDOF 6
ENDMDL
MODEL 7
REMARK VINA RESULT:      -6.5      2.635      4.481
REMARK  Name = 9838022
REMARK  6 active torsions:
REMARK  status: ('A' for Active; 'I' for Inactive)
REMARK    1  A    between atoms: C_1  and  C_2
REMARK    2  A    between atoms: C_1  and  C_10
REMARK    3  A    between atoms: C_1  and  C_17
REMARK    4  A    between atoms: C_5  and  O_8
REMARK    5  A    between atoms: C_10  and  C_12
REMARK    6  A    between atoms: C_12  and  N_13
REMARK                            x       y       z     vdW  Elec       q    Type
REMARK                         _______ _______ _______ _____ _____    ______ ____
ROOT
ATOM      1  C   UNL     1      33.865 -14.295 -22.593  0.00  0.00    +0.020 C 
ENDROOT
BRANCH   1   2
ATOM      2  C   UNL     1      34.457 -15.694 -22.730  0.00  0.00    -0.020 C 
ATOM      3  C   UNL     1      34.831 -16.371 -21.590  0.00  0.00    +0.032 C 
ATOM      4  C   UNL     1      34.598 -16.234 -23.991  0.00  0.00    -0.004 C 
ATOM      5  C   UNL     1      35.373 -17.649 -21.714  0.00  0.00    +0.133 C 
ATOM      6  C   UNL     1      35.140 -17.513 -24.115  0.00  0.00    +0.003 C 
ATOM      7  C   UNL     1      35.528 -18.221 -22.978  0.00  0.00    +0.037 C 
BRANCH   5   8
ATOM      8  O   UNL     1      35.751 -18.340 -20.604  0.00  0.00    -0.506 OA
ATOM      9  H   UNL     1      35.778 -17.910 -19.772  0.00  0.00    +0.292 HD
ENDBRANCH   5   8
ENDBRANCH   1   2
BRANCH   1  10
ATOM     10  C   UNL     1      33.814 -13.556 -23.976  0.00  0.00    -0.017 C 
ATOM     11  C   UNL     1      32.779 -14.175 -24.929  0.00  0.00    -0.002 C 
BRANCH  10  12
ATOM     12  C   UNL     1      33.561 -12.032 -23.845  0.00  0.00    -0.077 C 
BRANCH  12  13
ATOM     13  N   UNL     1      34.613 -11.213 -24.438  0.00  0.00    +0.384 N 
ATOM     14  C   UNL     1      34.491  -9.822 -23.998  0.00  0.00    -0.101 C 
ATOM     15  C   UNL     1      34.563 -11.289 -25.899  0.00  0.00    -0.101 C 
ATOM     16  H   UNL     1      35.513 -11.574 -24.125  0.00  0.00    -0.080 HD
ENDBRANCH  12  13
ENDBRANCH  10  12
ENDBRANCH   1  10
BRANCH   1  17
ATOM     17  C   UNL     1      32.479 -14.349 -21.899  0.00  0.00    +0.004 C 
ATOM     18  C   UNL     1      32.387 -13.484 -20.645  0.00  0.00    +0.000 C 
ENDBRANCH   1  17
TORSDOF 6
ENDMDL
MODEL 8
REMARK VINA RESULT:      -6.5      6.090      9.433
REMARK  Name = 9838022
REMARK  6 active torsions:
REMARK  status: ('A' for Active; 'I' for Inactive)
REMARK    1  A    between atoms: C_1  and  C_2
REMARK    2  A    between atoms: C_1  and  C_10
REMARK    3  A    between atoms: C_1  and  C_17
REMARK    4  A    between atoms: C_5  and  O_8
REMARK    5  A    between atoms: C_10  and  C_12
REMARK    6  A    between atoms: C_12  and  N_13
REMARK                            x       y       z     vdW  Elec       q    Type
REMARK                         _______ _______ _______ _____ _____    ______ ____
ROOT
ATOM      1  C   UNL     1      33.756 -23.786 -15.784  0.00  0.00    +0.020 C 
ENDROOT
BRANCH   1   2
ATOM      2  C   UNL     1      34.195 -23.006 -17.020  0.00  0.00    -0.020 C 
ATOM      3  C   UNL     1      33.268 -22.751 -18.007  0.00  0.00    +0.032 C 
ATOM      4  C   UNL     1      35.504 -22.584 -17.107  0.00  0.00    -0.004 C 
ATOM      5  C   UNL     1      33.669 -22.038 -19.137  0.00  0.00    +0.133 C 
ATOM      6  C   UNL     1      35.905 -21.871 -18.237  0.00  0.00    +0.003 C 
ATOM      7  C   UNL     1      34.988 -21.599 -19.252  0.00  0.00    +0.037 C 
BRANCH   5   8
ATOM      8  O   UNL     1      32.774 -21.773 -20.127  0.00  0.00    -0.506 OA
ATOM      9  H   UNL     1      32.245 -21.001 -20.086  0.00  0.00    +0.292 HD
ENDBRANCH   5   8
ENDBRANCH   1   2
BRANCH   1  10
ATOM     10  C   UNL     1      34.948 -24.000 -14.788  0.00  0.00    -0.017 C 
ATOM     11  C   UNL     1      34.494 -23.956 -13.320  0.00  0.00    -0.002 C 
BRANCH  10  12
ATOM     12  C   UNL     1      35.738 -25.307 -15.053  0.00  0.00    -0.077 C 
BRANCH  12  13
ATOM     13  N   UNL     1      36.936 -25.441 -14.231  0.00  0.00    +0.384 N 
ATOM     14  C   UNL     1      38.026 -24.629 -14.774  0.00  0.00    -0.101 C 
ATOM     15  C   UNL     1      37.345 -26.843 -14.140  0.00  0.00    -0.101 C 
ATOM     16  H   UNL     1      36.719 -25.105 -13.293  0.00  0.00    -0.080 HD
ENDBRANCH  12  13
ENDBRANCH  10  12
ENDBRANCH   1  10
BRANCH   1  17
ATOM     17  C   UNL     1      32.534 -23.109 -15.111  0.00  0.00    +0.004 C 
ATOM     18  C   UNL     1      31.258 -23.942 -15.177  0.00  0.00    +0.000 C 
ENDBRANCH   1  17
TORSDOF 6
ENDMDL
MODEL 9
REMARK VINA RESULT:      -6.4      8.150      9.874
REMARK  Name = 9838022
REMARK  6 active torsions:
REMARK  status: ('A' for Active; 'I' for Inactive)
REMARK    1  A    between atoms: C_1  and  C_2
REMARK    2  A    between atoms: C_1  and  C_10
REMARK    3  A    between atoms: C_1  and  C_17
REMARK    4  A    between atoms: C_5  and  O_8
REMARK    5  A    between atoms: C_10  and  C_12
REMARK    6  A    between atoms: C_12  and  N_13
REMARK                            x       y       z     vdW  Elec       q    Type
REMARK                         _______ _______ _______ _____ _____    ______ ____
ROOT
ATOM      1  C   UNL     1      33.117  -9.065 -23.728  0.00  0.00    +0.020 C 
ENDROOT
BRANCH   1   2
ATOM      2  C   UNL     1      32.479  -9.602 -22.451  0.00  0.00    -0.020 C 
ATOM      3  C   UNL     1      32.476  -8.807 -21.325  0.00  0.00    +0.032 C 
ATOM      4  C   UNL     1      31.927 -10.865 -22.465  0.00  0.00    -0.004 C 
ATOM      5  C   UNL     1      31.894  -9.298 -20.157  0.00  0.00    +0.133 C 
ATOM      6  C   UNL     1      31.344 -11.356 -21.297  0.00  0.00    +0.003 C 
ATOM      7  C   UNL     1      31.328 -10.573 -20.143  0.00  0.00    +0.037 C 
BRANCH   5   8
ATOM      8  O   UNL     1      31.878  -8.535 -19.031  0.00  0.00    -0.506 OA
ATOM      9  H   UNL     1      31.664  -7.624 -19.085  0.00  0.00    +0.292 HD
ENDBRANCH   5   8
ENDBRANCH   1   2
BRANCH   1  10
ATOM     10  C   UNL     1      33.215  -7.499 -23.705  0.00  0.00    -0.017 C 
ATOM     11  C   UNL     1      34.466  -6.983 -24.433  0.00  0.00    -0.002 C 
BRANCH  10  12
ATOM     12  C   UNL     1      31.952  -6.801 -24.272  0.00  0.00    -0.077 C 
BRANCH  12  13
ATOM     13  N   UNL     1      31.653  -5.525 -23.631  0.00  0.00    +0.384 N 
ATOM     14  C   UNL     1      30.783  -5.725 -22.471  0.00  0.00    -0.101 C 
ATOM     15  C   UNL     1      31.028  -4.604 -24.582  0.00  0.00    -0.101 C 
ATOM     16  H   UNL     1      32.530  -5.115 -23.311  0.00  0.00    -0.080 HD
ENDBRANCH  12  13
ENDBRANCH  10  12
ENDBRANCH   1  10
BRANCH   1  17
ATOM     17  C   UNL     1      34.489  -9.740 -23.984  0.00  0.00    +0.004 C 
ATOM     18  C   UNL     1      34.462 -10.779 -25.101  0.00  0.00    +0.000 C 
ENDBRANCH   1  17
TORSDOF 6
ENDMDL
