MODEL 1
REMARK VINA RESULT:     -10.1      0.000      0.000
REMARK  Name = 23582824
REMARK  2 active torsions:
REMARK  status: ('A' for Active; 'I' for Inactive)
REMARK    1  A    between atoms: C_3  and  C_21
REMARK    2  A    between atoms: C_6  and  C_15
REMARK                            x       y       z     vdW  Elec       q    Type
REMARK                         _______ _______ _______ _____ _____    ______ ____
ROOT
ATOM      1  N   UNL     1      31.673  -9.186 -19.203  0.00  0.00    -0.244 NA
ATOM      2  C   UNL     1      32.271  -9.475 -21.519  0.00  0.00    +0.018 C 
ATOM      3  C   UNL     1      32.564  -8.107 -21.608  0.00  0.00    +0.003 C 
ATOM      4  C   UNL     1      31.823  -9.979 -20.281  0.00  0.00    +0.081 C 
ATOM      5  C   UNL     1      32.416 -10.332 -22.623  0.00  0.00    +0.002 C 
ATOM      6  C   UNL     1      32.119 -11.687 -22.508  0.00  0.00    +0.001 C 
ATOM      7  C   UNL     1      31.533 -11.338 -20.193  0.00  0.00    +0.019 C 
ATOM      8  C   UNL     1      31.677 -12.190 -21.290  0.00  0.00    +0.002 C 
ATOM      9  C   UNL     1      32.411  -7.287 -20.499  0.00  0.00    +0.021 C 
ATOM     10  C   UNL     1      31.966  -7.871 -19.330  0.00  0.00    +0.099 C 
ENDROOT
BRANCH   6  15
ATOM     11  S   UNL     1      34.117 -14.216 -22.475  0.00  0.00    -0.025 S 
ATOM     12  O   UNL     1      32.557 -14.338 -25.964  0.00  0.00    -0.269 OA
ATOM     13  O   UNL     1      35.533 -16.367 -23.048  0.00  0.00    -0.262 OA
ATOM     14  N   UNL     1      34.093 -15.519 -24.674  0.00  0.00    -0.243 N 
ATOM     15  C   UNL     1      32.271 -12.572 -23.651  0.00  0.00    +0.011 C 
ATOM     16  C   UNL     1      33.079 -13.650 -23.726  0.00  0.00    +0.087 C 
ATOM     17  C   UNL     1      33.183 -14.510 -24.929  0.00  0.00    +0.258 C 
ATOM     18  C   UNL     1      34.709 -15.558 -23.445  0.00  0.00    +0.283 C 
ATOM     19  H   UNL     1      34.297 -16.196 -25.360  0.00  0.00    +0.159 HD
ENDBRANCH   6  15
BRANCH   3  21
ATOM     20  N   UNL     1      33.933  -6.284 -25.193  0.00  0.00    -0.242 NA
ATOM     21  C   UNL     1      33.032  -7.484 -22.835  0.00  0.00    +0.003 C 
ATOM     22  C   UNL     1      32.151  -6.760 -23.630  0.00  0.00    +0.021 C 
ATOM     23  C   UNL     1      34.363  -7.609 -23.217  0.00  0.00    +0.021 C 
ATOM     24  C   UNL     1      32.646  -6.184 -24.788  0.00  0.00    +0.099 C 
ATOM     25  C   UNL     1      34.760  -6.995 -24.394  0.00  0.00    +0.099 C 
ENDBRANCH   3  21
TORSDOF 2
ENDMDL
MODEL 2
REMARK VINA RESULT:      -9.9      4.646      7.615
REMARK  Name = 23582824
REMARK  2 active torsions:
REMARK  status: ('A' for Active; 'I' for Inactive)
REMARK    1  A    between atoms: C_3  and  C_21
REMARK    2  A    between atoms: C_6  and  C_15
REMARK                            x       y       z     vdW  Elec       q    Type
REMARK                         _______ _______ _______ _____ _____    ______ ____
ROOT
ATOM      1  N   UNL     1      33.499 -15.658 -26.411  0.00  0.00    -0.244 NA
ATOM      2  C   UNL     1      33.817 -15.804 -24.027  0.00  0.00    +0.018 C 
ATOM      3  C   UNL     1      33.040 -14.650 -23.858  0.00  0.00    +0.003 C 
ATOM      4  C   UNL     1      34.024 -16.279 -25.338  0.00  0.00    +0.081 C 
ATOM      5  C   UNL     1      34.381 -16.478 -22.930  0.00  0.00    +0.002 C 
ATOM      6  C   UNL     1      35.149 -17.623 -23.126  0.00  0.00    +0.001 C 
ATOM      7  C   UNL     1      34.796 -17.426 -25.505  0.00  0.00    +0.019 C 
ATOM      8  C   UNL     1      35.357 -18.096 -24.416  0.00  0.00    +0.002 C 
ATOM      9  C   UNL     1      32.497 -14.007 -24.962  0.00  0.00    +0.021 C 
ATOM     10  C   UNL     1      32.754 -14.547 -26.205  0.00  0.00    +0.099 C 
ENDROOT
BRANCH   6  15
ATOM     11  S   UNL     1      33.508 -19.815 -21.426  0.00  0.00    -0.025 S 
ATOM     12  O   UNL     1      36.923 -19.708 -19.710  0.00  0.00    -0.269 OA
ATOM     13  O   UNL     1      32.712 -21.642 -19.697  0.00  0.00    -0.262 OA
ATOM     14  N   UNL     1      34.882 -20.809 -19.514  0.00  0.00    -0.243 N 
ATOM     15  C   UNL     1      35.731 -18.319 -21.991  0.00  0.00    +0.011 C 
ATOM     16  C   UNL     1      35.121 -19.248 -21.224  0.00  0.00    +0.087 C 
ATOM     17  C   UNL     1      35.778 -19.919 -20.078  0.00  0.00    +0.258 C 
ATOM     18  C   UNL     1      33.625 -20.917 -20.061  0.00  0.00    +0.283 C 
ATOM     19  H   UNL     1      35.139 -21.354 -18.735  0.00  0.00    +0.159 HD
ENDBRANCH   6  15
BRANCH   3  21
ATOM     20  N   UNL     1      32.234 -12.968 -20.041  0.00  0.00    -0.242 NA
ATOM     21  C   UNL     1      32.765 -14.074 -22.552  0.00  0.00    +0.003 C 
ATOM     22  C   UNL     1      32.271 -12.779 -22.451  0.00  0.00    +0.021 C 
ATOM     23  C   UNL     1      32.992 -14.818 -21.400  0.00  0.00    +0.021 C 
ATOM     24  C   UNL     1      32.024 -12.276 -21.184  0.00  0.00    +0.099 C 
ATOM     25  C   UNL     1      32.713 -14.224 -20.179  0.00  0.00    +0.099 C 
ENDBRANCH   3  21
TORSDOF 2
ENDMDL
MODEL 3
REMARK VINA RESULT:      -9.8     13.647     16.186
REMARK  Name = 23582824
REMARK  2 active torsions:
REMARK  status: ('A' for Active; 'I' for Inactive)
REMARK    1  A    between atoms: C_3  and  C_21
REMARK    2  A    between atoms: C_6  and  C_15
REMARK                            x       y       z     vdW  Elec       q    Type
REMARK                         _______ _______ _______ _____ _____    ______ ____
ROOT
ATOM      1  N   UNL     1      36.352 -22.095 -17.643  0.00  0.00    -0.244 NA
ATOM      2  C   UNL     1      35.183 -23.278 -15.901  0.00  0.00    +0.018 C 
ATOM      3  C   UNL     1      36.375 -23.371 -15.171  0.00  0.00    +0.003 C 
ATOM      4  C   UNL     1      35.216 -22.623 -17.149  0.00  0.00    +0.081 C 
ATOM      5  C   UNL     1      33.979 -23.817 -15.415  0.00  0.00    +0.002 C 
ATOM      6  C   UNL     1      32.808 -23.711 -16.161  0.00  0.00    +0.001 C 
ATOM      7  C   UNL     1      34.031 -22.530 -17.874  0.00  0.00    +0.019 C 
ATOM      8  C   UNL     1      32.835 -23.066 -17.391  0.00  0.00    +0.002 C 
ATOM      9  C   UNL     1      37.547 -22.827 -15.678  0.00  0.00    +0.021 C 
ATOM     10  C   UNL     1      37.483 -22.206 -16.908  0.00  0.00    +0.099 C 
ENDROOT
BRANCH   6  15
ATOM     11  S   UNL     1      29.950 -22.329 -16.720  0.00  0.00    -0.025 S 
ATOM     12  O   UNL     1      29.074 -25.411 -14.632  0.00  0.00    -0.269 OA
ATOM     13  O   UNL     1      27.392 -21.694 -16.830  0.00  0.00    -0.262 OA
ATOM     14  N   UNL     1      28.010 -23.618 -15.666  0.00  0.00    -0.243 N 
ATOM     15  C   UNL     1      31.564 -24.269 -15.657  0.00  0.00    +0.011 C 
ATOM     16  C   UNL     1      30.326 -23.761 -15.841  0.00  0.00    +0.087 C 
ATOM     17  C   UNL     1      29.099 -24.385 -15.295  0.00  0.00    +0.258 C 
ATOM     18  C   UNL     1      28.225 -22.486 -16.417  0.00  0.00    +0.283 C 
ATOM     19  H   UNL     1      27.099 -23.875 -15.395  0.00  0.00    +0.159 HD
ENDBRANCH   6  15
BRANCH   3  21
ATOM     20  N   UNL     1      36.600 -25.282 -11.383  0.00  0.00    -0.242 NA
ATOM     21  C   UNL     1      36.452 -24.025 -13.875  0.00  0.00    +0.003 C 
ATOM     22  C   UNL     1      36.088 -23.337 -12.724  0.00  0.00    +0.021 C 
ATOM     23  C   UNL     1      36.890 -25.341 -13.783  0.00  0.00    +0.021 C 
ATOM     24  C   UNL     1      36.178 -24.004 -11.513  0.00  0.00    +0.099 C 
ATOM     25  C   UNL     1      36.945 -25.919 -12.525  0.00  0.00    +0.099 C 
ENDBRANCH   3  21
TORSDOF 2
ENDMDL
MODEL 4
REMARK VINA RESULT:      -9.7     13.635     16.216
REMARK  Name = 23582824
REMARK  2 active torsions:
REMARK  status: ('A' for Active; 'I' for Inactive)
REMARK    1  A    between atoms: C_3  and  C_21
REMARK    2  A    between atoms: C_6  and  C_15
REMARK                            x       y       z     vdW  Elec       q    Type
REMARK                         _______ _______ _______ _____ _____    ______ ____
ROOT
ATOM      1  N   UNL     1      34.641 -22.111 -18.895  0.00  0.00    -0.244 NA
ATOM      2  C   UNL     1      34.681 -22.737 -16.569  0.00  0.00    +0.018 C 
ATOM      3  C   UNL     1      33.307 -23.006 -16.623  0.00  0.00    +0.003 C 
ATOM      4  C   UNL     1      35.317 -22.285 -17.743  0.00  0.00    +0.081 C 
ATOM      5  C   UNL     1      35.417 -22.908 -15.384  0.00  0.00    +0.002 C 
ATOM      6  C   UNL     1      36.782 -22.634 -15.357  0.00  0.00    +0.001 C 
ATOM      7  C   UNL     1      36.682 -22.018 -17.689  0.00  0.00    +0.019 C 
ATOM      8  C   UNL     1      37.414 -22.188 -16.512  0.00  0.00    +0.002 C 
ATOM      9  C   UNL     1      32.607 -22.828 -17.809  0.00  0.00    +0.021 C 
ATOM     10  C   UNL     1      33.315 -22.382 -18.906  0.00  0.00    +0.099 C 
ENDROOT
BRANCH   6  15
ATOM     11  S   UNL     1      35.539 -24.069 -12.753  0.00  0.00    -0.025 S 
ATOM     12  O   UNL     1      39.093 -23.159 -11.676  0.00  0.00    -0.269 OA
ATOM     13  O   UNL     1      35.102 -25.120 -10.373  0.00  0.00    -0.262 OA
ATOM     14  N   UNL     1      37.194 -24.188 -10.809  0.00  0.00    -0.243 N 
ATOM     15  C   UNL     1      37.543 -22.812 -14.131  0.00  0.00    +0.011 C 
ATOM     16  C   UNL     1      37.105 -23.399 -12.997  0.00  0.00    +0.087 C 
ATOM     17  C   UNL     1      37.939 -23.546 -11.781  0.00  0.00    +0.258 C 
ATOM     18  C   UNL     1      35.901 -24.553 -11.102  0.00  0.00    +0.283 C 
ATOM     19  H   UNL     1      37.581 -24.377  -9.923  0.00  0.00    +0.159 HD
ENDBRANCH   6  15
BRANCH   3  21
ATOM     20  N   UNL     1      31.104 -24.378 -13.259  0.00  0.00    -0.242 NA
ATOM     21  C   UNL     1      32.553 -23.476 -15.472  0.00  0.00    +0.003 C 
ATOM     22  C   UNL     1      31.547 -22.686 -14.928  0.00  0.00    +0.021 C 
ATOM     23  C   UNL     1      32.836 -24.716 -14.912  0.00  0.00    +0.021 C 
ATOM     24  C   UNL     1      30.857 -23.178 -13.832  0.00  0.00    +0.099 C 
ATOM     25  C   UNL     1      32.089 -25.118 -13.816  0.00  0.00    +0.099 C 
ENDBRANCH   3  21
TORSDOF 2
ENDMDL
MODEL 5
REMARK VINA RESULT:      -9.4      3.400      6.371
REMARK  Name = 23582824
REMARK  2 active torsions:
REMARK  status: ('A' for Active; 'I' for Inactive)
REMARK    1  A    between atoms: C_3  and  C_21
REMARK    2  A    between atoms: C_6  and  C_15
REMARK                            x       y       z     vdW  Elec       q    Type
REMARK                         _______ _______ _______ _____ _____    ______ ____
ROOT
ATOM      1  N   UNL     1      32.811 -14.628 -20.589  0.00  0.00    -0.244 NA
ATOM      2  C   UNL     1      32.561 -13.014 -22.359  0.00  0.00    +0.018 C 
ATOM      3  C   UNL     1      33.066 -13.947 -23.274  0.00  0.00    +0.003 C 
ATOM      4  C   UNL     1      32.449 -13.401 -21.008  0.00  0.00    +0.081 C 
ATOM      5  C   UNL     1      32.173 -11.725 -22.762  0.00  0.00    +0.002 C 
ATOM      6  C   UNL     1      31.673 -10.816 -21.832  0.00  0.00    +0.001 C 
ATOM      7  C   UNL     1      31.946 -12.474 -20.100  0.00  0.00    +0.019 C 
ATOM      8  C   UNL     1      31.560 -11.192 -20.500  0.00  0.00    +0.002 C 
ATOM      9  C   UNL     1      33.441 -15.213 -22.845  0.00  0.00    +0.021 C 
ATOM     10  C   UNL     1      33.295 -15.500 -21.503  0.00  0.00    +0.099 C 
ENDROOT
BRANCH   6  15
ATOM     11  S   UNL     1      33.702  -8.790 -23.305  0.00  0.00    -0.025 S 
ATOM     12  O   UNL     1      30.439  -6.807 -23.085  0.00  0.00    -0.269 OA
ATOM     13  O   UNL     1      34.850  -6.741 -24.506  0.00  0.00    -0.262 OA
ATOM     14  N   UNL     1      32.612  -6.550 -23.880  0.00  0.00    -0.243 N 
ATOM     15  C   UNL     1      31.271  -9.484 -22.251  0.00  0.00    +0.011 C 
ATOM     16  C   UNL     1      32.050  -8.572 -22.872  0.00  0.00    +0.087 C 
ATOM     17  C   UNL     1      31.572  -7.227 -23.270  0.00  0.00    +0.258 C 
ATOM     18  C   UNL     1      33.827  -7.181 -24.003  0.00  0.00    +0.283 C 
ATOM     19  H   UNL     1      32.485  -5.633 -24.216  0.00  0.00    +0.159 HD
ENDBRANCH   6  15
BRANCH   3  21
ATOM     20  N   UNL     1      33.529 -13.086 -27.409  0.00  0.00    -0.242 NA
ATOM     21  C   UNL     1      33.224 -13.653 -24.689  0.00  0.00    +0.003 C 
ATOM     22  C   UNL     1      33.758 -12.435 -25.092  0.00  0.00    +0.021 C 
ATOM     23  C   UNL     1      32.842 -14.588 -25.643  0.00  0.00    +0.021 C 
ATOM     24  C   UNL     1      33.889 -12.202 -26.451  0.00  0.00    +0.099 C 
ATOM     25  C   UNL     1      33.014 -14.260 -26.978  0.00  0.00    +0.099 C 
ENDBRANCH   3  21
TORSDOF 2
ENDMDL
MODEL 6
REMARK VINA RESULT:      -9.3     13.165     15.625
REMARK  Name = 23582824
REMARK  2 active torsions:
REMARK  status: ('A' for Active; 'I' for Inactive)
REMARK    1  A    between atoms: C_3  and  C_21
REMARK    2  A    between atoms: C_6  and  C_15
REMARK                            x       y       z     vdW  Elec       q    Type
REMARK                         _______ _______ _______ _____ _____    ______ ____
ROOT
ATOM      1  N   UNL     1      31.278 -23.909 -15.495  0.00  0.00    -0.244 NA
ATOM      2  C   UNL     1      33.620 -23.358 -15.618  0.00  0.00    +0.018 C 
ATOM      3  C   UNL     1      33.446 -22.937 -16.943  0.00  0.00    +0.003 C 
ATOM      4  C   UNL     1      32.495 -23.844 -14.921  0.00  0.00    +0.081 C 
ATOM      5  C   UNL     1      34.876 -23.304 -14.988  0.00  0.00    +0.002 C 
ATOM      6  C   UNL     1      35.021 -23.728 -13.670  0.00  0.00    +0.001 C 
ATOM      7  C   UNL     1      32.669 -24.262 -13.605  0.00  0.00    +0.019 C 
ATOM      8  C   UNL     1      33.916 -24.208 -12.978  0.00  0.00    +0.002 C 
ATOM      9  C   UNL     1      32.193 -23.003 -17.537  0.00  0.00    +0.021 C 
ATOM     10  C   UNL     1      31.152 -23.493 -16.776  0.00  0.00    +0.099 C 
ENDROOT
BRANCH   6  15
ATOM     11  S   UNL     1      37.493 -25.580 -14.594  0.00  0.00    -0.025 S 
ATOM     12  O   UNL     1      38.924 -23.536 -11.696  0.00  0.00    -0.269 OA
ATOM     13  O   UNL     1      39.821 -26.789 -14.872  0.00  0.00    -0.262 OA
ATOM     14  N   UNL     1      39.599 -25.178 -13.202  0.00  0.00    -0.243 N 
ATOM     15  C   UNL     1      36.320 -23.671 -13.020  0.00  0.00    +0.011 C 
ATOM     16  C   UNL     1      37.407 -24.405 -13.339  0.00  0.00    +0.087 C 
ATOM     17  C   UNL     1      38.704 -24.293 -12.629  0.00  0.00    +0.258 C 
ATOM     18  C   UNL     1      39.175 -25.959 -14.251  0.00  0.00    +0.283 C 
ATOM     19  H   UNL     1      40.521 -25.248 -12.864  0.00  0.00    +0.159 HD
ENDBRANCH   6  15
BRANCH   3  21
ATOM     20  N   UNL     1      36.637 -21.427 -19.307  0.00  0.00    -0.242 NA
ATOM     21  C   UNL     1      34.538 -22.421 -17.752  0.00  0.00    +0.003 C 
ATOM     22  C   UNL     1      34.341 -22.155 -19.102  0.00  0.00    +0.021 C 
ATOM     23  C   UNL     1      35.782 -22.190 -17.178  0.00  0.00    +0.021 C 
ATOM     24  C   UNL     1      35.412 -21.663 -19.830  0.00  0.00    +0.099 C 
ATOM     25  C   UNL     1      36.790 -21.697 -17.991  0.00  0.00    +0.099 C 
ENDBRANCH   3  21
TORSDOF 2
ENDMDL
MODEL 7
REMARK VINA RESULT:      -9.2     13.145     16.032
REMARK  Name = 23582824
REMARK  2 active torsions:
REMARK  status: ('A' for Active; 'I' for Inactive)
REMARK    1  A    between atoms: C_3  and  C_21
REMARK    2  A    between atoms: C_6  and  C_15
REMARK                            x       y       z     vdW  Elec       q    Type
REMARK                         _______ _______ _______ _____ _____    ______ ____
ROOT
ATOM      1  N   UNL     1      35.018 -21.648 -19.050  0.00  0.00    -0.244 NA
ATOM      2  C   UNL     1      34.613 -22.691 -16.917  0.00  0.00    +0.018 C 
ATOM      3  C   UNL     1      33.248 -22.772 -17.221  0.00  0.00    +0.003 C 
ATOM      4  C   UNL     1      35.475 -22.114 -17.872  0.00  0.00    +0.081 C 
ATOM      5  C   UNL     1      35.124 -23.167 -15.697  0.00  0.00    +0.002 C 
ATOM      6  C   UNL     1      36.486 -23.075 -15.420  0.00  0.00    +0.001 C 
ATOM      7  C   UNL     1      36.831 -22.034 -17.569  0.00  0.00    +0.019 C 
ATOM      8  C   UNL     1      37.340 -22.508 -16.357  0.00  0.00    +0.002 C 
ATOM      9  C   UNL     1      32.774 -22.292 -18.435  0.00  0.00    +0.021 C 
ATOM     10  C   UNL     1      33.693 -21.744 -19.306  0.00  0.00    +0.099 C 
ENDROOT
BRANCH   6  15
ATOM     11  S   UNL     1      38.993 -25.096 -15.274  0.00  0.00    -0.025 S 
ATOM     12  O   UNL     1      38.055 -24.549 -11.607  0.00  0.00    -0.269 OA
ATOM     13  O   UNL     1      40.942 -26.706 -14.520  0.00  0.00    -0.262 OA
ATOM     14  N   UNL     1      39.612 -25.726 -12.875  0.00  0.00    -0.243 N 
ATOM     15  C   UNL     1      37.013 -23.569 -14.158  0.00  0.00    +0.011 C 
ATOM     16  C   UNL     1      38.054 -24.414 -14.002  0.00  0.00    +0.087 C 
ATOM     17  C   UNL     1      38.538 -24.877 -12.680  0.00  0.00    +0.258 C 
ATOM     18  C   UNL     1      40.022 -25.987 -14.161  0.00  0.00    +0.283 C 
ATOM     19  H   UNL     1      40.072 -26.138 -12.108  0.00  0.00    +0.159 HD
ENDBRANCH   6  15
BRANCH   3  21
ATOM     20  N   UNL     1      30.400 -24.451 -14.554  0.00  0.00    -0.242 NA
ATOM     21  C   UNL     1      32.274 -23.347 -16.309  0.00  0.00    +0.003 C 
ATOM     22  C   UNL     1      32.698 -24.082 -15.208  0.00  0.00    +0.021 C 
ATOM     23  C   UNL     1      30.915 -23.163 -16.533  0.00  0.00    +0.021 C 
ATOM     24  C   UNL     1      31.730 -24.608 -14.368  0.00  0.00    +0.099 C 
ATOM     25  C   UNL     1      30.026 -23.730 -15.634  0.00  0.00    +0.099 C 
ENDBRANCH   3  21
TORSDOF 2
ENDMDL
MODEL 8
REMARK VINA RESULT:      -8.8     10.939     15.081
REMARK  Name = 23582824
REMARK  2 active torsions:
REMARK  status: ('A' for Active; 'I' for Inactive)
REMARK    1  A    between atoms: C_3  and  C_21
REMARK    2  A    between atoms: C_6  and  C_15
REMARK                            x       y       z     vdW  Elec       q    Type
REMARK                         _______ _______ _______ _____ _____    ______ ____
ROOT
ATOM      1  N   UNL     1      31.197 -24.130 -14.885  0.00  0.00    -0.244 NA
ATOM      2  C   UNL     1      33.528 -23.724 -15.336  0.00  0.00    +0.018 C 
ATOM      3  C   UNL     1      33.857 -24.254 -14.081  0.00  0.00    +0.003 C 
ATOM      4  C   UNL     1      32.168 -23.680 -15.703  0.00  0.00    +0.081 C 
ATOM      5  C   UNL     1      34.516 -23.247 -16.214  0.00  0.00    +0.002 C 
ATOM      6  C   UNL     1      34.161 -22.725 -17.456  0.00  0.00    +0.001 C 
ATOM      7  C   UNL     1      31.841 -23.154 -16.950  0.00  0.00    +0.019 C 
ATOM      8  C   UNL     1      32.822 -22.680 -17.823  0.00  0.00    +0.002 C 
ATOM      9  C   UNL     1      32.859 -24.718 -13.236  0.00  0.00    +0.021 C 
ATOM     10  C   UNL     1      31.556 -24.634 -13.682  0.00  0.00    +0.099 C 
ENDROOT
BRANCH   6  15
ATOM     11  S   UNL     1      33.484 -20.719 -19.887  0.00  0.00    -0.025 S 
ATOM     12  O   UNL     1      37.260 -21.254 -20.177  0.00  0.00    -0.269 OA
ATOM     13  O   UNL     1      33.563 -19.123 -21.985  0.00  0.00    -0.262 OA
ATOM     14  N   UNL     1      35.554 -20.086 -21.247  0.00  0.00    -0.243 N 
ATOM     15  C   UNL     1      35.184 -22.232 -18.364  0.00  0.00    +0.011 C 
ATOM     16  C   UNL     1      34.993 -21.393 -19.404  0.00  0.00    +0.087 C 
ATOM     17  C   UNL     1      36.087 -20.931 -20.291  0.00  0.00    +0.258 C 
ATOM     18  C   UNL     1      34.202 -19.834 -21.225  0.00  0.00    +0.283 C 
ATOM     19  H   UNL     1      36.131 -19.675 -21.931  0.00  0.00    +0.159 HD
ENDBRANCH   6  15
BRANCH   3  21
ATOM     20  N   UNL     1      37.861 -24.524 -12.684  0.00  0.00    -0.242 NA
ATOM     21  C   UNL     1      35.227 -24.346 -13.603  0.00  0.00    +0.003 C 
ATOM     22  C   UNL     1      35.646 -23.564 -12.533  0.00  0.00    +0.021 C 
ATOM     23  C   UNL     1      36.122 -25.217 -14.214  0.00  0.00    +0.021 C 
ATOM     24  C   UNL     1      36.961 -23.689 -12.114  0.00  0.00    +0.099 C 
ATOM     25  C   UNL     1      37.416 -25.268 -13.721  0.00  0.00    +0.099 C 
ENDBRANCH   3  21
TORSDOF 2
ENDMDL
MODEL 9
REMARK VINA RESULT:      -8.8     13.196     15.969
REMARK  Name = 23582824
REMARK  2 active torsions:
REMARK  status: ('A' for Active; 'I' for Inactive)
REMARK    1  A    between atoms: C_3  and  C_21
REMARK    2  A    between atoms: C_6  and  C_15
REMARK                            x       y       z     vdW  Elec       q    Type
REMARK                         _______ _______ _______ _____ _____    ______ ____
ROOT
ATOM      1  N   UNL     1      36.716 -21.585 -18.110  0.00  0.00    -0.244 NA
ATOM      2  C   UNL     1      35.298 -22.874 -16.650  0.00  0.00    +0.018 C 
ATOM      3  C   UNL     1      36.379 -23.066 -15.779  0.00  0.00    +0.003 C 
ATOM      4  C   UNL     1      35.513 -22.116 -17.819  0.00  0.00    +0.081 C 
ATOM      5  C   UNL     1      34.030 -23.414 -16.378  0.00  0.00    +0.002 C 
ATOM      6  C   UNL     1      32.972 -23.207 -17.260  0.00  0.00    +0.001 C 
ATOM      7  C   UNL     1      34.439 -21.925 -18.684  0.00  0.00    +0.019 C 
ATOM      8  C   UNL     1      33.178 -22.461 -18.414  0.00  0.00    +0.002 C 
ATOM      9  C   UNL     1      37.620 -22.520 -16.076  0.00  0.00    +0.021 C 
ATOM     10  C   UNL     1      37.734 -21.794 -17.244  0.00  0.00    +0.099 C 
ENDROOT
BRANCH   6  15
ATOM     11  S   UNL     1      31.844 -23.515 -14.256  0.00  0.00    -0.025 S 
ATOM     12  O   UNL     1      29.017 -24.893 -16.432  0.00  0.00    -0.269 OA
ATOM     13  O   UNL     1      30.408 -24.014 -12.100  0.00  0.00    -0.262 OA
ATOM     14  N   UNL     1      29.502 -24.538 -14.183  0.00  0.00    -0.243 N 
ATOM     15  C   UNL     1      31.660 -23.766 -16.976  0.00  0.00    +0.011 C 
ATOM     16  C   UNL     1      31.108 -23.932 -15.755  0.00  0.00    +0.087 C 
ATOM     17  C   UNL     1      29.761 -24.511 -15.541  0.00  0.00    +0.258 C 
ATOM     18  C   UNL     1      30.462 -24.065 -13.319  0.00  0.00    +0.283 C 
ATOM     19  H   UNL     1      28.649 -24.891 -13.842  0.00  0.00    +0.159 HD
ENDBRANCH   6  15
BRANCH   3  21
ATOM     20  N   UNL     1      36.055 -25.298 -12.179  0.00  0.00    -0.242 NA
ATOM     21  C   UNL     1      36.268 -23.830 -14.548  0.00  0.00    +0.003 C 
ATOM     22  C   UNL     1      36.818 -25.104 -14.465  0.00  0.00    +0.021 C 
ATOM     23  C   UNL     1      35.612 -23.289 -13.448  0.00  0.00    +0.021 C 
ATOM     24  C   UNL     1      36.686 -25.791 -13.269  0.00  0.00    +0.099 C 
ATOM     25  C   UNL     1      35.534 -24.056 -12.297  0.00  0.00    +0.099 C 
ENDBRANCH   3  21
TORSDOF 2
ENDMDL
