MODEL 1
REMARK VINA RESULT:     -11.7      0.000      0.000
REMARK  Name = 44814409
REMARK  5 active torsions:
REMARK  status: ('A' for Active; 'I' for Inactive)
REMARK    1  A    between atoms: N_2  and  C_22
REMARK    2  A    between atoms: C_3  and  C_7
REMARK    3  A    between atoms: C_9  and  C_14
REMARK    4  A    between atoms: C_21  and  C_26
REMARK    5  A    between atoms: C_29  and  N_33
REMARK                            x       y       z     vdW  Elec       q    Type
REMARK                         _______ _______ _______ _____ _____    ______ ____
ROOT
ATOM      1  O   UNL     1      34.818 -14.833 -20.660  0.00  0.00    -0.267 OA
ATOM      2  N   UNL     1      33.090 -14.524 -22.224  0.00  0.00    -0.278 N 
ATOM      3  C   UNL     1      34.144 -15.214 -21.611  0.00  0.00    +0.275 C 
ATOM      4  H   UNL     1      32.656 -14.983 -22.980  0.00  0.00    +0.155 HD
ENDROOT
BRANCH   3   7
ATOM      5  F   UNL     1      35.228 -20.297 -23.567  0.00  0.00    -0.202 F 
ATOM      6  N   UNL     1      34.436 -17.579 -21.289  0.00  0.00    -0.399 NA
ATOM      7  C   UNL     1      34.440 -16.558 -22.174  0.00  0.00    +0.167 C 
ATOM      8  C   UNL     1      34.697 -16.706 -23.528  0.00  0.00    +0.092 C 
ATOM      9  C   UNL     1      34.701 -18.807 -21.788  0.00  0.00    +0.162 C 
ATOM     10  C   UNL     1      34.966 -17.985 -24.003  0.00  0.00    +0.014 C 
ATOM     11  C   UNL     1      34.970 -19.061 -23.123  0.00  0.00    +0.166 C 
BRANCH   9  14
ATOM     12  F   UNL     1      37.056 -19.779 -20.615  0.00  0.00    -0.204 F 
ATOM     13  F   UNL     1      32.318 -20.029 -20.956  0.00  0.00    -0.204 F 
ATOM     14  C   UNL     1      34.687 -19.873 -20.813  0.00  0.00    +0.087 C 
ATOM     15  C   UNL     1      35.884 -20.325 -20.257  0.00  0.00    +0.145 C 
ATOM     16  C   UNL     1      33.477 -20.451 -20.429  0.00  0.00    +0.145 C 
ATOM     17  C   UNL     1      35.870 -21.354 -19.315  0.00  0.00    +0.030 C 
ATOM     18  C   UNL     1      33.463 -21.481 -19.488  0.00  0.00    +0.030 C 
ATOM     19  C   UNL     1      34.660 -21.933 -18.932  0.00  0.00    +0.005 C 
ENDBRANCH   9  14
ENDBRANCH   3   7
BRANCH   2  22
ATOM     20  N   UNL     1      31.245 -11.934 -20.384  0.00  0.00    -0.241 NA
ATOM     21  C   UNL     1      32.848 -12.143 -22.665  0.00  0.00    -0.006 C 
ATOM     22  C   UNL     1      32.578 -13.269 -21.896  0.00  0.00    +0.066 C 
ATOM     23  C   UNL     1      32.317 -10.912 -22.296  0.00  0.00    +0.018 C 
ATOM     24  C   UNL     1      31.780 -13.113 -20.775  0.00  0.00    +0.113 C 
ATOM     25  C   UNL     1      31.530 -10.861 -21.157  0.00  0.00    +0.099 C 
BRANCH  21  26
ATOM     26  C   UNL     1      33.702 -12.226 -23.889  0.00  0.00    +0.022 C 
ATOM     27  C   UNL     1      35.059 -10.868 -25.555  0.00  0.00    -0.002 C 
ATOM     28  C   UNL     1      34.226 -10.828 -24.265  0.00  0.00    +0.004 C 
ATOM     29  C   UNL     1      33.739 -12.888 -26.336  0.00  0.00    -0.065 C 
ATOM     30  C   UNL     1      32.904 -12.846 -25.050  0.00  0.00    -0.017 C 
ATOM     31  C   UNL     1      34.256 -11.493 -26.706  0.00  0.00    -0.022 C 
ATOM     32  C   UNL     1      35.535  -9.464 -25.930  0.00  0.00    -0.000 C 
BRANCH  29  33
ATOM     33  N   UNL     1      32.935 -13.425 -27.432  0.00  0.00    +0.382 N 
ATOM     34  H   UNL     1      32.856 -12.727 -28.171  0.00  0.00    -0.089 HD
ATOM     35  H   UNL     1      32.004 -13.661 -27.086  0.00  0.00    -0.089 HD
ATOM     36  H   UNL     1      33.382 -14.263 -27.803  0.00  0.00    -0.089 HD
ENDBRANCH  29  33
ENDBRANCH  21  26
ENDBRANCH   2  22
TORSDOF 5
ENDMDL
MODEL 2
REMARK VINA RESULT:     -11.6      4.540     11.202
REMARK  Name = 44814409
REMARK  5 active torsions:
REMARK  status: ('A' for Active; 'I' for Inactive)
REMARK    1  A    between atoms: N_2  and  C_22
REMARK    2  A    between atoms: C_3  and  C_7
REMARK    3  A    between atoms: C_9  and  C_14
REMARK    4  A    between atoms: C_21  and  C_26
REMARK    5  A    between atoms: C_29  and  N_33
REMARK                            x       y       z     vdW  Elec       q    Type
REMARK                         _______ _______ _______ _____ _____    ______ ____
ROOT
ATOM      1  O   UNL     1      32.737 -22.037 -19.516  0.00  0.00    -0.267 OA
ATOM      2  N   UNL     1      33.998 -22.347 -17.555  0.00  0.00    -0.278 N 
ATOM      3  C   UNL     1      33.770 -21.908 -18.866  0.00  0.00    +0.275 C 
ATOM      4  H   UNL     1      34.891 -22.157 -17.186  0.00  0.00    +0.155 HD
ENDROOT
BRANCH   3   7
ATOM      5  F   UNL     1      37.902 -19.138 -21.334  0.00  0.00    -0.202 F 
ATOM      6  N   UNL     1      34.566 -20.241 -20.406  0.00  0.00    -0.399 NA
ATOM      7  C   UNL     1      34.904 -21.190 -19.504  0.00  0.00    +0.167 C 
ATOM      8  C   UNL     1      36.210 -21.509 -19.166  0.00  0.00    +0.092 C 
ATOM      9  C   UNL     1      35.589 -19.580 -20.993  0.00  0.00    +0.162 C 
ATOM     10  C   UNL     1      37.234 -20.807 -19.792  0.00  0.00    +0.014 C 
ATOM     11  C   UNL     1      36.926 -19.822 -20.724  0.00  0.00    +0.166 C 
BRANCH   9  14
ATOM     12  F   UNL     1      35.243 -16.894 -20.264  0.00  0.00    -0.204 F 
ATOM     13  F   UNL     1      35.113 -20.194 -23.687  0.00  0.00    -0.204 F 
ATOM     14  C   UNL     1      35.189 -18.573 -21.948  0.00  0.00    +0.087 C 
ATOM     15  C   UNL     1      35.029 -17.249 -21.540  0.00  0.00    +0.145 C 
ATOM     16  C   UNL     1      34.964 -18.925 -23.279  0.00  0.00    +0.145 C 
ATOM     17  C   UNL     1      34.645 -16.276 -22.464  0.00  0.00    +0.030 C 
ATOM     18  C   UNL     1      34.579 -17.953 -24.203  0.00  0.00    +0.030 C 
ATOM     19  C   UNL     1      34.418 -16.629 -23.794  0.00  0.00    +0.005 C 
ENDBRANCH   9  14
ENDBRANCH   3   7
BRANCH   2  22
ATOM     20  N   UNL     1      30.831 -23.609 -16.185  0.00  0.00    -0.241 NA
ATOM     21  C   UNL     1      33.563 -23.738 -15.605  0.00  0.00    -0.006 C 
ATOM     22  C   UNL     1      33.116 -23.018 -16.708  0.00  0.00    +0.066 C 
ATOM     23  C   UNL     1      32.645 -24.393 -14.792  0.00  0.00    +0.018 C 
ATOM     24  C   UNL     1      31.753 -22.986 -16.953  0.00  0.00    +0.113 C 
ATOM     25  C   UNL     1      31.303 -24.298 -15.122  0.00  0.00    +0.099 C 
BRANCH  21  26
ATOM     26  C   UNL     1      35.018 -23.824 -15.273  0.00  0.00    +0.022 C 
ATOM     27  C   UNL     1      36.972 -25.419 -14.961  0.00  0.00    -0.002 C 
ATOM     28  C   UNL     1      35.494 -25.286 -15.357  0.00  0.00    +0.004 C 
ATOM     29  C   UNL     1      36.754 -23.371 -13.482  0.00  0.00    -0.065 C 
ATOM     30  C   UNL     1      35.276 -23.239 -13.873  0.00  0.00    -0.017 C 
ATOM     31  C   UNL     1      37.221 -24.828 -13.566  0.00  0.00    -0.022 C 
ATOM     32  C   UNL     1      37.412 -26.882 -15.014  0.00  0.00    -0.000 C 
BRANCH  29  33
ATOM     33  N   UNL     1      36.955 -22.863 -12.126  0.00  0.00    +0.382 N 
ATOM     34  H   UNL     1      37.888 -22.460 -12.048  0.00  0.00    -0.089 HD
ATOM     35  H   UNL     1      36.858 -23.629 -11.459  0.00  0.00    -0.089 HD
ATOM     36  H   UNL     1      36.257 -22.147 -11.925  0.00  0.00    -0.089 HD
ENDBRANCH  29  33
ENDBRANCH  21  26
ENDBRANCH   2  22
TORSDOF 5
ENDMDL
MODEL 3
REMARK VINA RESULT:     -11.5      1.031      1.734
REMARK  Name = 44814409
REMARK  5 active torsions:
REMARK  status: ('A' for Active; 'I' for Inactive)
REMARK    1  A    between atoms: N_2  and  C_22
REMARK    2  A    between atoms: C_3  and  C_7
REMARK    3  A    between atoms: C_9  and  C_14
REMARK    4  A    between atoms: C_21  and  C_26
REMARK    5  A    between atoms: C_29  and  N_33
REMARK                            x       y       z     vdW  Elec       q    Type
REMARK                         _______ _______ _______ _____ _____    ______ ____
ROOT
ATOM      1  O   UNL     1      34.846 -14.529 -20.456  0.00  0.00    -0.267 OA
ATOM      2  N   UNL     1      32.955 -14.249 -21.827  0.00  0.00    -0.278 N 
ATOM      3  C   UNL     1      34.106 -14.900 -21.362  0.00  0.00    +0.275 C 
ATOM      4  H   UNL     1      32.478 -14.691 -22.566  0.00  0.00    +0.155 HD
ENDROOT
BRANCH   3   7
ATOM      5  F   UNL     1      35.286 -19.779 -23.737  0.00  0.00    -0.202 F 
ATOM      6  N   UNL     1      34.445 -17.277 -21.239  0.00  0.00    -0.399 NA
ATOM      7  C   UNL     1      34.427 -16.185 -22.036  0.00  0.00    +0.167 C 
ATOM      8  C   UNL     1      34.685 -16.214 -23.397  0.00  0.00    +0.092 C 
ATOM      9  C   UNL     1      34.733 -18.453 -21.839  0.00  0.00    +0.162 C 
ATOM     10  C   UNL     1      34.978 -17.443 -23.977  0.00  0.00    +0.014 C 
ATOM     11  C   UNL     1      35.005 -18.589 -23.191  0.00  0.00    +0.166 C 
BRANCH   9  14
ATOM     12  F   UNL     1      37.113 -19.501 -20.788  0.00  0.00    -0.204 F 
ATOM     13  F   UNL     1      32.372 -19.760 -21.076  0.00  0.00    -0.204 F 
ATOM     14  C   UNL     1      34.742 -19.598 -20.957  0.00  0.00    +0.087 C 
ATOM     15  C   UNL     1      35.950 -20.084 -20.459  0.00  0.00    +0.145 C 
ATOM     16  C   UNL     1      33.542 -20.215 -20.604  0.00  0.00    +0.145 C 
ATOM     17  C   UNL     1      35.959 -21.189 -19.607  0.00  0.00    +0.030 C 
ATOM     18  C   UNL     1      33.550 -21.321 -19.753  0.00  0.00    +0.030 C 
ATOM     19  C   UNL     1      34.759 -21.807 -19.255  0.00  0.00    +0.005 C 
ENDBRANCH   9  14
ENDBRANCH   3   7
BRANCH   2  22
ATOM     20  N   UNL     1      31.577 -11.759 -19.502  0.00  0.00    -0.241 NA
ATOM     21  C   UNL     1      32.128 -11.996 -22.232  0.00  0.00    -0.006 C 
ATOM     22  C   UNL     1      32.402 -13.052 -21.371  0.00  0.00    +0.066 C 
ATOM     23  C   UNL     1      31.578 -10.821 -21.730  0.00  0.00    +0.018 C 
ATOM     24  C   UNL     1      32.112 -12.885 -20.027  0.00  0.00    +0.113 C 
ATOM     25  C   UNL     1      31.324 -10.754 -20.370  0.00  0.00    +0.099 C 
BRANCH  21  26
ATOM     26  C   UNL     1      32.414 -12.095 -23.697  0.00  0.00    +0.022 C 
ATOM     27  C   UNL     1      32.863 -13.712 -25.606  0.00  0.00    -0.002 C 
ATOM     28  C   UNL     1      32.509 -13.573 -24.118  0.00  0.00    +0.004 C 
ATOM     29  C   UNL     1      34.061 -11.478 -25.522  0.00  0.00    -0.065 C 
ATOM     30  C   UNL     1      33.713 -11.341 -24.034  0.00  0.00    -0.017 C 
ATOM     31  C   UNL     1      34.156 -12.952 -25.934  0.00  0.00    -0.022 C 
ATOM     32  C   UNL     1      32.990 -15.186 -25.992  0.00  0.00    -0.000 C 
BRANCH  29  33
ATOM     33  N   UNL     1      35.328 -10.804 -25.798  0.00  0.00    +0.382 N 
ATOM     34  H   UNL     1      35.387  -9.949 -25.244  0.00  0.00    -0.089 HD
ATOM     35  H   UNL     1      35.380 -10.570 -26.790  0.00  0.00    -0.089 HD
ATOM     36  H   UNL     1      36.103 -11.421 -25.553  0.00  0.00    -0.089 HD
ENDBRANCH  29  33
ENDBRANCH  21  26
ENDBRANCH   2  22
TORSDOF 5
ENDMDL
MODEL 4
REMARK VINA RESULT:     -11.2      4.388     10.651
REMARK  Name = 44814409
REMARK  5 active torsions:
REMARK  status: ('A' for Active; 'I' for Inactive)
REMARK    1  A    between atoms: N_2  and  C_22
REMARK    2  A    between atoms: C_3  and  C_7
REMARK    3  A    between atoms: C_9  and  C_14
REMARK    4  A    between atoms: C_21  and  C_26
REMARK    5  A    between atoms: C_29  and  N_33
REMARK                            x       y       z     vdW  Elec       q    Type
REMARK                         _______ _______ _______ _____ _____    ______ ____
ROOT
ATOM      1  O   UNL     1      32.602 -22.015 -20.010  0.00  0.00    -0.267 OA
ATOM      2  N   UNL     1      33.602 -22.088 -17.883  0.00  0.00    -0.278 N 
ATOM      3  C   UNL     1      33.530 -21.772 -19.246  0.00  0.00    +0.275 C 
ATOM      4  H   UNL     1      34.428 -21.815 -17.420  0.00  0.00    +0.155 HD
ENDROOT
BRANCH   3   7
ATOM      5  F   UNL     1      37.814 -18.952 -21.378  0.00  0.00    -0.202 F 
ATOM      6  N   UNL     1      34.424 -20.067 -20.688  0.00  0.00    -0.399 NA
ATOM      7  C   UNL     1      34.704 -21.042 -19.794  0.00  0.00    +0.167 C 
ATOM      8  C   UNL     1      35.986 -21.374 -19.383  0.00  0.00    +0.092 C 
ATOM      9  C   UNL     1      35.482 -19.394 -21.192  0.00  0.00    +0.162 C 
ATOM     10  C   UNL     1      37.047 -20.659 -19.926  0.00  0.00    +0.014 C 
ATOM     11  C   UNL     1      36.800 -19.648 -20.848  0.00  0.00    +0.166 C 
BRANCH   9  14
ATOM     12  F   UNL     1      35.114 -19.945 -23.917  0.00  0.00    -0.204 F 
ATOM     13  F   UNL     1      35.158 -16.716 -20.425  0.00  0.00    -0.204 F 
ATOM     14  C   UNL     1      35.145 -18.360 -22.144  0.00  0.00    +0.087 C 
ATOM     15  C   UNL     1      34.972 -18.681 -23.490  0.00  0.00    +0.145 C 
ATOM     16  C   UNL     1      34.993 -17.042 -21.715  0.00  0.00    +0.145 C 
ATOM     17  C   UNL     1      34.645 -17.683 -24.408  0.00  0.00    +0.030 C 
ATOM     18  C   UNL     1      34.668 -16.043 -22.633  0.00  0.00    +0.030 C 
ATOM     19  C   UNL     1      34.495 -16.364 -23.980  0.00  0.00    +0.005 C 
ENDBRANCH   9  14
ENDBRANCH   3   7
BRANCH   2  22
ATOM     20  N   UNL     1      30.311 -23.120 -16.617  0.00  0.00    -0.241 NA
ATOM     21  C   UNL     1      33.010 -23.617 -16.084  0.00  0.00    -0.006 C 
ATOM     22  C   UNL     1      32.649 -22.741 -17.101  0.00  0.00    +0.066 C 
ATOM     23  C   UNL     1      32.022 -24.246 -15.333  0.00  0.00    +0.018 C 
ATOM     24  C   UNL     1      31.299 -22.528 -17.326  0.00  0.00    +0.113 C 
ATOM     25  C   UNL     1      30.700 -23.966 -15.637  0.00  0.00    +0.099 C 
BRANCH  21  26
ATOM     26  C   UNL     1      34.445 -23.902 -15.779  0.00  0.00    +0.022 C 
ATOM     27  C   UNL     1      36.070 -24.577 -13.944  0.00  0.00    -0.002 C 
ATOM     28  C   UNL     1      34.598 -24.335 -14.309  0.00  0.00    +0.004 C 
ATOM     29  C   UNL     1      36.776 -22.907 -15.717  0.00  0.00    -0.065 C 
ATOM     30  C   UNL     1      35.306 -22.661 -16.079  0.00  0.00    -0.017 C 
ATOM     31  C   UNL     1      36.921 -23.337 -14.252  0.00  0.00    -0.022 C 
ATOM     32  C   UNL     1      36.200 -24.967 -12.472  0.00  0.00    -0.000 C 
BRANCH  29  33
ATOM     33  N   UNL     1      37.554 -21.693 -15.957  0.00  0.00    +0.382 N 
ATOM     34  H   UNL     1      38.462 -21.942 -16.348  0.00  0.00    -0.089 HD
ATOM     35  H   UNL     1      37.689 -21.196 -15.075  0.00  0.00    -0.089 HD
ATOM     36  H   UNL     1      37.055 -21.092 -16.612  0.00  0.00    -0.089 HD
ENDBRANCH  29  33
ENDBRANCH  21  26
ENDBRANCH   2  22
TORSDOF 5
ENDMDL
MODEL 5
REMARK VINA RESULT:     -10.0      5.027      9.582
REMARK  Name = 44814409
REMARK  5 active torsions:
REMARK  status: ('A' for Active; 'I' for Inactive)
REMARK    1  A    between atoms: N_2  and  C_22
REMARK    2  A    between atoms: C_3  and  C_7
REMARK    3  A    between atoms: C_9  and  C_14
REMARK    4  A    between atoms: C_21  and  C_26
REMARK    5  A    between atoms: C_29  and  N_33
REMARK                            x       y       z     vdW  Elec       q    Type
REMARK                         _______ _______ _______ _____ _____    ______ ____
ROOT
ATOM      1  O   UNL     1      30.361 -11.479 -21.181  0.00  0.00    -0.267 OA
ATOM      2  N   UNL     1      32.674 -11.901 -21.238  0.00  0.00    -0.278 N 
ATOM      3  C   UNL     1      31.527 -11.099 -21.158  0.00  0.00    +0.275 C 
ATOM      4  H   UNL     1      33.536 -11.426 -21.204  0.00  0.00    +0.155 HD
ENDROOT
BRANCH   3   7
ATOM      5  F   UNL     1      32.496  -5.647 -20.739  0.00  0.00    -0.202 F 
ATOM      6  N   UNL     1      32.138  -8.986 -22.129  0.00  0.00    -0.399 NA
ATOM      7  C   UNL     1      31.778  -9.642 -21.004  0.00  0.00    +0.167 C 
ATOM      8  C   UNL     1      31.640  -9.038 -19.764  0.00  0.00    +0.092 C 
ATOM      9  C   UNL     1      32.368  -7.660 -22.003  0.00  0.00    +0.162 C 
ATOM     10  C   UNL     1      31.886  -7.673 -19.675  0.00  0.00    +0.014 C 
ATOM     11  C   UNL     1      32.257  -6.963 -20.811  0.00  0.00    +0.166 C 
BRANCH   9  14
ATOM     12  F   UNL     1      30.569  -6.064 -23.447  0.00  0.00    -0.204 F 
ATOM     13  F   UNL     1      34.949  -7.881 -23.075  0.00  0.00    -0.204 F 
ATOM     14  C   UNL     1      32.749  -6.992 -23.226  0.00  0.00    +0.087 C 
ATOM     15  C   UNL     1      31.820  -6.208 -23.911  0.00  0.00    +0.145 C 
ATOM     16  C   UNL     1      34.045  -7.130 -23.721  0.00  0.00    +0.145 C 
ATOM     17  C   UNL     1      32.189  -5.562 -25.091  0.00  0.00    +0.030 C 
ATOM     18  C   UNL     1      34.414  -6.486 -24.902  0.00  0.00    +0.030 C 
ATOM     19  C   UNL     1      33.485  -5.702 -25.587  0.00  0.00    +0.005 C 
ENDBRANCH   9  14
ENDBRANCH   3   7
BRANCH   2  22
ATOM     20  N   UNL     1      32.787 -15.440 -20.257  0.00  0.00    -0.241 NA
ATOM     21  C   UNL     1      32.834 -13.913 -22.598  0.00  0.00    -0.006 C 
ATOM     22  C   UNL     1      32.745 -13.289 -21.360  0.00  0.00    +0.066 C 
ATOM     23  C   UNL     1      32.900 -15.300 -22.668  0.00  0.00    +0.018 C 
ATOM     24  C   UNL     1      32.725 -14.090 -20.229  0.00  0.00    +0.113 C 
ATOM     25  C   UNL     1      32.873 -16.011 -21.479  0.00  0.00    +0.099 C 
BRANCH  21  26
ATOM     26  C   UNL     1      32.859 -13.121 -23.866  0.00  0.00    +0.022 C 
ATOM     27  C   UNL     1      33.083 -13.277 -26.393  0.00  0.00    -0.002 C 
ATOM     28  C   UNL     1      32.992 -14.063 -25.077  0.00  0.00    +0.004 C 
ATOM     29  C   UNL     1      34.101 -11.318 -25.145  0.00  0.00    -0.065 C 
ATOM     30  C   UNL     1      34.015 -12.104 -23.830  0.00  0.00    -0.017 C 
ATOM     31  C   UNL     1      34.234 -12.262 -26.346  0.00  0.00    -0.022 C 
ATOM     32  C   UNL     1      33.253 -14.231 -27.576  0.00  0.00    -0.000 C 
BRANCH  29  33
ATOM     33  N   UNL     1      35.242 -10.406 -25.103  0.00  0.00    +0.382 N 
ATOM     34  H   UNL     1      36.105 -10.933 -25.235  0.00  0.00    -0.089 HD
ATOM     35  H   UNL     1      35.268  -9.935 -24.198  0.00  0.00    -0.089 HD
ATOM     36  H   UNL     1      35.151  -9.712 -25.845  0.00  0.00    -0.089 HD
ENDBRANCH  29  33
ENDBRANCH  21  26
ENDBRANCH   2  22
TORSDOF 5
ENDMDL
MODEL 6
REMARK VINA RESULT:     -10.0      5.032      9.487
REMARK  Name = 44814409
REMARK  5 active torsions:
REMARK  status: ('A' for Active; 'I' for Inactive)
REMARK    1  A    between atoms: N_2  and  C_22
REMARK    2  A    between atoms: C_3  and  C_7
REMARK    3  A    between atoms: C_9  and  C_14
REMARK    4  A    between atoms: C_21  and  C_26
REMARK    5  A    between atoms: C_29  and  N_33
REMARK                            x       y       z     vdW  Elec       q    Type
REMARK                         _______ _______ _______ _____ _____    ______ ____
ROOT
ATOM      1  O   UNL     1      30.360 -11.493 -21.247  0.00  0.00    -0.267 OA
ATOM      2  N   UNL     1      32.674 -11.914 -21.217  0.00  0.00    -0.278 N 
ATOM      3  C   UNL     1      31.524 -11.113 -21.179  0.00  0.00    +0.275 C 
ATOM      4  H   UNL     1      33.534 -11.438 -21.148  0.00  0.00    +0.155 HD
ENDROOT
BRANCH   3   7
ATOM      5  F   UNL     1      32.467  -5.660 -20.712  0.00  0.00    -0.202 F 
ATOM      6  N   UNL     1      32.123  -8.987 -22.132  0.00  0.00    -0.399 NA
ATOM      7  C   UNL     1      31.768  -9.656 -21.012  0.00  0.00    +0.167 C 
ATOM      8  C   UNL     1      31.629  -9.064 -19.766  0.00  0.00    +0.092 C 
ATOM      9  C   UNL     1      32.346  -7.661 -21.994  0.00  0.00    +0.162 C 
ATOM     10  C   UNL     1      31.868  -7.698 -19.666  0.00  0.00    +0.014 C 
ATOM     11  C   UNL     1      32.234  -6.976 -20.796  0.00  0.00    +0.166 C 
BRANCH   9  14
ATOM     12  F   UNL     1      34.923  -7.874 -23.081  0.00  0.00    -0.204 F 
ATOM     13  F   UNL     1      30.543  -6.047 -23.412  0.00  0.00    -0.204 F 
ATOM     14  C   UNL     1      32.722  -6.980 -23.212  0.00  0.00    +0.087 C 
ATOM     15  C   UNL     1      34.016  -7.115 -23.715  0.00  0.00    +0.145 C 
ATOM     16  C   UNL     1      31.791  -6.188 -23.883  0.00  0.00    +0.145 C 
ATOM     17  C   UNL     1      34.378  -6.458 -24.891  0.00  0.00    +0.030 C 
ATOM     18  C   UNL     1      32.153  -5.530 -25.059  0.00  0.00    +0.030 C 
ATOM     19  C   UNL     1      33.447  -5.665 -25.562  0.00  0.00    +0.005 C 
ENDBRANCH   9  14
ENDBRANCH   3   7
BRANCH   2  22
ATOM     20  N   UNL     1      32.802 -15.452 -20.237  0.00  0.00    -0.241 NA
ATOM     21  C   UNL     1      32.841 -13.925 -22.578  0.00  0.00    -0.006 C 
ATOM     22  C   UNL     1      32.750 -13.301 -21.339  0.00  0.00    +0.066 C 
ATOM     23  C   UNL     1      32.913 -15.312 -22.648  0.00  0.00    +0.018 C 
ATOM     24  C   UNL     1      32.734 -14.102 -20.209  0.00  0.00    +0.113 C 
ATOM     25  C   UNL     1      32.890 -16.023 -21.459  0.00  0.00    +0.099 C 
BRANCH  21  26
ATOM     26  C   UNL     1      32.863 -13.132 -23.845  0.00  0.00    +0.022 C 
ATOM     27  C   UNL     1      33.096 -13.286 -26.372  0.00  0.00    -0.002 C 
ATOM     28  C   UNL     1      33.008 -14.073 -25.055  0.00  0.00    +0.004 C 
ATOM     29  C   UNL     1      34.091 -11.317 -25.120  0.00  0.00    -0.065 C 
ATOM     30  C   UNL     1      34.008 -12.104 -23.806  0.00  0.00    -0.017 C 
ATOM     31  C   UNL     1      34.237 -12.260 -26.321  0.00  0.00    -0.022 C 
ATOM     32  C   UNL     1      33.279 -14.238 -27.554  0.00  0.00    -0.000 C 
BRANCH  29  33
ATOM     33  N   UNL     1      35.223 -10.394 -25.074  0.00  0.00    +0.382 N 
ATOM     34  H   UNL     1      36.095 -10.924 -25.057  0.00  0.00    -0.089 HD
ATOM     35  H   UNL     1      35.159  -9.819 -24.234  0.00  0.00    -0.089 HD
ATOM     36  H   UNL     1      35.207  -9.794 -25.899  0.00  0.00    -0.089 HD
ENDBRANCH  29  33
ENDBRANCH  21  26
ENDBRANCH   2  22
TORSDOF 5
ENDMDL
