MODEL 1
REMARK VINA RESULT:     -11.1      0.000      0.000
REMARK  Name = 5327110
REMARK  7 active torsions:
REMARK  status: ('A' for Active; 'I' for Inactive)
REMARK    1  A    between atoms: C_2  and  C_17
REMARK    2  A    between atoms: C_4  and  O_8
REMARK    3  A    between atoms: O_8  and  C_9
REMARK    4  A    between atoms: C_9  and  C_11
REMARK    5  A    between atoms: C_17  and  N_18
REMARK    6  A    between atoms: N_18  and  S_20
REMARK    7  A    between atoms: S_20  and  C_24
REMARK                            x       y       z     vdW  Elec       q    Type
REMARK                         _______ _______ _______ _____ _____    ______ ____
ROOT
ATOM      1  N   UNL     1      35.955 -19.501 -20.752  0.00  0.00    +0.388 N 
ATOM      2  C   UNL     1      34.540 -19.174 -20.929  0.00  0.00    -0.042 C 
ATOM      3  C   UNL     1      34.450 -18.951 -22.432  0.00  0.00    +0.007 C 
ATOM      4  C   UNL     1      35.748 -18.218 -22.750  0.00  0.00    +0.093 C 
ATOM      5  C   UNL     1      36.696 -18.569 -21.605  0.00  0.00    -0.051 C 
ATOM      6  H   UNL     1      36.135 -20.464 -21.038  0.00  0.00    -0.084 HD
ATOM      7  H   UNL     1      36.238 -19.418 -19.775  0.00  0.00    -0.084 HD
ENDROOT
BRANCH   4   8
ATOM      8  O   UNL     1      35.526 -16.813 -22.756  0.00  0.00    -0.354 OA
BRANCH   8   9
ATOM      9  C   UNL     1      34.405 -16.468 -23.556  0.00  0.00    +0.168 C 
BRANCH   9  11
ATOM     10 CL   UNL     1      31.451 -11.948 -20.933  0.00  0.00    -0.082 Cl
ATOM     11  C   UNL     1      33.665 -15.338 -22.901  0.00  0.00    +0.007 C 
ATOM     12  C   UNL     1      33.215 -14.272 -23.671  0.00  0.00    -0.001 C 
ATOM     13  C   UNL     1      33.439 -15.368 -21.529  0.00  0.00    -0.001 C 
ATOM     14  C   UNL     1      32.528 -13.222 -23.061  0.00  0.00    +0.011 C 
ATOM     15  C   UNL     1      32.754 -14.318 -20.920  0.00  0.00    +0.011 C 
ATOM     16  C   UNL     1      32.297 -13.244 -21.685  0.00  0.00    +0.058 C 
ENDBRANCH   9  11
ENDBRANCH   8   9
ENDBRANCH   4   8
BRANCH   2  17
ATOM     17  C   UNL     1      33.641 -20.295 -20.437  0.00  0.00    +0.070 C 
BRANCH  17  18
ATOM     18  N   UNL     1      34.469 -21.421 -19.963  0.00  0.00    -0.181 NA
ATOM     19  H   UNL     1      34.744 -21.952 -20.789  0.00  0.00    +0.149 HD
BRANCH  18  20
ATOM     20  S   UNL     1      33.832 -22.538 -18.849  0.00  0.00    +0.060 S 
ATOM     21  O   UNL     1      33.858 -23.865 -19.433  0.00  0.00    -0.153 OA
ATOM     22  O   UNL     1      32.599 -22.006 -18.300  0.00  0.00    -0.153 OA
BRANCH  20  24
ATOM     23  N   UNL     1      34.353 -24.035 -13.697  0.00  0.00    -0.242 NA
ATOM     24  C   UNL     1      35.037 -22.488 -17.556  0.00  0.00    +0.122 C 
ATOM     25  C   UNL     1      34.787 -23.008 -16.282  0.00  0.00    +0.022 C 
ATOM     26  C   UNL     1      36.256 -21.901 -17.872  0.00  0.00    +0.020 C 
ATOM     27  C   UNL     1      35.802 -22.929 -15.306  0.00  0.00    +0.020 C 
ATOM     28  C   UNL     1      37.257 -21.823 -16.905  0.00  0.00    +0.001 C 
ATOM     29  C   UNL     1      33.567 -23.605 -15.943  0.00  0.00    +0.022 C 
ATOM     30  C   UNL     1      37.033 -22.334 -15.627  0.00  0.00    +0.002 C 
ATOM     31  C   UNL     1      35.524 -23.456 -14.043  0.00  0.00    +0.099 C 
ATOM     32  C   UNL     1      33.405 -24.094 -14.656  0.00  0.00    +0.099 C 
ENDBRANCH  20  24
ENDBRANCH  18  20
ENDBRANCH  17  18
ENDBRANCH   2  17
TORSDOF 7
ENDMDL
MODEL 2
REMARK VINA RESULT:     -11.1      1.274      2.402
REMARK  Name = 5327110
REMARK  7 active torsions:
REMARK  status: ('A' for Active; 'I' for Inactive)
REMARK    1  A    between atoms: C_2  and  C_17
REMARK    2  A    between atoms: C_4  and  O_8
REMARK    3  A    between atoms: O_8  and  C_9
REMARK    4  A    between atoms: C_9  and  C_11
REMARK    5  A    between atoms: C_17  and  N_18
REMARK    6  A    between atoms: N_18  and  S_20
REMARK    7  A    between atoms: S_20  and  C_24
REMARK                            x       y       z     vdW  Elec       q    Type
REMARK                         _______ _______ _______ _____ _____    ______ ____
ROOT
ATOM      1  N   UNL     1      35.544 -20.200 -20.335  0.00  0.00    +0.388 N 
ATOM      2  C   UNL     1      34.158 -19.818 -20.605  0.00  0.00    -0.042 C 
ATOM      3  C   UNL     1      34.255 -19.245 -22.012  0.00  0.00    +0.007 C 
ATOM      4  C   UNL     1      35.573 -18.480 -21.984  0.00  0.00    +0.093 C 
ATOM      5  C   UNL     1      36.374 -19.107 -20.845  0.00  0.00    -0.051 C 
ATOM      6  H   UNL     1      35.771 -21.072 -20.815  0.00  0.00    -0.084 HD
ATOM      7  H   UNL     1      35.701 -20.355 -19.338  0.00  0.00    -0.084 HD
ENDROOT
BRANCH   4   8
ATOM      8  O   UNL     1      35.335 -17.110 -21.686  0.00  0.00    -0.354 OA
BRANCH   8   9
ATOM      9  C   UNL     1      34.936 -16.389 -22.843  0.00  0.00    +0.168 C 
BRANCH   9  11
ATOM     10 CL   UNL     1      31.263 -11.932 -21.206  0.00  0.00    -0.082 Cl
ATOM     11  C   UNL     1      34.018 -15.274 -22.433  0.00  0.00    +0.007 C 
ATOM     12  C   UNL     1      33.566 -15.202 -21.121  0.00  0.00    -0.001 C 
ATOM     13  C   UNL     1      33.628 -14.324 -23.371  0.00  0.00    -0.001 C 
ATOM     14  C   UNL     1      32.713 -14.166 -20.740  0.00  0.00    +0.011 C 
ATOM     15  C   UNL     1      32.774 -13.289 -22.991  0.00  0.00    +0.011 C 
ATOM     16  C   UNL     1      32.316 -13.209 -21.675  0.00  0.00    +0.058 C 
ENDBRANCH   9  11
ENDBRANCH   8   9
ENDBRANCH   4   8
BRANCH   2  17
ATOM     17  C   UNL     1      33.219 -21.007 -20.507  0.00  0.00    +0.070 C 
BRANCH  17  18
ATOM     18  N   UNL     1      33.071 -21.404 -19.094  0.00  0.00    -0.181 NA
ATOM     19  H   UNL     1      33.309 -20.587 -18.532  0.00  0.00    +0.149 HD
BRANCH  18  20
ATOM     20  S   UNL     1      33.974 -22.706 -18.475  0.00  0.00    +0.060 S 
ATOM     21  O   UNL     1      35.314 -22.251 -18.156  0.00  0.00    -0.153 OA
ATOM     22  O   UNL     1      33.781 -23.863 -19.328  0.00  0.00    -0.153 OA
BRANCH  20  24
ATOM     23  N   UNL     1      35.101 -24.378 -13.475  0.00  0.00    -0.242 NA
ATOM     24  C   UNL     1      33.136 -23.039 -16.954  0.00  0.00    +0.122 C 
ATOM     25  C   UNL     1      33.810 -23.484 -15.812  0.00  0.00    +0.022 C 
ATOM     26  C   UNL     1      31.761 -22.836 -16.951  0.00  0.00    +0.020 C 
ATOM     27  C   UNL     1      33.067 -23.727 -14.638  0.00  0.00    +0.020 C 
ATOM     28  C   UNL     1      31.030 -23.078 -15.790  0.00  0.00    +0.001 C 
ATOM     29  C   UNL     1      35.194 -23.694 -15.793  0.00  0.00    +0.022 C 
ATOM     30  C   UNL     1      31.678 -23.521 -14.637  0.00  0.00    +0.002 C 
ATOM     31  C   UNL     1      33.765 -24.169 -13.513  0.00  0.00    +0.099 C 
ATOM     32  C   UNL     1      35.779 -24.135 -14.617  0.00  0.00    +0.099 C 
ENDBRANCH  20  24
ENDBRANCH  18  20
ENDBRANCH  17  18
ENDBRANCH   2  17
TORSDOF 7
ENDMDL
MODEL 3
REMARK VINA RESULT:     -11.0      5.414     11.319
REMARK  Name = 5327110
REMARK  7 active torsions:
REMARK  status: ('A' for Active; 'I' for Inactive)
REMARK    1  A    between atoms: C_2  and  C_17
REMARK    2  A    between atoms: C_4  and  O_8
REMARK    3  A    between atoms: O_8  and  C_9
REMARK    4  A    between atoms: C_9  and  C_11
REMARK    5  A    between atoms: C_17  and  N_18
REMARK    6  A    between atoms: N_18  and  S_20
REMARK    7  A    between atoms: S_20  and  C_24
REMARK                            x       y       z     vdW  Elec       q    Type
REMARK                         _______ _______ _______ _____ _____    ______ ____
ROOT
ATOM      1  N   UNL     1      33.441 -14.870 -23.554  0.00  0.00    +0.388 N 
ATOM      2  C   UNL     1      33.173 -15.223 -22.160  0.00  0.00    -0.042 C 
ATOM      3  C   UNL     1      34.530 -15.731 -21.693  0.00  0.00    +0.007 C 
ATOM      4  C   UNL     1      35.040 -16.512 -22.899  0.00  0.00    +0.093 C 
ATOM      5  C   UNL     1      34.273 -15.948 -24.093  0.00  0.00    -0.051 C 
ATOM      6  H   UNL     1      33.938 -13.980 -23.605  0.00  0.00    -0.084 HD
ATOM      7  H   UNL     1      32.577 -14.765 -24.085  0.00  0.00    -0.084 HD
ENDROOT
BRANCH   4   8
ATOM      8  O   UNL     1      34.727 -17.892 -22.753  0.00  0.00    -0.354 OA
BRANCH   8   9
ATOM      9  C   UNL     1      35.735 -18.580 -22.028  0.00  0.00    +0.168 C 
BRANCH   9  11
ATOM     10 CL   UNL     1      33.142 -22.549 -18.347  0.00  0.00    -0.082 Cl
ATOM     11  C   UNL     1      35.086 -19.573 -21.109  0.00  0.00    +0.007 C 
ATOM     12  C   UNL     1      33.703 -19.587 -20.977  0.00  0.00    -0.001 C 
ATOM     13  C   UNL     1      35.876 -20.469 -20.395  0.00  0.00    -0.001 C 
ATOM     14  C   UNL     1      33.100 -20.510 -20.121  0.00  0.00    +0.011 C 
ATOM     15  C   UNL     1      35.273 -21.391 -19.540  0.00  0.00    +0.011 C 
ATOM     16  C   UNL     1      33.885 -21.412 -19.403  0.00  0.00    +0.058 C 
ENDBRANCH   9  11
ENDBRANCH   8   9
ENDBRANCH   4   8
BRANCH   2  17
ATOM     17  C   UNL     1      32.677 -14.029 -21.365  0.00  0.00    +0.070 C 
BRANCH  17  18
ATOM     18  N   UNL     1      31.935 -13.116 -22.257  0.00  0.00    -0.181 NA
ATOM     19  H   UNL     1      32.485 -13.028 -23.111  0.00  0.00    +0.149 HD
BRANCH  18  20
ATOM     20  S   UNL     1      31.567 -11.536 -21.744  0.00  0.00    +0.060 S 
ATOM     21  O   UNL     1      31.961 -11.378 -20.357  0.00  0.00    -0.153 OA
ATOM     22  O   UNL     1      30.218 -11.206 -22.161  0.00  0.00    -0.153 OA
BRANCH  20  24
ATOM     23  N   UNL     1      32.834  -6.361 -22.567  0.00  0.00    -0.242 NA
ATOM     24  C   UNL     1      32.665 -10.568 -22.735  0.00  0.00    +0.122 C 
ATOM     25  C   UNL     1      32.703  -9.172 -22.663  0.00  0.00    +0.022 C 
ATOM     26  C   UNL     1      33.496 -11.270 -23.600  0.00  0.00    +0.020 C 
ATOM     27  C   UNL     1      33.608  -8.474 -23.489  0.00  0.00    +0.020 C 
ATOM     28  C   UNL     1      34.389 -10.578 -24.415  0.00  0.00    +0.001 C 
ATOM     29  C   UNL     1      31.875  -8.445 -21.799  0.00  0.00    +0.022 C 
ATOM     30  C   UNL     1      34.447  -9.185 -24.362  0.00  0.00    +0.002 C 
ATOM     31  C   UNL     1      33.625  -7.081 -23.394  0.00  0.00    +0.099 C 
ATOM     32  C   UNL     1      31.980  -7.062 -21.791  0.00  0.00    +0.099 C 
ENDBRANCH  20  24
ENDBRANCH  18  20
ENDBRANCH  17  18
ENDBRANCH   2  17
TORSDOF 7
ENDMDL
MODEL 4
REMARK VINA RESULT:     -10.6      1.586      2.409
REMARK  Name = 5327110
REMARK  7 active torsions:
REMARK  status: ('A' for Active; 'I' for Inactive)
REMARK    1  A    between atoms: C_2  and  C_17
REMARK    2  A    between atoms: C_4  and  O_8
REMARK    3  A    between atoms: O_8  and  C_9
REMARK    4  A    between atoms: C_9  and  C_11
REMARK    5  A    between atoms: C_17  and  N_18
REMARK    6  A    between atoms: N_18  and  S_20
REMARK    7  A    between atoms: S_20  and  C_24
REMARK                            x       y       z     vdW  Elec       q    Type
REMARK                         _______ _______ _______ _____ _____    ______ ____
ROOT
ATOM      1  N   UNL     1      36.804 -19.628 -20.827  0.00  0.00    +0.388 N 
ATOM      2  C   UNL     1      35.579 -20.241 -20.314  0.00  0.00    -0.042 C 
ATOM      3  C   UNL     1      34.636 -20.108 -21.501  0.00  0.00    +0.007 C 
ATOM      4  C   UNL     1      34.971 -18.730 -22.058  0.00  0.00    +0.093 C 
ATOM      5  C   UNL     1      36.384 -18.432 -21.560  0.00  0.00    -0.051 C 
ATOM      6  H   UNL     1      37.289 -20.274 -21.452  0.00  0.00    -0.084 HD
ATOM      7  H   UNL     1      37.450 -19.396 -20.072  0.00  0.00    -0.084 HD
ENDROOT
BRANCH   4   8
ATOM      8  O   UNL     1      34.077 -17.759 -21.527  0.00  0.00    -0.354 OA
BRANCH   8   9
ATOM      9  C   UNL     1      34.773 -16.619 -21.044  0.00  0.00    +0.168 C 
BRANCH   9  11
ATOM     10 CL   UNL     1      31.584 -11.697 -22.321  0.00  0.00    -0.082 Cl
ATOM     11  C   UNL     1      33.976 -15.388 -21.363  0.00  0.00    +0.007 C 
ATOM     12  C   UNL     1      33.106 -14.866 -20.413  0.00  0.00    -0.001 C 
ATOM     13  C   UNL     1      34.115 -14.781 -22.607  0.00  0.00    -0.001 C 
ATOM     14  C   UNL     1      32.365 -13.722 -20.709  0.00  0.00    +0.011 C 
ATOM     15  C   UNL     1      33.374 -13.638 -22.903  0.00  0.00    +0.011 C 
ATOM     16  C   UNL     1      32.499 -13.108 -21.955  0.00  0.00    +0.058 C 
ENDBRANCH   9  11
ENDBRANCH   8   9
ENDBRANCH   4   8
BRANCH   2  17
ATOM     17  C   UNL     1      35.808 -21.681 -19.890  0.00  0.00    +0.070 C 
BRANCH  17  18
ATOM     18  N   UNL     1      35.188 -21.911 -18.571  0.00  0.00    -0.181 NA
ATOM     19  H   UNL     1      35.874 -22.414 -18.008  0.00  0.00    +0.149 HD
BRANCH  18  20
ATOM     20  S   UNL     1      33.727 -22.775 -18.454  0.00  0.00    +0.060 S 
ATOM     21  O   UNL     1      33.842 -24.014 -19.201  0.00  0.00    -0.153 OA
ATOM     22  O   UNL     1      32.622 -21.871 -18.708  0.00  0.00    -0.153 OA
BRANCH  20  24
ATOM     23  N   UNL     1      30.099 -23.602 -14.554  0.00  0.00    -0.242 NA
ATOM     24  C   UNL     1      33.680 -23.178 -16.734  0.00  0.00    +0.122 C 
ATOM     25  C   UNL     1      32.479 -23.313 -16.031  0.00  0.00    +0.022 C 
ATOM     26  C   UNL     1      34.909 -23.355 -16.108  0.00  0.00    +0.020 C 
ATOM     27  C   UNL     1      32.528 -23.637 -14.659  0.00  0.00    +0.020 C 
ATOM     28  C   UNL     1      34.955 -23.674 -14.753  0.00  0.00    +0.001 C 
ATOM     29  C   UNL     1      31.231 -23.141 -16.641  0.00  0.00    +0.022 C 
ATOM     30  C   UNL     1      33.770 -23.815 -14.029  0.00  0.00    +0.002 C 
ATOM     31  C   UNL     1      31.314 -23.766 -13.983  0.00  0.00    +0.099 C 
ATOM     32  C   UNL     1      30.090 -23.294 -15.869  0.00  0.00    +0.099 C 
ENDBRANCH  20  24
ENDBRANCH  18  20
ENDBRANCH  17  18
ENDBRANCH   2  17
TORSDOF 7
ENDMDL
MODEL 5
REMARK VINA RESULT:     -10.5      5.303     11.342
REMARK  Name = 5327110
REMARK  7 active torsions:
REMARK  status: ('A' for Active; 'I' for Inactive)
REMARK    1  A    between atoms: C_2  and  C_17
REMARK    2  A    between atoms: C_4  and  O_8
REMARK    3  A    between atoms: O_8  and  C_9
REMARK    4  A    between atoms: C_9  and  C_11
REMARK    5  A    between atoms: C_17  and  N_18
REMARK    6  A    between atoms: N_18  and  S_20
REMARK    7  A    between atoms: S_20  and  C_24
REMARK                            x       y       z     vdW  Elec       q    Type
REMARK                         _______ _______ _______ _____ _____    ______ ____
ROOT
ATOM      1  N   UNL     1      33.415 -14.479 -23.068  0.00  0.00    +0.388 N 
ATOM      2  C   UNL     1      32.881 -14.691 -21.723  0.00  0.00    -0.042 C 
ATOM      3  C   UNL     1      34.080 -15.282 -20.995  0.00  0.00    +0.007 C 
ATOM      4  C   UNL     1      34.700 -16.202 -22.040  0.00  0.00    +0.093 C 
ATOM      5  C   UNL     1      34.207 -15.669 -23.384  0.00  0.00    -0.051 C 
ATOM      6  H   UNL     1      34.004 -13.645 -23.089  0.00  0.00    -0.084 HD
ATOM      7  H   UNL     1      32.668 -14.337 -23.749  0.00  0.00    -0.084 HD
ENDROOT
BRANCH   4   8
ATOM      8  O   UNL     1      34.223 -17.531 -21.863  0.00  0.00    -0.354 OA
BRANCH   8   9
ATOM      9  C   UNL     1      35.293 -18.461 -21.782  0.00  0.00    +0.168 C 
BRANCH   9  11
ATOM     10 CL   UNL     1      33.618 -23.073 -18.324  0.00  0.00    -0.082 Cl
ATOM     11  C   UNL     1      34.875 -19.613 -20.916  0.00  0.00    +0.007 C 
ATOM     12  C   UNL     1      35.842 -20.426 -20.337  0.00  0.00    -0.001 C 
ATOM     13  C   UNL     1      33.522 -19.858 -20.703  0.00  0.00    -0.001 C 
ATOM     14  C   UNL     1      35.453 -21.498 -19.534  0.00  0.00    +0.011 C 
ATOM     15  C   UNL     1      33.133 -20.930 -19.900  0.00  0.00    +0.011 C 
ATOM     16  C   UNL     1      34.098 -21.750 -19.315  0.00  0.00    +0.058 C 
ENDBRANCH   9  11
ENDBRANCH   8   9
ENDBRANCH   4   8
BRANCH   2  17
ATOM     17  C   UNL     1      32.387 -13.395 -21.106  0.00  0.00    +0.070 C 
BRANCH  17  18
ATOM     18  N   UNL     1      32.221 -12.377 -22.161  0.00  0.00    -0.181 NA
ATOM     19  H   UNL     1      33.152 -12.179 -22.527  0.00  0.00    +0.149 HD
BRANCH  18  20
ATOM     20  S   UNL     1      31.508 -10.876 -21.793  0.00  0.00    +0.060 S 
ATOM     21  O   UNL     1      31.478 -10.699 -20.354  0.00  0.00    -0.153 OA
ATOM     22  O   UNL     1      30.294 -10.726 -22.573  0.00  0.00    -0.153 OA
BRANCH  20  24
ATOM     23  N   UNL     1      35.171 -10.642 -25.741  0.00  0.00    -0.242 NA
ATOM     24  C   UNL     1      32.690  -9.741 -22.456  0.00  0.00    +0.122 C 
ATOM     25  C   UNL     1      33.504 -10.063 -23.548  0.00  0.00    +0.022 C 
ATOM     26  C   UNL     1      32.773  -8.502 -21.833  0.00  0.00    +0.020 C 
ATOM     27  C   UNL     1      34.422  -9.100 -24.016  0.00  0.00    +0.020 C 
ATOM     28  C   UNL     1      33.681  -7.553 -22.297  0.00  0.00    +0.001 C 
ATOM     29  C   UNL     1      33.437 -11.304 -24.191  0.00  0.00    +0.022 C 
ATOM     30  C   UNL     1      34.504  -7.849 -23.385  0.00  0.00    +0.002 C 
ATOM     31  C   UNL     1      35.221  -9.448 -25.107  0.00  0.00    +0.099 C 
ATOM     32  C   UNL     1      34.281 -11.538 -25.266  0.00  0.00    +0.099 C 
ENDBRANCH  20  24
ENDBRANCH  18  20
ENDBRANCH  17  18
ENDBRANCH   2  17
TORSDOF 7
ENDMDL
MODEL 6
REMARK VINA RESULT:     -10.5      4.878     10.869
REMARK  Name = 5327110
REMARK  7 active torsions:
REMARK  status: ('A' for Active; 'I' for Inactive)
REMARK    1  A    between atoms: C_2  and  C_17
REMARK    2  A    between atoms: C_4  and  O_8
REMARK    3  A    between atoms: O_8  and  C_9
REMARK    4  A    between atoms: C_9  and  C_11
REMARK    5  A    between atoms: C_17  and  N_18
REMARK    6  A    between atoms: N_18  and  S_20
REMARK    7  A    between atoms: S_20  and  C_24
REMARK                            x       y       z     vdW  Elec       q    Type
REMARK                         _______ _______ _______ _____ _____    ______ ____
ROOT
ATOM      1  N   UNL     1      34.141 -16.285 -23.991  0.00  0.00    +0.388 N 
ATOM      2  C   UNL     1      34.281 -16.150 -22.541  0.00  0.00    -0.042 C 
ATOM      3  C   UNL     1      35.610 -16.846 -22.284  0.00  0.00    +0.007 C 
ATOM      4  C   UNL     1      35.565 -18.039 -23.232  0.00  0.00    +0.093 C 
ATOM      5  C   UNL     1      34.560 -17.651 -24.314  0.00  0.00    -0.051 C 
ATOM      6  H   UNL     1      34.737 -15.609 -24.470  0.00  0.00    -0.084 HD
ATOM      7  H   UNL     1      33.182 -16.108 -24.291  0.00  0.00    -0.084 HD
ENDROOT
BRANCH   4   8
ATOM      8  O   UNL     1      35.087 -19.189 -22.544  0.00  0.00    -0.354 OA
BRANCH   8   9
ATOM      9  C   UNL     1      35.891 -19.489 -21.413  0.00  0.00    +0.168 C 
BRANCH   9  11
ATOM     10 CL   UNL     1      32.785 -23.036 -17.697  0.00  0.00    -0.082 Cl
ATOM     11  C   UNL     1      35.115 -20.376 -20.483  0.00  0.00    +0.007 C 
ATOM     12  C   UNL     1      35.789 -21.280 -19.670  0.00  0.00    -0.001 C 
ATOM     13  C   UNL     1      33.727 -20.285 -20.444  0.00  0.00    -0.001 C 
ATOM     14  C   UNL     1      35.068 -22.104 -18.807  0.00  0.00    +0.011 C 
ATOM     15  C   UNL     1      33.006 -21.109 -19.581  0.00  0.00    +0.011 C 
ATOM     16  C   UNL     1      33.675 -22.019 -18.762  0.00  0.00    +0.058 C 
ENDBRANCH   9  11
ENDBRANCH   8   9
ENDBRANCH   4   8
BRANCH   2  17
ATOM     17  C   UNL     1      34.277 -14.694 -22.111  0.00  0.00    +0.070 C 
BRANCH  17  18
ATOM     18  N   UNL     1      34.551 -13.833 -23.278  0.00  0.00    -0.181 NA
ATOM     19  H   UNL     1      35.149 -13.075 -22.951  0.00  0.00    +0.149 HD
BRANCH  18  20
ATOM     20  S   UNL     1      33.264 -13.113 -24.127  0.00  0.00    +0.060 S 
ATOM     21  O   UNL     1      32.048 -13.231 -23.344  0.00  0.00    -0.153 OA
ATOM     22  O   UNL     1      33.292 -13.568 -25.504  0.00  0.00    -0.153 OA
BRANCH  20  24
ATOM     23  N   UNL     1      32.053  -8.520 -21.577  0.00  0.00    -0.242 NA
ATOM     24  C   UNL     1      33.742 -11.412 -24.136  0.00  0.00    +0.122 C 
ATOM     25  C   UNL     1      33.167 -10.469 -23.277  0.00  0.00    +0.022 C 
ATOM     26  C   UNL     1      34.728 -11.052 -25.048  0.00  0.00    +0.020 C 
ATOM     27  C   UNL     1      33.605  -9.130 -23.347  0.00  0.00    +0.020 C 
ATOM     28  C   UNL     1      35.158  -9.730 -25.116  0.00  0.00    +0.001 C 
ATOM     29  C   UNL     1      32.174 -10.809 -22.350  0.00  0.00    +0.022 C 
ATOM     30  C   UNL     1      34.600  -8.770 -24.270  0.00  0.00    +0.002 C 
ATOM     31  C   UNL     1      33.014  -8.212 -22.478  0.00  0.00    +0.099 C 
ATOM     32  C   UNL     1      31.659  -9.811 -21.538  0.00  0.00    +0.099 C 
ENDBRANCH  20  24
ENDBRANCH  18  20
ENDBRANCH  17  18
ENDBRANCH   2  17
TORSDOF 7
ENDMDL
MODEL 7
REMARK VINA RESULT:     -10.3      3.944     10.031
REMARK  Name = 5327110
REMARK  7 active torsions:
REMARK  status: ('A' for Active; 'I' for Inactive)
REMARK    1  A    between atoms: C_2  and  C_17
REMARK    2  A    between atoms: C_4  and  O_8
REMARK    3  A    between atoms: O_8  and  C_9
REMARK    4  A    between atoms: C_9  and  C_11
REMARK    5  A    between atoms: C_17  and  N_18
REMARK    6  A    between atoms: N_18  and  S_20
REMARK    7  A    between atoms: S_20  and  C_24
REMARK                            x       y       z     vdW  Elec       q    Type
REMARK                         _______ _______ _______ _____ _____    ______ ____
ROOT
ATOM      1  N   UNL     1      32.826 -21.730 -19.686  0.00  0.00    +0.388 N 
ATOM      2  C   UNL     1      33.803 -20.648 -19.812  0.00  0.00    -0.042 C 
ATOM      3  C   UNL     1      35.112 -21.414 -19.938  0.00  0.00    +0.007 C 
ATOM      4  C   UNL     1      34.935 -22.565 -18.955  0.00  0.00    +0.093 C 
ATOM      5  C   UNL     1      33.425 -22.715 -18.782  0.00  0.00    -0.051 C 
ATOM      6  H   UNL     1      32.643 -22.151 -20.598  0.00  0.00    -0.084 HD
ATOM      7  H   UNL     1      31.934 -21.388 -19.327  0.00  0.00    -0.084 HD
ENDROOT
BRANCH   4   8
ATOM      8  O   UNL     1      35.516 -22.227 -17.701  0.00  0.00    -0.354 OA
BRANCH   8   9
ATOM      9  C   UNL     1      34.836 -22.860 -16.627  0.00  0.00    +0.168 C 
BRANCH   9  11
ATOM     10 CL   UNL     1      38.846 -25.701 -13.179  0.00  0.00    -0.082 Cl
ATOM     11  C   UNL     1      35.838 -23.572 -15.765  0.00  0.00    +0.007 C 
ATOM     12  C   UNL     1      35.435 -24.650 -14.986  0.00  0.00    -0.001 C 
ATOM     13  C   UNL     1      37.162 -23.144 -15.753  0.00  0.00    -0.001 C 
ATOM     14  C   UNL     1      36.367 -25.310 -14.185  0.00  0.00    +0.011 C 
ATOM     15  C   UNL     1      38.093 -23.803 -14.952  0.00  0.00    +0.011 C 
ATOM     16  C   UNL     1      37.697 -24.887 -14.168  0.00  0.00    +0.058 C 
ENDBRANCH   9  11
ENDBRANCH   8   9
ENDBRANCH   4   8
BRANCH   2  17
ATOM     17  C   UNL     1      33.509 -19.765 -21.012  0.00  0.00    +0.070 C 
BRANCH  17  18
ATOM     18  N   UNL     1      34.729 -19.621 -21.829  0.00  0.00    -0.181 NA
ATOM     19  H   UNL     1      35.358 -20.375 -21.554  0.00  0.00    +0.149 HD
BRANCH  18  20
ATOM     20  S   UNL     1      35.631 -18.180 -21.767  0.00  0.00    +0.060 S 
ATOM     21  O   UNL     1      37.012 -18.463 -22.112  0.00  0.00    -0.153 OA
ATOM     22  O   UNL     1      35.316 -17.478 -20.537  0.00  0.00    -0.153 OA
BRANCH  20  24
ATOM     23  N   UNL     1      32.992 -13.543 -22.534  0.00  0.00    -0.242 NA
ATOM     24  C   UNL     1      34.919 -17.249 -23.090  0.00  0.00    +0.122 C 
ATOM     25  C   UNL     1      34.284 -16.020 -22.881  0.00  0.00    +0.022 C 
ATOM     26  C   UNL     1      35.022 -17.803 -24.360  0.00  0.00    +0.020 C 
ATOM     27  C   UNL     1      33.741 -15.340 -23.990  0.00  0.00    +0.020 C 
ATOM     28  C   UNL     1      34.485 -17.129 -25.454  0.00  0.00    +0.001 C 
ATOM     29  C   UNL     1      34.169 -15.443 -21.610  0.00  0.00    +0.022 C 
ATOM     30  C   UNL     1      33.846 -15.902 -25.273  0.00  0.00    +0.002 C 
ATOM     31  C   UNL     1      33.113 -14.116 -23.752  0.00  0.00    +0.099 C 
ATOM     32  C   UNL     1      33.523 -14.222 -21.495  0.00  0.00    +0.099 C 
ENDBRANCH  20  24
ENDBRANCH  18  20
ENDBRANCH  17  18
ENDBRANCH   2  17
TORSDOF 7
ENDMDL
MODEL 8
REMARK VINA RESULT:     -10.3      1.977      2.906
REMARK  Name = 5327110
REMARK  7 active torsions:
REMARK  status: ('A' for Active; 'I' for Inactive)
REMARK    1  A    between atoms: C_2  and  C_17
REMARK    2  A    between atoms: C_4  and  O_8
REMARK    3  A    between atoms: O_8  and  C_9
REMARK    4  A    between atoms: C_9  and  C_11
REMARK    5  A    between atoms: C_17  and  N_18
REMARK    6  A    between atoms: N_18  and  S_20
REMARK    7  A    between atoms: S_20  and  C_24
REMARK                            x       y       z     vdW  Elec       q    Type
REMARK                         _______ _______ _______ _____ _____    ______ ____
ROOT
ATOM      1  N   UNL     1      34.289 -20.167 -20.459  0.00  0.00    +0.388 N 
ATOM      2  C   UNL     1      35.630 -20.693 -20.714  0.00  0.00    -0.042 C 
ATOM      3  C   UNL     1      36.499 -19.460 -20.511  0.00  0.00    +0.007 C 
ATOM      4  C   UNL     1      35.668 -18.345 -21.135  0.00  0.00    +0.093 C 
ATOM      5  C   UNL     1      34.232 -18.863 -21.122  0.00  0.00    -0.051 C 
ATOM      6  H   UNL     1      34.134 -20.062 -19.455  0.00  0.00    -0.084 HD
ATOM      7  H   UNL     1      33.568 -20.797 -20.811  0.00  0.00    -0.084 HD
ENDROOT
BRANCH   4   8
ATOM      8  O   UNL     1      36.074 -18.132 -22.482  0.00  0.00    -0.354 OA
BRANCH   8   9
ATOM      9  C   UNL     1      34.983 -18.273 -23.381  0.00  0.00    +0.168 C 
BRANCH   9  11
ATOM     10 CL   UNL     1      33.353 -12.844 -25.357  0.00  0.00    -0.082 Cl
ATOM     11  C   UNL     1      34.577 -16.915 -23.875  0.00  0.00    +0.007 C 
ATOM     12  C   UNL     1      34.689 -15.814 -23.034  0.00  0.00    -0.001 C 
ATOM     13  C   UNL     1      34.090 -16.772 -25.170  0.00  0.00    -0.001 C 
ATOM     14  C   UNL     1      34.310 -14.553 -23.493  0.00  0.00    +0.011 C 
ATOM     15  C   UNL     1      33.711 -15.511 -25.629  0.00  0.00    +0.011 C 
ATOM     16  C   UNL     1      33.821 -14.401 -24.791  0.00  0.00    +0.058 C 
ENDBRANCH   9  11
ENDBRANCH   8   9
ENDBRANCH   4   8
BRANCH   2  17
ATOM     17  C   UNL     1      35.975 -21.830 -19.767  0.00  0.00    +0.070 C 
BRANCH  17  18
ATOM     18  N   UNL     1      35.100 -21.767 -18.581  0.00  0.00    -0.181 NA
ATOM     19  H   UNL     1      35.678 -22.005 -17.776  0.00  0.00    +0.149 HD
BRANCH  18  20
ATOM     20  S   UNL     1      33.710 -22.745 -18.494  0.00  0.00    +0.060 S 
ATOM     21  O   UNL     1      33.934 -23.964 -19.247  0.00  0.00    -0.153 OA
ATOM     22  O   UNL     1      32.541 -21.928 -18.760  0.00  0.00    -0.153 OA
BRANCH  20  24
ATOM     23  N   UNL     1      30.099 -23.473 -14.559  0.00  0.00    -0.242 NA
ATOM     24  C   UNL     1      33.668 -23.164 -16.778  0.00  0.00    +0.122 C 
ATOM     25  C   UNL     1      32.470 -23.260 -16.061  0.00  0.00    +0.022 C 
ATOM     26  C   UNL     1      34.896 -23.395 -16.169  0.00  0.00    +0.020 C 
ATOM     27  C   UNL     1      32.524 -23.600 -14.694  0.00  0.00    +0.020 C 
ATOM     28  C   UNL     1      34.946 -23.731 -14.818  0.00  0.00    +0.001 C 
ATOM     29  C   UNL     1      31.223 -23.032 -16.654  0.00  0.00    +0.022 C 
ATOM     30  C   UNL     1      33.765 -23.833 -14.081  0.00  0.00    +0.002 C 
ATOM     31  C   UNL     1      31.313 -23.690 -14.004  0.00  0.00    +0.099 C 
ATOM     32  C   UNL     1      30.087 -23.150 -15.869  0.00  0.00    +0.099 C 
ENDBRANCH  20  24
ENDBRANCH  18  20
ENDBRANCH  17  18
ENDBRANCH   2  17
TORSDOF 7
ENDMDL
MODEL 9
REMARK VINA RESULT:     -10.3      3.345      5.313
REMARK  Name = 5327110
REMARK  7 active torsions:
REMARK  status: ('A' for Active; 'I' for Inactive)
REMARK    1  A    between atoms: C_2  and  C_17
REMARK    2  A    between atoms: C_4  and  O_8
REMARK    3  A    between atoms: O_8  and  C_9
REMARK    4  A    between atoms: C_9  and  C_11
REMARK    5  A    between atoms: C_17  and  N_18
REMARK    6  A    between atoms: N_18  and  S_20
REMARK    7  A    between atoms: S_20  and  C_24
REMARK                            x       y       z     vdW  Elec       q    Type
REMARK                         _______ _______ _______ _____ _____    ______ ____
ROOT
ATOM      1  N   UNL     1      34.547 -15.037 -23.142  0.00  0.00    +0.388 N 
ATOM      2  C   UNL     1      34.189 -14.759 -21.751  0.00  0.00    -0.042 C 
ATOM      3  C   UNL     1      32.676 -14.611 -21.835  0.00  0.00    +0.007 C 
ATOM      4  C   UNL     1      32.475 -13.859 -23.145  0.00  0.00    +0.093 C 
ATOM      5  C   UNL     1      33.739 -14.128 -23.958  0.00  0.00    -0.051 C 
ATOM      6  H   UNL     1      34.333 -16.007 -23.376  0.00  0.00    -0.084 HD
ATOM      7  H   UNL     1      35.544 -14.899 -23.306  0.00  0.00    -0.084 HD
ENDROOT
BRANCH   4   8
ATOM      8  O   UNL     1      32.371 -12.463 -22.894  0.00  0.00    -0.354 OA
BRANCH   8   9
ATOM      9  C   UNL     1      31.568 -12.198 -21.752  0.00  0.00    +0.168 C 
BRANCH   9  11
ATOM     10 CL   UNL     1      32.490  -6.538 -19.981  0.00  0.00    -0.082 Cl
ATOM     11  C   UNL     1      31.800 -10.784 -21.308  0.00  0.00    +0.007 C 
ATOM     12  C   UNL     1      31.671 -10.453 -19.964  0.00  0.00    -0.001 C 
ATOM     13  C   UNL     1      32.140  -9.815 -22.247  0.00  0.00    -0.001 C 
ATOM     14  C   UNL     1      31.885  -9.138 -19.552  0.00  0.00    +0.011 C 
ATOM     15  C   UNL     1      32.353  -8.500 -21.836  0.00  0.00    +0.011 C 
ATOM     16  C   UNL     1      32.227  -8.161 -20.488  0.00  0.00    +0.058 C 
ENDBRANCH   9  11
ENDBRANCH   8   9
ENDBRANCH   4   8
BRANCH   2  17
ATOM     17  C   UNL     1      34.629 -15.880 -20.825  0.00  0.00    +0.070 C 
BRANCH  17  18
ATOM     18  N   UNL     1      34.084 -17.163 -21.309  0.00  0.00    -0.181 NA
ATOM     19  H   UNL     1      33.815 -17.698 -20.483  0.00  0.00    +0.149 HD
BRANCH  18  20
ATOM     20  S   UNL     1      35.044 -18.189 -22.269  0.00  0.00    +0.060 S 
ATOM     21  O   UNL     1      36.219 -17.466 -22.716  0.00  0.00    -0.153 OA
ATOM     22  O   UNL     1      34.195 -18.868 -23.229  0.00  0.00    -0.153 OA
BRANCH  20  24
ATOM     23  N   UNL     1      32.911 -22.042 -19.161  0.00  0.00    -0.242 NA
ATOM     24  C   UNL     1      35.565 -19.401 -21.093  0.00  0.00    +0.122 C 
ATOM     25  C   UNL     1      34.665 -20.267 -20.464  0.00  0.00    +0.022 C 
ATOM     26  C   UNL     1      36.928 -19.452 -20.822  0.00  0.00    +0.020 C 
ATOM     27  C   UNL     1      35.163 -21.207 -19.537  0.00  0.00    +0.020 C 
ATOM     28  C   UNL     1      37.416 -20.380 -19.906  0.00  0.00    +0.001 C 
ATOM     29  C   UNL     1      33.290 -20.235 -20.722  0.00  0.00    +0.022 C 
ATOM     30  C   UNL     1      36.540 -21.256 -19.264  0.00  0.00    +0.002 C 
ATOM     31  C   UNL     1      34.242 -22.059 -18.925  0.00  0.00    +0.099 C 
ATOM     32  C   UNL     1      32.470 -21.130 -20.053  0.00  0.00    +0.099 C 
ENDBRANCH  20  24
ENDBRANCH  18  20
ENDBRANCH  17  18
ENDBRANCH   2  17
TORSDOF 7
ENDMDL
