MODEL 1
REMARK VINA RESULT:      -9.9      0.000      0.000
REMARK  Name = 71750
REMARK  1 active torsions:
REMARK  status: ('A' for Active; 'I' for Inactive)
REMARK    1  A    between atoms: C_15  and  N_19
REMARK                            x       y       z     vdW  Elec       q    Type
REMARK                         _______ _______ _______ _____ _____    ______ ____
ROOT
ATOM      1  O   UNL     1      36.648 -22.302 -17.977  0.00  0.00    -0.269 OA
ATOM      2  N   UNL     1      34.324 -22.457 -17.650  0.00  0.00    -0.226 N 
ATOM      3  N   UNL     1      31.979 -22.182 -17.958  0.00  0.00    -0.391 NA
ATOM      4  C   UNL     1      34.233 -23.266 -16.449  0.00  0.00    +0.130 C 
ATOM      5  C   UNL     1      33.208 -21.987 -18.298  0.00  0.00    +0.189 C 
ATOM      6  C   UNL     1      33.679 -21.228 -19.443  0.00  0.00    +0.049 C 
ATOM      7  C   UNL     1      32.806 -23.502 -16.038  0.00  0.00    +0.025 C 
ATOM      8  C   UNL     1      35.069 -21.277 -19.429  0.00  0.00    +0.058 C 
ATOM      9  C   UNL     1      35.489 -22.072 -18.270  0.00  0.00    +0.255 C 
ATOM     10  C   UNL     1      31.751 -22.957 -16.800  0.00  0.00    +0.113 C 
ATOM     11  C   UNL     1      32.524 -24.263 -14.897  0.00  0.00    +0.013 C 
ATOM     12  C   UNL     1      32.982 -20.549 -20.419  0.00  0.00    +0.004 C 
ATOM     13  C   UNL     1      35.830 -20.649 -20.392  0.00  0.00    +0.005 C 
ATOM     14  C   UNL     1      30.431 -23.191 -16.398  0.00  0.00    +0.086 C 
ATOM     15  C   UNL     1      31.203 -24.486 -14.511  0.00  0.00    +0.037 C 
ATOM     16  C   UNL     1      30.158 -23.951 -15.260  0.00  0.00    -0.005 C 
ATOM     17  C   UNL     1      33.733 -19.905 -21.406  0.00  0.00    +0.000 C 
ATOM     18  C   UNL     1      35.143 -19.954 -21.392  0.00  0.00    +0.000 C 
ENDROOT
BRANCH  15  19
ATOM     19  N   UNL     1      30.925 -25.254 -13.361  0.00  0.00    -0.357 N 
ATOM     20  H   UNL     1      30.824 -26.231 -13.433  0.00  0.00    +0.142 HD
ATOM     21  H   UNL     1      30.831 -24.814 -12.486  0.00  0.00    +0.142 HD
ENDBRANCH  15  19
TORSDOF 1
ENDMDL
MODEL 2
REMARK VINA RESULT:      -9.7      2.677      3.885
REMARK  Name = 71750
REMARK  1 active torsions:
REMARK  status: ('A' for Active; 'I' for Inactive)
REMARK    1  A    between atoms: C_15  and  N_19
REMARK                            x       y       z     vdW  Elec       q    Type
REMARK                         _______ _______ _______ _____ _____    ______ ____
ROOT
ATOM      1  O   UNL     1      32.645 -21.649 -20.054  0.00  0.00    -0.269 OA
ATOM      2  N   UNL     1      34.578 -21.850 -18.729  0.00  0.00    -0.226 N 
ATOM      3  N   UNL     1      36.797 -21.556 -17.918  0.00  0.00    -0.391 NA
ATOM      4  C   UNL     1      34.154 -22.782 -17.701  0.00  0.00    +0.130 C 
ATOM      5  C   UNL     1      35.844 -21.319 -18.755  0.00  0.00    +0.189 C 
ATOM      6  C   UNL     1      35.906 -20.439 -19.908  0.00  0.00    +0.049 C 
ATOM      7  C   UNL     1      35.254 -23.070 -16.717  0.00  0.00    +0.025 C 
ATOM      8  C   UNL     1      34.662 -20.482 -20.528  0.00  0.00    +0.058 C 
ATOM      9  C   UNL     1      33.800 -21.394 -19.768  0.00  0.00    +0.255 C 
ATOM     10  C   UNL     1      36.514 -22.452 -16.863  0.00  0.00    +0.113 C 
ATOM     11  C   UNL     1      35.026 -23.950 -15.653  0.00  0.00    +0.013 C 
ATOM     12  C   UNL     1      36.937 -19.664 -20.393  0.00  0.00    +0.004 C 
ATOM     13  C   UNL     1      34.388 -19.750 -21.665  0.00  0.00    +0.005 C 
ATOM     14  C   UNL     1      37.522 -22.734 -15.934  0.00  0.00    +0.086 C 
ATOM     15  C   UNL     1      36.041 -24.221 -14.736  0.00  0.00    +0.037 C 
ATOM     16  C   UNL     1      37.287 -23.614 -14.876  0.00  0.00    -0.005 C 
ATOM     17  C   UNL     1      36.682 -18.913 -21.544  0.00  0.00    +0.000 C 
ATOM     18  C   UNL     1      35.419 -18.956 -22.173  0.00  0.00    +0.000 C 
ENDROOT
BRANCH  15  19
ATOM     19  N   UNL     1      35.806 -25.109 -13.666  0.00  0.00    -0.357 N 
ATOM     20  H   UNL     1      36.547 -25.375 -13.074  0.00  0.00    +0.142 HD
ATOM     21  H   UNL     1      34.901 -25.464 -13.510  0.00  0.00    +0.142 HD
ENDBRANCH  15  19
TORSDOF 1
ENDMDL
MODEL 3
REMARK VINA RESULT:      -9.6      2.528      3.929
REMARK  Name = 71750
REMARK  1 active torsions:
REMARK  status: ('A' for Active; 'I' for Inactive)
REMARK    1  A    between atoms: C_15  and  N_19
REMARK                            x       y       z     vdW  Elec       q    Type
REMARK                         _______ _______ _______ _____ _____    ______ ____
ROOT
ATOM      1  O   UNL     1      32.338 -22.364 -18.606  0.00  0.00    -0.269 OA
ATOM      2  N   UNL     1      34.453 -22.586 -17.605  0.00  0.00    -0.226 N 
ATOM      3  N   UNL     1      36.785 -22.352 -17.182  0.00  0.00    -0.391 NA
ATOM      4  C   UNL     1      34.171 -23.446 -16.471  0.00  0.00    +0.130 C 
ATOM      5  C   UNL     1      35.717 -22.114 -17.865  0.00  0.00    +0.189 C 
ATOM      6  C   UNL     1      35.619 -21.296 -19.061  0.00  0.00    +0.049 C 
ATOM      7  C   UNL     1      35.406 -23.733 -15.663  0.00  0.00    +0.025 C 
ATOM      8  C   UNL     1      34.289 -21.314 -19.467  0.00  0.00    +0.058 C 
ATOM      9  C   UNL     1      33.532 -22.147 -18.527  0.00  0.00    +0.255 C 
ATOM     10  C   UNL     1      36.647 -23.181 -16.047  0.00  0.00    +0.113 C 
ATOM     11  C   UNL     1      35.326 -24.550 -14.529  0.00  0.00    +0.013 C 
ATOM     12  C   UNL     1      36.584 -20.592 -19.749  0.00  0.00    +0.004 C 
ATOM     13  C   UNL     1      33.859 -20.627 -20.583  0.00  0.00    +0.005 C 
ATOM     14  C   UNL     1      37.783 -23.462 -15.279  0.00  0.00    +0.086 C 
ATOM     15  C   UNL     1      36.467 -24.819 -13.775  0.00  0.00    +0.037 C 
ATOM     16  C   UNL     1      37.694 -24.277 -14.149  0.00  0.00    -0.005 C 
ATOM     17  C   UNL     1      36.170 -19.889 -20.884  0.00  0.00    +0.000 C 
ATOM     18  C   UNL     1      34.821 -19.906 -21.296  0.00  0.00    +0.000 C 
ENDROOT
BRANCH  15  19
ATOM     19  N   UNL     1      36.380 -25.642 -12.633  0.00  0.00    -0.357 N 
ATOM     20  H   UNL     1      37.097 -26.287 -12.433  0.00  0.00    +0.142 HD
ATOM     21  H   UNL     1      35.601 -25.573 -12.035  0.00  0.00    +0.142 HD
ENDBRANCH  15  19
TORSDOF 1
ENDMDL
MODEL 4
REMARK VINA RESULT:      -9.6      2.886      6.951
REMARK  Name = 71750
REMARK  1 active torsions:
REMARK  status: ('A' for Active; 'I' for Inactive)
REMARK    1  A    between atoms: C_15  and  N_19
REMARK                            x       y       z     vdW  Elec       q    Type
REMARK                         _______ _______ _______ _____ _____    ______ ____
ROOT
ATOM      1  O   UNL     1      32.611 -22.912 -18.176  0.00  0.00    -0.269 OA
ATOM      2  N   UNL     1      34.360 -21.610 -19.054  0.00  0.00    -0.226 N 
ATOM      3  N   UNL     1      36.500 -20.605 -19.341  0.00  0.00    -0.391 NA
ATOM      4  C   UNL     1      33.734 -20.984 -20.204  0.00  0.00    +0.130 C 
ATOM      5  C   UNL     1      35.672 -21.375 -18.720  0.00  0.00    +0.189 C 
ATOM      6  C   UNL     1      35.947 -22.161 -17.531  0.00  0.00    +0.049 C 
ATOM      7  C   UNL     1      34.686 -20.081 -20.939  0.00  0.00    +0.025 C 
ATOM      8  C   UNL     1      34.778 -22.838 -17.203  0.00  0.00    +0.058 C 
ATOM      9  C   UNL     1      33.749 -22.484 -18.186  0.00  0.00    +0.255 C 
ATOM     10  C   UNL     1      36.014 -19.931 -20.484  0.00  0.00    +0.113 C 
ATOM     11  C   UNL     1      34.255 -19.390 -22.077  0.00  0.00    +0.013 C 
ATOM     12  C   UNL     1      37.101 -22.291 -16.787  0.00  0.00    +0.004 C 
ATOM     13  C   UNL     1      34.706 -23.680 -16.112  0.00  0.00    +0.005 C 
ATOM     14  C   UNL     1      36.881 -19.086 -21.185  0.00  0.00    +0.086 C 
ATOM     15  C   UNL     1      35.133 -18.552 -22.765  0.00  0.00    +0.037 C 
ATOM     16  C   UNL     1      36.444 -18.401 -22.319  0.00  0.00    -0.005 C 
ATOM     17  C   UNL     1      37.050 -23.139 -15.677  0.00  0.00    +0.000 C 
ATOM     18  C   UNL     1      35.863 -23.826 -15.344  0.00  0.00    +0.000 C 
ENDROOT
BRANCH  15  19
ATOM     19  N   UNL     1      34.694 -17.858 -23.911  0.00  0.00    -0.357 N 
ATOM     20  H   UNL     1      33.823 -17.399 -23.905  0.00  0.00    +0.142 HD
ATOM     21  H   UNL     1      35.257 -17.833 -24.717  0.00  0.00    +0.142 HD
ENDBRANCH  15  19
TORSDOF 1
ENDMDL
MODEL 5
REMARK VINA RESULT:      -9.5      7.090     10.167
REMARK  Name = 71750
REMARK  1 active torsions:
REMARK  status: ('A' for Active; 'I' for Inactive)
REMARK    1  A    between atoms: C_15  and  N_19
REMARK                            x       y       z     vdW  Elec       q    Type
REMARK                         _______ _______ _______ _____ _____    ______ ____
ROOT
ATOM      1  O   UNL     1      34.466 -16.157 -25.767  0.00  0.00    -0.269 OA
ATOM      2  N   UNL     1      33.712 -15.278 -23.720  0.00  0.00    -0.226 N 
ATOM      3  N   UNL     1      33.179 -15.085 -21.407  0.00  0.00    -0.391 NA
ATOM      4  C   UNL     1      33.261 -13.952 -24.099  0.00  0.00    +0.130 C 
ATOM      5  C   UNL     1      33.637 -15.731 -22.425  0.00  0.00    +0.189 C 
ATOM      6  C   UNL     1      34.173 -17.081 -22.424  0.00  0.00    +0.049 C 
ATOM      7  C   UNL     1      32.723 -13.185 -22.922  0.00  0.00    +0.025 C 
ATOM      8  C   UNL     1      34.549 -17.378 -23.729  0.00  0.00    +0.058 C 
ATOM      9  C   UNL     1      34.252 -16.214 -24.570  0.00  0.00    +0.255 C 
ATOM     10  C   UNL     1      32.705 -13.775 -21.641  0.00  0.00    +0.113 C 
ATOM     11  C   UNL     1      32.240 -11.883 -23.099  0.00  0.00    +0.013 C 
ATOM     12  C   UNL     1      34.329 -17.984 -21.394  0.00  0.00    +0.004 C 
ATOM     13  C   UNL     1      35.101 -18.596 -24.069  0.00  0.00    +0.005 C 
ATOM     14  C   UNL     1      32.200 -13.041 -20.561  0.00  0.00    +0.086 C 
ATOM     15  C   UNL     1      31.740 -11.166 -22.012  0.00  0.00    +0.037 C 
ATOM     16  C   UNL     1      31.720 -11.744 -20.745  0.00  0.00    -0.005 C 
ATOM     17  C   UNL     1      34.886 -19.225 -21.716  0.00  0.00    +0.000 C 
ATOM     18  C   UNL     1      35.268 -19.527 -23.041  0.00  0.00    +0.000 C 
ENDROOT
BRANCH  15  19
ATOM     19  N   UNL     1      31.255  -9.854 -22.196  0.00  0.00    -0.357 N 
ATOM     20  H   UNL     1      30.436  -9.563 -21.735  0.00  0.00    +0.142 HD
ATOM     21  H   UNL     1      31.736  -9.230 -22.786  0.00  0.00    +0.142 HD
ENDBRANCH  15  19
TORSDOF 1
ENDMDL
MODEL 6
REMARK VINA RESULT:      -9.3      1.660      6.074
REMARK  Name = 71750
REMARK  1 active torsions:
REMARK  status: ('A' for Active; 'I' for Inactive)
REMARK    1  A    between atoms: C_15  and  N_19
REMARK                            x       y       z     vdW  Elec       q    Type
REMARK                         _______ _______ _______ _____ _____    ______ ____
ROOT
ATOM      1  O   UNL     1      36.178 -23.590 -16.051  0.00  0.00    -0.269 OA
ATOM      2  N   UNL     1      34.709 -22.543 -17.559  0.00  0.00    -0.226 N 
ATOM      3  N   UNL     1      32.704 -21.811 -18.615  0.00  0.00    -0.391 NA
ATOM      4  C   UNL     1      35.622 -21.899 -18.485  0.00  0.00    +0.130 C 
ATOM      5  C   UNL     1      33.345 -22.449 -17.695  0.00  0.00    +0.189 C 
ATOM      6  C   UNL     1      32.763 -23.208 -16.603  0.00  0.00    +0.049 C 
ATOM      7  C   UNL     1      34.890 -21.151 -19.565  0.00  0.00    +0.025 C 
ATOM      8  C   UNL     1      33.813 -23.727 -15.854  0.00  0.00    +0.058 C 
ATOM      9  C   UNL     1      35.073 -23.299 -16.470  0.00  0.00    +0.255 C 
ATOM     10  C   UNL     1      33.478 -21.137 -19.585  0.00  0.00    +0.113 C 
ATOM     11  C   UNL     1      35.609 -20.466 -20.551  0.00  0.00    +0.013 C 
ATOM     12  C   UNL     1      31.445 -23.438 -16.271  0.00  0.00    +0.004 C 
ATOM     13  C   UNL     1      33.596 -24.504 -14.735  0.00  0.00    +0.005 C 
ATOM     14  C   UNL     1      32.820 -20.433 -20.600  0.00  0.00    +0.086 C 
ATOM     15  C   UNL     1      34.937 -19.769 -21.555  0.00  0.00    +0.037 C 
ATOM     16  C   UNL     1      33.544 -19.753 -21.579  0.00  0.00    -0.005 C 
ATOM     17  C   UNL     1      31.201 -24.223 -15.141  0.00  0.00    +0.000 C 
ATOM     18  C   UNL     1      32.267 -24.751 -14.380  0.00  0.00    +0.000 C 
ENDROOT
BRANCH  15  19
ATOM     19  N   UNL     1      35.667 -19.081 -22.546  0.00  0.00    -0.357 N 
ATOM     20  H   UNL     1      35.229 -18.385 -23.087  0.00  0.00    +0.142 HD
ATOM     21  H   UNL     1      36.616 -19.296 -22.697  0.00  0.00    +0.142 HD
ENDBRANCH  15  19
TORSDOF 1
ENDMDL
MODEL 7
REMARK VINA RESULT:      -9.3      1.777      6.124
REMARK  Name = 71750
REMARK  1 active torsions:
REMARK  status: ('A' for Active; 'I' for Inactive)
REMARK    1  A    between atoms: C_15  and  N_19
REMARK                            x       y       z     vdW  Elec       q    Type
REMARK                         _______ _______ _______ _____ _____    ______ ____
ROOT
ATOM      1  O   UNL     1      34.159 -24.488 -14.168  0.00  0.00    -0.269 OA
ATOM      2  N   UNL     1      33.592 -23.383 -16.164  0.00  0.00    -0.226 N 
ATOM      3  N   UNL     1      32.311 -22.467 -17.950  0.00  0.00    -0.391 NA
ATOM      4  C   UNL     1      34.888 -22.970 -16.669  0.00  0.00    +0.130 C 
ATOM      5  C   UNL     1      32.426 -23.103 -16.834  0.00  0.00    +0.189 C 
ATOM      6  C   UNL     1      31.345 -23.662 -16.042  0.00  0.00    +0.049 C 
ATOM      7  C   UNL     1      34.772 -22.227 -17.971  0.00  0.00    +0.025 C 
ATOM      8  C   UNL     1      31.917 -24.258 -14.923  0.00  0.00    +0.058 C 
ATOM      9  C   UNL     1      33.371 -24.079 -14.999  0.00  0.00    +0.255 C 
ATOM     10  C   UNL     1      33.504 -22.008 -18.551  0.00  0.00    +0.113 C 
ATOM     11  C   UNL     1      35.924 -21.751 -18.609  0.00  0.00    +0.013 C 
ATOM     12  C   UNL     1      29.983 -23.664 -16.255  0.00  0.00    +0.004 C 
ATOM     13  C   UNL     1      31.153 -24.886 -13.961  0.00  0.00    +0.005 C 
ATOM     14  C   UNL     1      33.422 -21.313 -19.763  0.00  0.00    +0.086 C 
ATOM     15  C   UNL     1      35.824 -21.060 -19.816  0.00  0.00    +0.037 C 
ATOM     16  C   UNL     1      34.574 -20.842 -20.393  0.00  0.00    -0.005 C 
ATOM     17  C   UNL     1      29.190 -24.295 -15.293  0.00  0.00    +0.000 C 
ATOM     18  C   UNL     1      29.769 -24.900 -14.157  0.00  0.00    +0.000 C 
ENDROOT
BRANCH  15  19
ATOM     19  N   UNL     1      36.987 -20.583 -20.454  0.00  0.00    -0.357 N 
ATOM     20  H   UNL     1      37.805 -21.132 -20.463  0.00  0.00    +0.142 HD
ATOM     21  H   UNL     1      36.982 -19.701 -20.891  0.00  0.00    +0.142 HD
ENDBRANCH  15  19
TORSDOF 1
ENDMDL
MODEL 8
REMARK VINA RESULT:      -9.2      3.288      5.681
REMARK  Name = 71750
REMARK  1 active torsions:
REMARK  status: ('A' for Active; 'I' for Inactive)
REMARK    1  A    between atoms: C_15  and  N_19
REMARK                            x       y       z     vdW  Elec       q    Type
REMARK                         _______ _______ _______ _____ _____    ______ ____
ROOT
ATOM      1  O   UNL     1      36.661 -23.239 -16.280  0.00  0.00    -0.269 OA
ATOM      2  N   UNL     1      34.594 -23.520 -15.194  0.00  0.00    -0.226 N 
ATOM      3  N   UNL     1      32.974 -23.994 -13.515  0.00  0.00    -0.391 NA
ATOM      4  C   UNL     1      33.646 -23.177 -16.238  0.00  0.00    +0.130 C 
ATOM      5  C   UNL     1      34.189 -23.895 -13.936  0.00  0.00    +0.189 C 
ATOM      6  C   UNL     1      35.394 -24.159 -13.171  0.00  0.00    +0.049 C 
ATOM      7  C   UNL     1      32.224 -23.288 -15.763  0.00  0.00    +0.025 C 
ATOM      8  C   UNL     1      36.477 -23.928 -14.012  0.00  0.00    +0.058 C 
ATOM      9  C   UNL     1      35.963 -23.515 -15.322  0.00  0.00    +0.255 C 
ATOM     10  C   UNL     1      31.949 -23.687 -14.437  0.00  0.00    +0.113 C 
ATOM     11  C   UNL     1      31.170 -22.995 -16.637  0.00  0.00    +0.013 C 
ATOM     12  C   UNL     1      35.557 -24.562 -11.863  0.00  0.00    +0.004 C 
ATOM     13  C   UNL     1      37.779 -24.091 -13.585  0.00  0.00    +0.005 C 
ATOM     14  C   UNL     1      30.617 -23.782 -14.018  0.00  0.00    +0.086 C 
ATOM     15  C   UNL     1      29.849 -23.095 -16.203  0.00  0.00    +0.037 C 
ATOM     16  C   UNL     1      29.573 -23.488 -14.895  0.00  0.00    -0.005 C 
ATOM     17  C   UNL     1      36.868 -24.733 -11.409  0.00  0.00    +0.000 C 
ATOM     18  C   UNL     1      37.968 -24.500 -12.262  0.00  0.00    +0.000 C 
ENDROOT
BRANCH  15  19
ATOM     19  N   UNL     1      28.791 -22.799 -17.088  0.00  0.00    -0.357 N 
ATOM     20  H   UNL     1      28.635 -23.367 -17.876  0.00  0.00    +0.142 HD
ATOM     21  H   UNL     1      28.209 -22.023 -16.917  0.00  0.00    +0.142 HD
ENDBRANCH  15  19
TORSDOF 1
ENDMDL
MODEL 9
REMARK VINA RESULT:      -9.0      3.430      6.148
REMARK  Name = 71750
REMARK  1 active torsions:
REMARK  status: ('A' for Active; 'I' for Inactive)
REMARK    1  A    between atoms: C_15  and  N_19
REMARK                            x       y       z     vdW  Elec       q    Type
REMARK                         _______ _______ _______ _____ _____    ______ ____
ROOT
ATOM      1  O   UNL     1      33.690 -23.012 -17.840  0.00  0.00    -0.269 OA
ATOM      2  N   UNL     1      34.435 -23.732 -15.729  0.00  0.00    -0.226 N 
ATOM      3  N   UNL     1      34.440 -24.362 -13.432  0.00  0.00    -0.391 NA
ATOM      4  C   UNL     1      35.854 -23.939 -15.954  0.00  0.00    +0.130 C 
ATOM      5  C   UNL     1      33.851 -23.956 -14.506  0.00  0.00    +0.189 C 
ATOM      6  C   UNL     1      32.440 -23.649 -14.654  0.00  0.00    +0.049 C 
ATOM      7  C   UNL     1      36.556 -24.411 -14.712  0.00  0.00    +0.025 C 
ATOM      8  C   UNL     1      32.239 -23.250 -15.971  0.00  0.00    +0.058 C 
ATOM      9  C   UNL     1      33.528 -23.303 -16.669  0.00  0.00    +0.255 C 
ATOM     10  C   UNL     1      35.830 -24.601 -13.516  0.00  0.00    +0.113 C 
ATOM     11  C   UNL     1      37.933 -24.663 -14.740  0.00  0.00    +0.013 C 
ATOM     12  C   UNL     1      31.408 -23.704 -13.742  0.00  0.00    +0.004 C 
ATOM     13  C   UNL     1      30.995 -22.887 -16.441  0.00  0.00    +0.005 C 
ATOM     14  C   UNL     1      36.506 -25.042 -12.373  0.00  0.00    +0.086 C 
ATOM     15  C   UNL     1      38.591 -25.102 -13.592  0.00  0.00    +0.037 C 
ATOM     16  C   UNL     1      37.878 -25.291 -12.410  0.00  0.00    -0.005 C 
ATOM     17  C   UNL     1      30.137 -23.339 -14.197  0.00  0.00    +0.000 C 
ATOM     18  C   UNL     1      29.933 -22.935 -15.533  0.00  0.00    +0.000 C 
ENDROOT
BRANCH  15  19
ATOM     19  N   UNL     1      39.978 -25.355 -13.627  0.00  0.00    -0.357 N 
ATOM     20  H   UNL     1      40.565 -24.806 -14.195  0.00  0.00    +0.142 HD
ATOM     21  H   UNL     1      40.360 -26.080 -13.082  0.00  0.00    +0.142 HD
ENDBRANCH  15  19
TORSDOF 1
ENDMDL
