MODEL 1
REMARK VINA RESULT:      -7.8      0.000      0.000
REMARK  Name = 157692
REMARK  14 active torsions:
REMARK  status: ('A' for Active; 'I' for Inactive)
REMARK    1  A    between atoms: O_1  and  C_2
REMARK    2  A    between atoms: O_1  and  C_13
REMARK    3  A    between atoms: C_2  and  C_3
REMARK    4  A    between atoms: C_3  and  C_4
REMARK    5  A    between atoms: C_4  and  C_5
REMARK    6  A    between atoms: C_5  and  C_6
REMARK    7  A    between atoms: C_6  and  C_10
REMARK    8  A    between atoms: C_10  and  O_11
REMARK    9  A    between atoms: C_13  and  C_14
REMARK   10  A    between atoms: C_14  and  C_15
REMARK   11  A    between atoms: C_15  and  C_16
REMARK   12  A    between atoms: C_16  and  C_17
REMARK   13  A    between atoms: C_17  and  C_21
REMARK   14  A    between atoms: C_21  and  O_22
REMARK                            x       y       z     vdW  Elec       q    Type
REMARK                         _______ _______ _______ _____ _____    ______ ____
ROOT
ATOM      1  O   UNL     1      34.656 -22.720 -18.745  0.00  0.00    -0.354 OA
ENDROOT
BRANCH   1   2
ATOM      2  C   UNL     1      34.623 -21.635 -19.662  0.00  0.00    +0.142 C 
BRANCH   2   3
ATOM      3  C   UNL     1      33.247 -20.988 -19.611  0.00  0.00    +0.032 C 
BRANCH   3   4
ATOM      4  C   UNL     1      33.100 -19.888 -20.662  0.00  0.00    +0.003 C 
BRANCH   4   5
ATOM      5  C   UNL     1      34.265 -19.920 -21.662  0.00  0.00    +0.011 C 
BRANCH   5   6
ATOM      6  C   UNL     1      34.998 -18.565 -21.857  0.00  0.00    +0.089 C 
ATOM      7  C   UNL     1      34.252 -17.436 -21.128  0.00  0.00    +0.011 C 
ATOM      8  C   UNL     1      36.418 -18.688 -21.279  0.00  0.00    +0.011 C 
BRANCH   6  10
ATOM      9  O   UNL     1      34.888 -19.045 -24.256  0.00  0.00    -0.250 OA
ATOM     10  C   UNL     1      35.153 -18.265 -23.352  0.00  0.00    +0.313 C 
BRANCH  10  11
ATOM     11  O   UNL     1      35.687 -17.037 -23.574  0.00  0.00    -0.480 OA
ATOM     12  H   UNL     1      35.385 -16.518 -24.294  0.00  0.00    +0.295 HD
ENDBRANCH  10  11
ENDBRANCH   6  10
ENDBRANCH   5   6
ENDBRANCH   4   5
ENDBRANCH   3   4
ENDBRANCH   2   3
ENDBRANCH   1   2
BRANCH   1  13
ATOM     13  C   UNL     1      33.416 -22.870 -18.068  0.00  0.00    +0.142 C 
BRANCH  13  14
ATOM     14  C   UNL     1      33.684 -23.353 -16.650  0.00  0.00    +0.032 C 
BRANCH  14  15
ATOM     15  C   UNL     1      32.430 -23.274 -15.780  0.00  0.00    +0.003 C 
BRANCH  15  16
ATOM     16  C   UNL     1      31.179 -23.024 -16.634  0.00  0.00    +0.011 C 
BRANCH  16  17
ATOM     17  C   UNL     1      29.845 -23.499 -15.997  0.00  0.00    +0.089 C 
ATOM     18  C   UNL     1      29.863 -25.020 -15.774  0.00  0.00    +0.011 C 
ATOM     19  C   UNL     1      29.670 -22.793 -14.642  0.00  0.00    +0.011 C 
BRANCH  17  21
ATOM     20  O   UNL     1      28.347 -21.911 -17.107  0.00  0.00    -0.250 OA
ATOM     21  C   UNL     1      28.665 -23.070 -16.874  0.00  0.00    +0.313 C 
BRANCH  21  22
ATOM     22  O   UNL     1      27.951 -24.131 -17.328  0.00  0.00    -0.480 OA
ATOM     23  H   UNL     1      27.416 -24.043 -18.092  0.00  0.00    +0.295 HD
ENDBRANCH  21  22
ENDBRANCH  17  21
ENDBRANCH  16  17
ENDBRANCH  15  16
ENDBRANCH  14  15
ENDBRANCH  13  14
ENDBRANCH   1  13
TORSDOF 14
ENDMDL
MODEL 2
REMARK VINA RESULT:      -7.7      1.157      1.996
REMARK  Name = 157692
REMARK  14 active torsions:
REMARK  status: ('A' for Active; 'I' for Inactive)
REMARK    1  A    between atoms: O_1  and  C_2
REMARK    2  A    between atoms: O_1  and  C_13
REMARK    3  A    between atoms: C_2  and  C_3
REMARK    4  A    between atoms: C_3  and  C_4
REMARK    5  A    between atoms: C_4  and  C_5
REMARK    6  A    between atoms: C_5  and  C_6
REMARK    7  A    between atoms: C_6  and  C_10
REMARK    8  A    between atoms: C_10  and  O_11
REMARK    9  A    between atoms: C_13  and  C_14
REMARK   10  A    between atoms: C_14  and  C_15
REMARK   11  A    between atoms: C_15  and  C_16
REMARK   12  A    between atoms: C_16  and  C_17
REMARK   13  A    between atoms: C_17  and  C_21
REMARK   14  A    between atoms: C_21  and  O_22
REMARK                            x       y       z     vdW  Elec       q    Type
REMARK                         _______ _______ _______ _____ _____    ______ ____
ROOT
ATOM      1  O   UNL     1      34.666 -22.738 -18.849  0.00  0.00    -0.354 OA
ENDROOT
BRANCH   1   2
ATOM      2  C   UNL     1      35.677 -22.072 -18.105  0.00  0.00    +0.142 C 
BRANCH   2   3
ATOM      3  C   UNL     1      36.546 -21.271 -19.063  0.00  0.00    +0.032 C 
BRANCH   3   4
ATOM      4  C   UNL     1      35.821 -20.988 -20.379  0.00  0.00    +0.003 C 
BRANCH   4   5
ATOM      5  C   UNL     1      36.014 -19.528 -20.814  0.00  0.00    +0.011 C 
BRANCH   5   6
ATOM      6  C   UNL     1      34.797 -18.896 -21.542  0.00  0.00    +0.089 C 
ATOM      7  C   UNL     1      34.791 -19.290 -23.028  0.00  0.00    +0.011 C 
ATOM      8  C   UNL     1      33.507 -19.408 -20.879  0.00  0.00    +0.011 C 
BRANCH   6  10
ATOM      9  O   UNL     1      35.270 -16.786 -20.392  0.00  0.00    -0.250 OA
ATOM     10  C   UNL     1      34.812 -17.374 -21.363  0.00  0.00    +0.313 C 
BRANCH  10  11
ATOM     11  O   UNL     1      34.196 -16.732 -22.387  0.00  0.00    -0.480 OA
ATOM     12  H   UNL     1      34.606 -16.689 -23.228  0.00  0.00    +0.295 HD
ENDBRANCH  10  11
ENDBRANCH   6  10
ENDBRANCH   5   6
ENDBRANCH   4   5
ENDBRANCH   3   4
ENDBRANCH   2   3
ENDBRANCH   1   2
BRANCH   1  13
ATOM     13  C   UNL     1      33.444 -22.806 -18.126  0.00  0.00    +0.142 C 
BRANCH  13  14
ATOM     14  C   UNL     1      33.742 -23.217 -16.692  0.00  0.00    +0.032 C 
BRANCH  14  15
ATOM     15  C   UNL     1      32.474 -23.242 -15.838  0.00  0.00    +0.003 C 
BRANCH  15  16
ATOM     16  C   UNL     1      31.215 -23.260 -16.716  0.00  0.00    +0.011 C 
BRANCH  16  17
ATOM     17  C   UNL     1      29.902 -23.626 -15.973  0.00  0.00    +0.089 C 
ATOM     18  C   UNL     1      29.900 -25.112 -15.578  0.00  0.00    +0.011 C 
ATOM     19  C   UNL     1      29.802 -22.766 -14.701  0.00  0.00    +0.011 C 
BRANCH  17  21
ATOM     20  O   UNL     1      27.926 -24.084 -17.345  0.00  0.00    -0.250 OA
ATOM     21  C   UNL     1      28.692 -23.271 -16.842  0.00  0.00    +0.313 C 
BRANCH  21  22
ATOM     22  O   UNL     1      28.588 -21.936 -17.057  0.00  0.00    -0.480 OA
ATOM     23  H   UNL     1      29.220 -21.352 -16.687  0.00  0.00    +0.295 HD
ENDBRANCH  21  22
ENDBRANCH  17  21
ENDBRANCH  16  17
ENDBRANCH  15  16
ENDBRANCH  14  15
ENDBRANCH  13  14
ENDBRANCH   1  13
TORSDOF 14
ENDMDL
MODEL 3
REMARK VINA RESULT:      -7.7      3.129      8.856
REMARK  Name = 157692
REMARK  14 active torsions:
REMARK  status: ('A' for Active; 'I' for Inactive)
REMARK    1  A    between atoms: O_1  and  C_2
REMARK    2  A    between atoms: O_1  and  C_13
REMARK    3  A    between atoms: C_2  and  C_3
REMARK    4  A    between atoms: C_3  and  C_4
REMARK    5  A    between atoms: C_4  and  C_5
REMARK    6  A    between atoms: C_5  and  C_6
REMARK    7  A    between atoms: C_6  and  C_10
REMARK    8  A    between atoms: C_10  and  O_11
REMARK    9  A    between atoms: C_13  and  C_14
REMARK   10  A    between atoms: C_14  and  C_15
REMARK   11  A    between atoms: C_15  and  C_16
REMARK   12  A    between atoms: C_16  and  C_17
REMARK   13  A    between atoms: C_17  and  C_21
REMARK   14  A    between atoms: C_21  and  O_22
REMARK                            x       y       z     vdW  Elec       q    Type
REMARK                         _______ _______ _______ _____ _____    ______ ____
ROOT
ATOM      1  O   UNL     1      32.541 -22.743 -18.034  0.00  0.00    -0.354 OA
ENDROOT
BRANCH   1   2
ATOM      2  C   UNL     1      32.963 -23.341 -16.816  0.00  0.00    +0.142 C 
BRANCH   2   3
ATOM      3  C   UNL     1      34.470 -23.179 -16.684  0.00  0.00    +0.032 C 
BRANCH   3   4
ATOM      4  C   UNL     1      34.951 -23.509 -15.271  0.00  0.00    +0.003 C 
BRANCH   4   5
ATOM      5  C   UNL     1      35.368 -24.982 -15.159  0.00  0.00    +0.011 C 
BRANCH   5   6
ATOM      6  C   UNL     1      36.794 -25.219 -14.591  0.00  0.00    +0.089 C 
ATOM      7  C   UNL     1      37.730 -24.063 -14.982  0.00  0.00    +0.011 C 
ATOM      8  C   UNL     1      36.705 -25.299 -13.058  0.00  0.00    +0.011 C 
BRANCH   6  10
ATOM      9  O   UNL     1      38.292 -27.156 -14.591  0.00  0.00    -0.250 OA
ATOM     10  C   UNL     1      37.333 -26.569 -15.075  0.00  0.00    +0.313 C 
BRANCH  10  11
ATOM     11  O   UNL     1      36.662 -27.029 -16.160  0.00  0.00    -0.480 OA
ATOM     12  H   UNL     1      36.368 -27.919 -16.187  0.00  0.00    +0.295 HD
ENDBRANCH  10  11
ENDBRANCH   6  10
ENDBRANCH   5   6
ENDBRANCH   4   5
ENDBRANCH   3   4
ENDBRANCH   2   3
ENDBRANCH   1   2
BRANCH   1  13
ATOM     13  C   UNL     1      33.647 -22.318 -18.818  0.00  0.00    +0.142 C 
BRANCH  13  14
ATOM     14  C   UNL     1      33.198 -21.186 -19.730  0.00  0.00    +0.032 C 
BRANCH  14  15
ATOM     15  C   UNL     1      34.387 -20.393 -20.273  0.00  0.00    +0.003 C 
BRANCH  15  16
ATOM     16  C   UNL     1      33.920 -19.249 -21.184  0.00  0.00    +0.011 C 
BRANCH  16  17
ATOM     17  C   UNL     1      35.060 -18.394 -21.800  0.00  0.00    +0.089 C 
ATOM     18  C   UNL     1      36.422 -18.813 -21.223  0.00  0.00    +0.011 C 
ATOM     19  C   UNL     1      35.069 -18.609 -23.323  0.00  0.00    +0.011 C 
BRANCH  17  21
ATOM     20  O   UNL     1      34.298 -16.143 -22.392  0.00  0.00    -0.250 OA
ATOM     21  C   UNL     1      34.782 -16.906 -21.566  0.00  0.00    +0.313 C 
BRANCH  21  22
ATOM     22  O   UNL     1      35.196 -16.493 -20.342  0.00  0.00    -0.480 OA
ATOM     23  H   UNL     1      35.324 -17.117 -19.655  0.00  0.00    +0.295 HD
ENDBRANCH  21  22
ENDBRANCH  17  21
ENDBRANCH  16  17
ENDBRANCH  15  16
ENDBRANCH  14  15
ENDBRANCH  13  14
ENDBRANCH   1  13
TORSDOF 14
ENDMDL
MODEL 4
REMARK VINA RESULT:      -7.6      0.579      8.513
REMARK  Name = 157692
REMARK  14 active torsions:
REMARK  status: ('A' for Active; 'I' for Inactive)
REMARK    1  A    between atoms: O_1  and  C_2
REMARK    2  A    between atoms: O_1  and  C_13
REMARK    3  A    between atoms: C_2  and  C_3
REMARK    4  A    between atoms: C_3  and  C_4
REMARK    5  A    between atoms: C_4  and  C_5
REMARK    6  A    between atoms: C_5  and  C_6
REMARK    7  A    between atoms: C_6  and  C_10
REMARK    8  A    between atoms: C_10  and  O_11
REMARK    9  A    between atoms: C_13  and  C_14
REMARK   10  A    between atoms: C_14  and  C_15
REMARK   11  A    between atoms: C_15  and  C_16
REMARK   12  A    between atoms: C_16  and  C_17
REMARK   13  A    between atoms: C_17  and  C_21
REMARK   14  A    between atoms: C_21  and  O_22
REMARK                            x       y       z     vdW  Elec       q    Type
REMARK                         _______ _______ _______ _____ _____    ______ ____
ROOT
ATOM      1  O   UNL     1      34.683 -22.707 -18.983  0.00  0.00    -0.354 OA
ENDROOT
BRANCH   1   2
ATOM      2  C   UNL     1      33.535 -22.834 -18.154  0.00  0.00    +0.142 C 
BRANCH   2   3
ATOM      3  C   UNL     1      33.985 -23.169 -16.740  0.00  0.00    +0.032 C 
BRANCH   3   4
ATOM      4  C   UNL     1      32.795 -23.450 -15.822  0.00  0.00    +0.003 C 
BRANCH   4   5
ATOM      5  C   UNL     1      31.466 -23.161 -16.534  0.00  0.00    +0.011 C 
BRANCH   5   6
ATOM      6  C   UNL     1      30.195 -23.442 -15.689  0.00  0.00    +0.089 C 
ATOM      7  C   UNL     1      29.856 -24.942 -15.702  0.00  0.00    +0.011 C 
ATOM      8  C   UNL     1      30.460 -22.997 -14.240  0.00  0.00    +0.011 C 
BRANCH   6  10
ATOM      9  O   UNL     1      28.690 -22.502 -17.377  0.00  0.00    -0.250 OA
ATOM     10  C   UNL     1      29.026 -22.596 -16.204  0.00  0.00    +0.313 C 
BRANCH  10  11
ATOM     11  O   UNL     1      28.424 -21.895 -15.210  0.00  0.00    -0.480 OA
ATOM     12  H   UNL     1      28.810 -21.865 -14.357  0.00  0.00    +0.295 HD
ENDBRANCH  10  11
ENDBRANCH   6  10
ENDBRANCH   5   6
ENDBRANCH   4   5
ENDBRANCH   3   4
ENDBRANCH   2   3
ENDBRANCH   1   2
BRANCH   1  13
ATOM     13  C   UNL     1      34.678 -21.480 -19.700  0.00  0.00    +0.142 C 
BRANCH  13  14
ATOM     14  C   UNL     1      33.246 -20.974 -19.799  0.00  0.00    +0.032 C 
BRANCH  14  15
ATOM     15  C   UNL     1      33.154 -19.704 -20.646  0.00  0.00    +0.003 C 
BRANCH  15  16
ATOM     16  C   UNL     1      34.204 -19.710 -21.766  0.00  0.00    +0.011 C 
BRANCH  16  17
ATOM     17  C   UNL     1      35.062 -18.419 -21.866  0.00  0.00    +0.089 C 
ATOM     18  C   UNL     1      34.437 -17.289 -21.032  0.00  0.00    +0.011 C 
ATOM     19  C   UNL     1      36.471 -18.723 -21.330  0.00  0.00    +0.011 C 
BRANCH  17  21
ATOM     20  O   UNL     1      35.051 -18.755 -24.292  0.00  0.00    -0.250 OA
ATOM     21  C   UNL     1      35.226 -18.013 -23.334  0.00  0.00    +0.313 C 
BRANCH  21  22
ATOM     22  O   UNL     1      35.656 -16.733 -23.467  0.00  0.00    -0.480 OA
ATOM     23  H   UNL     1      36.541 -16.512 -23.253  0.00  0.00    +0.295 HD
ENDBRANCH  21  22
ENDBRANCH  17  21
ENDBRANCH  16  17
ENDBRANCH  15  16
ENDBRANCH  14  15
ENDBRANCH  13  14
ENDBRANCH   1  13
TORSDOF 14
ENDMDL
MODEL 5
REMARK VINA RESULT:      -7.6      1.198      8.323
REMARK  Name = 157692
REMARK  14 active torsions:
REMARK  status: ('A' for Active; 'I' for Inactive)
REMARK    1  A    between atoms: O_1  and  C_2
REMARK    2  A    between atoms: O_1  and  C_13
REMARK    3  A    between atoms: C_2  and  C_3
REMARK    4  A    between atoms: C_3  and  C_4
REMARK    5  A    between atoms: C_4  and  C_5
REMARK    6  A    between atoms: C_5  and  C_6
REMARK    7  A    between atoms: C_6  and  C_10
REMARK    8  A    between atoms: C_10  and  O_11
REMARK    9  A    between atoms: C_13  and  C_14
REMARK   10  A    between atoms: C_14  and  C_15
REMARK   11  A    between atoms: C_15  and  C_16
REMARK   12  A    between atoms: C_16  and  C_17
REMARK   13  A    between atoms: C_17  and  C_21
REMARK   14  A    between atoms: C_21  and  O_22
REMARK                            x       y       z     vdW  Elec       q    Type
REMARK                         _______ _______ _______ _____ _____    ______ ____
ROOT
ATOM      1  O   UNL     1      35.674 -22.808 -17.162  0.00  0.00    -0.354 OA
ENDROOT
BRANCH   1   2
ATOM      2  C   UNL     1      34.680 -23.241 -16.242  0.00  0.00    +0.142 C 
BRANCH   2   3
ATOM      3  C   UNL     1      33.338 -23.295 -16.957  0.00  0.00    +0.032 C 
BRANCH   3   4
ATOM      4  C   UNL     1      32.171 -23.210 -15.973  0.00  0.00    +0.003 C 
BRANCH   4   5
ATOM      5  C   UNL     1      30.863 -22.857 -16.696  0.00  0.00    +0.011 C 
BRANCH   5   6
ATOM      6  C   UNL     1      29.571 -23.343 -15.986  0.00  0.00    +0.089 C 
ATOM      7  C   UNL     1      29.667 -24.840 -15.652  0.00  0.00    +0.011 C 
ATOM      8  C   UNL     1      29.397 -22.545 -14.682  0.00  0.00    +0.011 C 
BRANCH   6  10
ATOM      9  O   UNL     1      27.749 -23.857 -17.540  0.00  0.00    -0.250 OA
ATOM     10  C   UNL     1      28.348 -23.037 -16.857  0.00  0.00    +0.313 C 
BRANCH  10  11
ATOM     11  O   UNL     1      28.026 -21.719 -16.844  0.00  0.00    -0.480 OA
ATOM     12  H   UNL     1      27.230 -21.435 -16.439  0.00  0.00    +0.295 HD
ENDBRANCH  10  11
ENDBRANCH   6  10
ENDBRANCH   5   6
ENDBRANCH   4   5
ENDBRANCH   3   4
ENDBRANCH   2   3
ENDBRANCH   1   2
BRANCH   1  13
ATOM     13  C   UNL     1      35.102 -22.107 -18.258  0.00  0.00    +0.142 C 
BRANCH  13  14
ATOM     14  C   UNL     1      36.203 -21.346 -18.983  0.00  0.00    +0.032 C 
BRANCH  14  15
ATOM     15  C   UNL     1      35.816 -21.037 -20.429  0.00  0.00    +0.003 C 
BRANCH  15  16
ATOM     16  C   UNL     1      36.141 -19.580 -20.789  0.00  0.00    +0.011 C 
BRANCH  16  17
ATOM     17  C   UNL     1      35.016 -18.826 -21.549  0.00  0.00    +0.089 C 
ATOM     18  C   UNL     1      34.984 -19.249 -23.027  0.00  0.00    +0.011 C 
ATOM     19  C   UNL     1      33.666 -19.171 -20.896  0.00  0.00    +0.011 C 
BRANCH  17  21
ATOM     20  O   UNL     1      35.186 -16.706 -20.335  0.00  0.00    -0.250 OA
ATOM     21  C   UNL     1      35.205 -17.314 -21.398  0.00  0.00    +0.313 C 
BRANCH  21  22
ATOM     22  O   UNL     1      35.338 -16.691 -22.596  0.00  0.00    -0.480 OA
ATOM     23  H   UNL     1      35.274 -15.758 -22.648  0.00  0.00    +0.295 HD
ENDBRANCH  21  22
ENDBRANCH  17  21
ENDBRANCH  16  17
ENDBRANCH  15  16
ENDBRANCH  14  15
ENDBRANCH  13  14
ENDBRANCH   1  13
TORSDOF 14
ENDMDL
MODEL 6
REMARK VINA RESULT:      -7.5      4.271      6.651
REMARK  Name = 157692
REMARK  14 active torsions:
REMARK  status: ('A' for Active; 'I' for Inactive)
REMARK    1  A    between atoms: O_1  and  C_2
REMARK    2  A    between atoms: O_1  and  C_13
REMARK    3  A    between atoms: C_2  and  C_3
REMARK    4  A    between atoms: C_3  and  C_4
REMARK    5  A    between atoms: C_4  and  C_5
REMARK    6  A    between atoms: C_5  and  C_6
REMARK    7  A    between atoms: C_6  and  C_10
REMARK    8  A    between atoms: C_10  and  O_11
REMARK    9  A    between atoms: C_13  and  C_14
REMARK   10  A    between atoms: C_14  and  C_15
REMARK   11  A    between atoms: C_15  and  C_16
REMARK   12  A    between atoms: C_16  and  C_17
REMARK   13  A    between atoms: C_17  and  C_21
REMARK   14  A    between atoms: C_21  and  O_22
REMARK                            x       y       z     vdW  Elec       q    Type
REMARK                         _______ _______ _______ _____ _____    ______ ____
ROOT
ATOM      1  O   UNL     1      35.527 -22.503 -17.511  0.00  0.00    -0.354 OA
ENDROOT
BRANCH   1   2
ATOM      2  C   UNL     1      35.200 -22.043 -18.815  0.00  0.00    +0.142 C 
BRANCH   2   3
ATOM      3  C   UNL     1      36.307 -21.121 -19.304  0.00  0.00    +0.032 C 
BRANCH   3   4
ATOM      4  C   UNL     1      36.117 -20.741 -20.773  0.00  0.00    +0.003 C 
BRANCH   4   5
ATOM      5  C   UNL     1      36.196 -19.220 -20.966  0.00  0.00    +0.011 C 
BRANCH   5   6
ATOM      6  C   UNL     1      35.028 -18.602 -21.782  0.00  0.00    +0.089 C 
ATOM      7  C   UNL     1      34.999 -19.179 -23.207  0.00  0.00    +0.011 C 
ATOM      8  C   UNL     1      33.704 -18.936 -21.075  0.00  0.00    +0.011 C 
BRANCH   6  10
ATOM      9  O   UNL     1      34.715 -16.328 -20.927  0.00  0.00    -0.250 OA
ATOM     10  C   UNL     1      35.149 -17.074 -21.794  0.00  0.00    +0.313 C 
BRANCH  10  11
ATOM     11  O   UNL     1      35.747 -16.618 -22.924  0.00  0.00    -0.480 OA
ATOM     12  H   UNL     1      35.793 -17.164 -23.684  0.00  0.00    +0.295 HD
ENDBRANCH  10  11
ENDBRANCH   6  10
ENDBRANCH   5   6
ENDBRANCH   4   5
ENDBRANCH   3   4
ENDBRANCH   2   3
ENDBRANCH   1   2
BRANCH   1  13
ATOM     13  C   UNL     1      36.841 -22.113 -17.133  0.00  0.00    +0.142 C 
BRANCH  13  14
ATOM     14  C   UNL     1      36.993 -22.287 -15.629  0.00  0.00    +0.032 C 
BRANCH  14  15
ATOM     15  C   UNL     1      37.076 -23.763 -15.238  0.00  0.00    +0.003 C 
BRANCH  15  16
ATOM     16  C   UNL     1      38.520 -24.276 -15.321  0.00  0.00    +0.011 C 
BRANCH  16  17
ATOM     17  C   UNL     1      38.847 -25.468 -14.380  0.00  0.00    +0.089 C 
ATOM     18  C   UNL     1      38.759 -25.034 -12.907  0.00  0.00    +0.011 C 
ATOM     19  C   UNL     1      37.826 -26.590 -14.637  0.00  0.00    +0.011 C 
BRANCH  17  21
ATOM     20  O   UNL     1      41.030 -26.469 -13.900  0.00  0.00    -0.250 OA
ATOM     21  C   UNL     1      40.226 -26.039 -14.719  0.00  0.00    +0.313 C 
BRANCH  21  22
ATOM     22  O   UNL     1      40.502 -25.962 -16.045  0.00  0.00    -0.480 OA
ATOM     23  H   UNL     1      41.064 -26.598 -16.444  0.00  0.00    +0.295 HD
ENDBRANCH  21  22
ENDBRANCH  17  21
ENDBRANCH  16  17
ENDBRANCH  15  16
ENDBRANCH  14  15
ENDBRANCH  13  14
ENDBRANCH   1  13
TORSDOF 14
ENDMDL
MODEL 7
REMARK VINA RESULT:      -7.5      4.447      7.960
REMARK  Name = 157692
REMARK  14 active torsions:
REMARK  status: ('A' for Active; 'I' for Inactive)
REMARK    1  A    between atoms: O_1  and  C_2
REMARK    2  A    between atoms: O_1  and  C_13
REMARK    3  A    between atoms: C_2  and  C_3
REMARK    4  A    between atoms: C_3  and  C_4
REMARK    5  A    between atoms: C_4  and  C_5
REMARK    6  A    between atoms: C_5  and  C_6
REMARK    7  A    between atoms: C_6  and  C_10
REMARK    8  A    between atoms: C_10  and  O_11
REMARK    9  A    between atoms: C_13  and  C_14
REMARK   10  A    between atoms: C_14  and  C_15
REMARK   11  A    between atoms: C_15  and  C_16
REMARK   12  A    between atoms: C_16  and  C_17
REMARK   13  A    between atoms: C_17  and  C_21
REMARK   14  A    between atoms: C_21  and  O_22
REMARK                            x       y       z     vdW  Elec       q    Type
REMARK                         _______ _______ _______ _____ _____    ______ ____
ROOT
ATOM      1  O   UNL     1      35.220 -22.927 -17.268  0.00  0.00    -0.354 OA
ENDROOT
BRANCH   1   2
ATOM      2  C   UNL     1      33.815 -23.131 -17.211  0.00  0.00    +0.142 C 
BRANCH   2   3
ATOM      3  C   UNL     1      33.428 -23.496 -15.786  0.00  0.00    +0.032 C 
BRANCH   3   4
ATOM      4  C   UNL     1      32.040 -22.967 -15.425  0.00  0.00    +0.003 C 
BRANCH   4   5
ATOM      5  C   UNL     1      30.972 -23.523 -16.377  0.00  0.00    +0.011 C 
BRANCH   5   6
ATOM      6  C   UNL     1      29.542 -23.611 -15.778  0.00  0.00    +0.089 C 
ATOM      7  C   UNL     1      29.292 -25.004 -15.177  0.00  0.00    +0.011 C 
ATOM      8  C   UNL     1      29.407 -22.552 -14.671  0.00  0.00    +0.011 C 
BRANCH   6  10
ATOM      9  O   UNL     1      27.825 -24.082 -17.461  0.00  0.00    -0.250 OA
ATOM     10  C   UNL     1      28.503 -23.266 -16.850  0.00  0.00    +0.313 C 
BRANCH  10  11
ATOM     11  O   UNL     1      28.452 -21.934 -17.104  0.00  0.00    -0.480 OA
ATOM     12  H   UNL     1      27.795 -21.590 -17.676  0.00  0.00    +0.295 HD
ENDBRANCH  10  11
ENDBRANCH   6  10
ENDBRANCH   5   6
ENDBRANCH   4   5
ENDBRANCH   3   4
ENDBRANCH   2   3
ENDBRANCH   1   2
BRANCH   1  13
ATOM     13  C   UNL     1      35.744 -22.538 -16.006  0.00  0.00    +0.142 C 
BRANCH  13  14
ATOM     14  C   UNL     1      37.232 -22.854 -15.971  0.00  0.00    +0.032 C 
BRANCH  14  15
ATOM     15  C   UNL     1      37.559 -23.910 -14.915  0.00  0.00    +0.003 C 
BRANCH  15  16
ATOM     16  C   UNL     1      36.380 -24.114 -13.953  0.00  0.00    +0.011 C 
BRANCH  16  17
ATOM     17  C   UNL     1      36.778 -24.411 -12.482  0.00  0.00    +0.089 C 
ATOM     18  C   UNL     1      37.548 -25.738 -12.387  0.00  0.00    +0.011 C 
ATOM     19  C   UNL     1      37.676 -23.269 -11.977  0.00  0.00    +0.011 C 
BRANCH  17  21
ATOM     20  O   UNL     1      35.399 -25.080 -10.571  0.00  0.00    -0.250 OA
ATOM     21  C   UNL     1      35.530 -24.418 -11.594  0.00  0.00    +0.313 C 
BRANCH  21  22
ATOM     22  O   UNL     1      34.536 -23.646 -12.099  0.00  0.00    -0.480 OA
ATOM     23  H   UNL     1      34.529 -23.429 -13.011  0.00  0.00    +0.295 HD
ENDBRANCH  21  22
ENDBRANCH  17  21
ENDBRANCH  16  17
ENDBRANCH  15  16
ENDBRANCH  14  15
ENDBRANCH  13  14
ENDBRANCH   1  13
TORSDOF 14
ENDMDL
MODEL 8
REMARK VINA RESULT:      -7.5      2.964      5.011
REMARK  Name = 157692
REMARK  14 active torsions:
REMARK  status: ('A' for Active; 'I' for Inactive)
REMARK    1  A    between atoms: O_1  and  C_2
REMARK    2  A    between atoms: O_1  and  C_13
REMARK    3  A    between atoms: C_2  and  C_3
REMARK    4  A    between atoms: C_3  and  C_4
REMARK    5  A    between atoms: C_4  and  C_5
REMARK    6  A    between atoms: C_5  and  C_6
REMARK    7  A    between atoms: C_6  and  C_10
REMARK    8  A    between atoms: C_10  and  O_11
REMARK    9  A    between atoms: C_13  and  C_14
REMARK   10  A    between atoms: C_14  and  C_15
REMARK   11  A    between atoms: C_15  and  C_16
REMARK   12  A    between atoms: C_16  and  C_17
REMARK   13  A    between atoms: C_17  and  C_21
REMARK   14  A    between atoms: C_21  and  O_22
REMARK                            x       y       z     vdW  Elec       q    Type
REMARK                         _______ _______ _______ _____ _____    ______ ____
ROOT
ATOM      1  O   UNL     1      32.553 -22.568 -18.123  0.00  0.00    -0.354 OA
ENDROOT
BRANCH   1   2
ATOM      2  C   UNL     1      33.645 -22.198 -18.955  0.00  0.00    +0.142 C 
BRANCH   2   3
ATOM      3  C   UNL     1      33.248 -20.980 -19.775  0.00  0.00    +0.032 C 
BRANCH   3   4
ATOM      4  C   UNL     1      34.465 -20.310 -20.414  0.00  0.00    +0.003 C 
BRANCH   4   5
ATOM      5  C   UNL     1      34.042 -19.353 -21.538  0.00  0.00    +0.011 C 
BRANCH   5   6
ATOM      6  C   UNL     1      35.061 -18.226 -21.857  0.00  0.00    +0.089 C 
ATOM      7  C   UNL     1      34.740 -16.960 -21.045  0.00  0.00    +0.011 C 
ATOM      8  C   UNL     1      36.471 -18.719 -21.486  0.00  0.00    +0.011 C 
BRANCH   6  10
ATOM      9  O   UNL     1      35.115 -16.828 -23.867  0.00  0.00    -0.250 OA
ATOM     10  C   UNL     1      35.074 -17.942 -23.362  0.00  0.00    +0.313 C 
BRANCH  10  11
ATOM     11  O   UNL     1      34.971 -19.078 -24.098  0.00  0.00    -0.480 OA
ATOM     12  H   UNL     1      34.419 -19.097 -24.855  0.00  0.00    +0.295 HD
ENDBRANCH  10  11
ENDBRANCH   6  10
ENDBRANCH   5   6
ENDBRANCH   4   5
ENDBRANCH   3   4
ENDBRANCH   2   3
ENDBRANCH   1   2
BRANCH   1  13
ATOM     13  C   UNL     1      32.980 -23.353 -17.018  0.00  0.00    +0.142 C 
BRANCH  13  14
ATOM     14  C   UNL     1      34.475 -23.153 -16.821  0.00  0.00    +0.032 C 
BRANCH  14  15
ATOM     15  C   UNL     1      34.899 -23.449 -15.382  0.00  0.00    +0.003 C 
BRANCH  15  16
ATOM     16  C   UNL     1      35.318 -24.917 -15.219  0.00  0.00    +0.011 C 
BRANCH  16  17
ATOM     17  C   UNL     1      36.743 -25.132 -14.643  0.00  0.00    +0.089 C 
ATOM     18  C   UNL     1      37.679 -23.990 -15.074  0.00  0.00    +0.011 C 
ATOM     19  C   UNL     1      36.654 -25.159 -13.108  0.00  0.00    +0.011 C 
BRANCH  17  21
ATOM     20  O   UNL     1      38.251 -27.061 -14.582  0.00  0.00    -0.250 OA
ATOM     21  C   UNL     1      37.283 -26.498 -15.078  0.00  0.00    +0.313 C 
BRANCH  21  22
ATOM     22  O   UNL     1      36.602 -27.006 -16.135  0.00  0.00    -0.480 OA
ATOM     23  H   UNL     1      35.891 -27.600 -15.993  0.00  0.00    +0.295 HD
ENDBRANCH  21  22
ENDBRANCH  17  21
ENDBRANCH  16  17
ENDBRANCH  15  16
ENDBRANCH  14  15
ENDBRANCH  13  14
ENDBRANCH   1  13
TORSDOF 14
ENDMDL
MODEL 9
REMARK VINA RESULT:      -7.4      3.925      9.150
REMARK  Name = 157692
REMARK  14 active torsions:
REMARK  status: ('A' for Active; 'I' for Inactive)
REMARK    1  A    between atoms: O_1  and  C_2
REMARK    2  A    between atoms: O_1  and  C_13
REMARK    3  A    between atoms: C_2  and  C_3
REMARK    4  A    between atoms: C_3  and  C_4
REMARK    5  A    between atoms: C_4  and  C_5
REMARK    6  A    between atoms: C_5  and  C_6
REMARK    7  A    between atoms: C_6  and  C_10
REMARK    8  A    between atoms: C_10  and  O_11
REMARK    9  A    between atoms: C_13  and  C_14
REMARK   10  A    between atoms: C_14  and  C_15
REMARK   11  A    between atoms: C_15  and  C_16
REMARK   12  A    between atoms: C_16  and  C_17
REMARK   13  A    between atoms: C_17  and  C_21
REMARK   14  A    between atoms: C_21  and  O_22
REMARK                            x       y       z     vdW  Elec       q    Type
REMARK                         _______ _______ _______ _____ _____    ______ ____
ROOT
ATOM      1  O   UNL     1      35.363 -22.567 -17.768  0.00  0.00    -0.354 OA
ENDROOT
BRANCH   1   2
ATOM      2  C   UNL     1      35.324 -22.951 -16.400  0.00  0.00    +0.142 C 
BRANCH   2   3
ATOM      3  C   UNL     1      36.532 -22.360 -15.688  0.00  0.00    +0.032 C 
BRANCH   3   4
ATOM      4  C   UNL     1      37.071 -23.304 -14.613  0.00  0.00    +0.003 C 
BRANCH   4   5
ATOM      5  C   UNL     1      38.280 -24.097 -15.129  0.00  0.00    +0.011 C 
BRANCH   5   6
ATOM      6  C   UNL     1      38.672 -25.327 -14.267  0.00  0.00    +0.089 C 
ATOM      7  C   UNL     1      40.127 -25.740 -14.545  0.00  0.00    +0.011 C 
ATOM      8  C   UNL     1      38.529 -24.953 -12.782  0.00  0.00    +0.011 C 
BRANCH   6  10
ATOM      9  O   UNL     1      37.218 -27.203 -13.665  0.00  0.00    -0.250 OA
ATOM     10  C   UNL     1      37.699 -26.482 -14.528  0.00  0.00    +0.313 C 
BRANCH  10  11
ATOM     11  O   UNL     1      37.467 -26.667 -15.852  0.00  0.00    -0.480 OA
ATOM     12  H   UNL     1      36.595 -26.824 -16.158  0.00  0.00    +0.295 HD
ENDBRANCH  10  11
ENDBRANCH   6  10
ENDBRANCH   5   6
ENDBRANCH   4   5
ENDBRANCH   3   4
ENDBRANCH   2   3
ENDBRANCH   1   2
BRANCH   1  13
ATOM     13  C   UNL     1      36.468 -21.715 -18.040  0.00  0.00    +0.142 C 
BRANCH  13  14
ATOM     14  C   UNL     1      36.572 -21.510 -19.544  0.00  0.00    +0.032 C 
BRANCH  14  15
ATOM     15  C   UNL     1      35.419 -20.661 -20.079  0.00  0.00    +0.003 C 
BRANCH  15  16
ATOM     16  C   UNL     1      35.939 -19.497 -20.934  0.00  0.00    +0.011 C 
BRANCH  16  17
ATOM     17  C   UNL     1      34.853 -18.747 -21.751  0.00  0.00    +0.089 C 
ATOM     18  C   UNL     1      34.838 -19.235 -23.209  0.00  0.00    +0.011 C 
ATOM     19  C   UNL     1      33.481 -19.023 -21.113  0.00  0.00    +0.011 C 
BRANCH  17  21
ATOM     20  O   UNL     1      35.165 -16.481 -22.627  0.00  0.00    -0.250 OA
ATOM     21  C   UNL     1      35.084 -17.235 -21.665  0.00  0.00    +0.313 C 
BRANCH  21  22
ATOM     22  O   UNL     1      35.256 -16.814 -20.387  0.00  0.00    -0.480 OA
ATOM     23  H   UNL     1      34.520 -16.751 -19.811  0.00  0.00    +0.295 HD
ENDBRANCH  21  22
ENDBRANCH  17  21
ENDBRANCH  16  17
ENDBRANCH  15  16
ENDBRANCH  14  15
ENDBRANCH  13  14
ENDBRANCH   1  13
TORSDOF 14
ENDMDL
