MODEL 1
REMARK VINA RESULT:      -8.9      0.000      0.000
REMARK  Name = 24894151
REMARK  3 active torsions:
REMARK  status: ('A' for Active; 'I' for Inactive)
REMARK    1  A    between atoms: C_3  and  N_10
REMARK    2  A    between atoms: C_8  and  O_18
REMARK    3  A    between atoms: O_18  and  C_19
REMARK                            x       y       z     vdW  Elec       q    Type
REMARK                         _______ _______ _______ _____ _____    ______ ____
ROOT
ATOM      1  O   UNL     1      33.639 -15.000 -26.801  0.00  0.00    -0.226 OA
ATOM      2  N   UNL     1      33.666 -15.610 -24.557  0.00  0.00    -0.246 N 
ATOM      3  C   UNL     1      35.253 -16.899 -22.493  0.00  0.00    +0.074 C 
ATOM      4  C   UNL     1      34.638 -15.508 -22.294  0.00  0.00    +0.041 C 
ATOM      5  C   UNL     1      35.460 -17.198 -23.983  0.00  0.00    +0.041 C 
ATOM      6  C   UNL     1      33.391 -15.293 -23.153  0.00  0.00    +0.098 C 
ATOM      7  C   UNL     1      34.195 -16.949 -24.807  0.00  0.00    +0.098 C 
ATOM      8  C   UNL     1      33.409 -14.739 -25.620  0.00  0.00    +0.405 C 
ENDROOT
BRANCH   3  10
ATOM      9 CL   UNL     1      33.343 -22.065 -19.199  0.00  0.00    -0.082 Cl
ATOM     10  N   UNL     1      34.407 -17.911 -21.892  0.00  0.00    -0.320 N 
ATOM     11  N   UNL     1      36.228 -19.064 -20.952  0.00  0.00    -0.229 NA
ATOM     12  C   UNL     1      34.893 -18.965 -21.140  0.00  0.00    +0.129 C 
ATOM     13  C   UNL     1      33.968 -19.857 -20.625  0.00  0.00    +0.045 C 
ATOM     14  C   UNL     1      34.442 -20.921 -19.867  0.00  0.00    +0.062 C 
ATOM     15  C   UNL     1      36.652 -20.112 -20.209  0.00  0.00    +0.101 C 
ATOM     16  C   UNL     1      35.808 -21.058 -19.649  0.00  0.00    +0.032 C 
ATOM     17  H   UNL     1      33.433 -17.845 -22.027  0.00  0.00    +0.148 HD
ENDBRANCH   3  10
BRANCH   8  18
ATOM     18  O   UNL     1      32.872 -13.547 -25.211  0.00  0.00    -0.435 OA
BRANCH  18  19
ATOM     19  C   UNL     1      33.709 -12.394 -25.356  0.00  0.00    +0.210 C 
ATOM     20  C   UNL     1      33.713 -11.620 -24.056  0.00  0.00    +0.051 C 
ENDBRANCH  18  19
ENDBRANCH   8  18
TORSDOF 3
ENDMDL
MODEL 2
REMARK VINA RESULT:      -8.6      1.064      1.178
REMARK  Name = 24894151
REMARK  3 active torsions:
REMARK  status: ('A' for Active; 'I' for Inactive)
REMARK    1  A    between atoms: C_3  and  N_10
REMARK    2  A    between atoms: C_8  and  O_18
REMARK    3  A    between atoms: O_18  and  C_19
REMARK                            x       y       z     vdW  Elec       q    Type
REMARK                         _______ _______ _______ _____ _____    ______ ____
ROOT
ATOM      1  O   UNL     1      33.843 -15.777 -26.242  0.00  0.00    -0.226 OA
ATOM      2  N   UNL     1      34.048 -16.522 -24.049  0.00  0.00    -0.246 N 
ATOM      3  C   UNL     1      35.582 -18.253 -22.290  0.00  0.00    +0.074 C 
ATOM      4  C   UNL     1      35.325 -16.778 -21.956  0.00  0.00    +0.041 C 
ATOM      5  C   UNL     1      35.505 -18.493 -23.803  0.00  0.00    +0.041 C 
ATOM      6  C   UNL     1      34.050 -16.244 -22.610  0.00  0.00    +0.098 C 
ATOM      7  C   UNL     1      34.225 -17.924 -24.418  0.00  0.00    +0.098 C 
ATOM      8  C   UNL     1      33.845 -15.550 -25.033  0.00  0.00    +0.405 C 
ENDROOT
BRANCH   3  10
ATOM      9 CL   UNL     1      33.072 -22.638 -18.334  0.00  0.00    -0.082 Cl
ATOM     10  N   UNL     1      34.623 -19.095 -21.601  0.00  0.00    -0.320 N 
ATOM     11  N   UNL     1      36.282 -20.156 -20.316  0.00  0.00    -0.229 NA
ATOM     12  C   UNL     1      34.976 -20.022 -20.637  0.00  0.00    +0.129 C 
ATOM     13  C   UNL     1      33.955 -20.758 -20.059  0.00  0.00    +0.045 C 
ATOM     14  C   UNL     1      34.295 -21.692 -19.089  0.00  0.00    +0.062 C 
ATOM     15  C   UNL     1      36.575 -21.075 -19.367  0.00  0.00    +0.101 C 
ATOM     16  C   UNL     1      35.627 -21.861 -18.729  0.00  0.00    +0.032 C 
ATOM     17  H   UNL     1      33.671 -19.003 -21.831  0.00  0.00    +0.148 HD
ENDBRANCH   3  10
BRANCH   8  18
ATOM     18  O   UNL     1      33.650 -14.299 -24.509  0.00  0.00    -0.435 OA
BRANCH  18  19
ATOM     19  C   UNL     1      33.458 -13.241 -25.455  0.00  0.00    +0.210 C 
ATOM     20  C   UNL     1      33.868 -11.929 -24.819  0.00  0.00    +0.051 C 
ENDBRANCH  18  19
ENDBRANCH   8  18
TORSDOF 3
ENDMDL
MODEL 3
REMARK VINA RESULT:      -8.3      4.290      7.958
REMARK  Name = 24894151
REMARK  3 active torsions:
REMARK  status: ('A' for Active; 'I' for Inactive)
REMARK    1  A    between atoms: C_3  and  N_10
REMARK    2  A    between atoms: C_8  and  O_18
REMARK    3  A    between atoms: O_18  and  C_19
REMARK                            x       y       z     vdW  Elec       q    Type
REMARK                         _______ _______ _______ _____ _____    ______ ____
ROOT
ATOM      1  O   UNL     1      34.576 -17.881 -25.515  0.00  0.00    -0.226 OA
ATOM      2  N   UNL     1      34.435 -15.875 -24.349  0.00  0.00    -0.246 N 
ATOM      3  C   UNL     1      32.752 -13.557 -23.859  0.00  0.00    +0.074 C 
ATOM      4  C   UNL     1      33.341 -14.389 -22.713  0.00  0.00    +0.041 C 
ATOM      5  C   UNL     1      32.630 -14.395 -25.138  0.00  0.00    +0.041 C 
ATOM      6  C   UNL     1      34.630 -15.107 -23.116  0.00  0.00    +0.098 C 
ATOM      7  C   UNL     1      33.934 -15.111 -25.490  0.00  0.00    +0.098 C 
ATOM      8  C   UNL     1      34.738 -17.232 -24.483  0.00  0.00    +0.405 C 
ENDROOT
BRANCH   3  10
ATOM      9 CL   UNL     1      34.946  -7.527 -23.757  0.00  0.00    -0.082 Cl
ATOM     10  N   UNL     1      33.576 -12.389 -24.103  0.00  0.00    -0.320 N 
ATOM     11  N   UNL     1      32.187 -10.981 -22.831  0.00  0.00    -0.229 NA
ATOM     12  C   UNL     1      33.291 -11.135 -23.595  0.00  0.00    +0.129 C 
ATOM     13  C   UNL     1      34.169 -10.109 -23.908  0.00  0.00    +0.045 C 
ATOM     14  C   UNL     1      33.896  -8.843 -23.404  0.00  0.00    +0.062 C 
ATOM     15  C   UNL     1      31.954  -9.735 -22.358  0.00  0.00    +0.101 C 
ATOM     16  C   UNL     1      32.770  -8.643 -22.613  0.00  0.00    +0.032 C 
ATOM     17  H   UNL     1      34.381 -12.494 -24.660  0.00  0.00    +0.148 HD
ENDBRANCH   3  10
BRANCH   8  18
ATOM     18  O   UNL     1      35.240 -17.778 -23.330  0.00  0.00    -0.435 OA
BRANCH  18  19
ATOM     19  C   UNL     1      34.698 -19.047 -22.945  0.00  0.00    +0.210 C 
ATOM     20  C   UNL     1      34.433 -19.038 -21.454  0.00  0.00    +0.051 C 
ENDBRANCH  18  19
ENDBRANCH   8  18
TORSDOF 3
ENDMDL
MODEL 4
REMARK VINA RESULT:      -8.3      4.280      7.574
REMARK  Name = 24894151
REMARK  3 active torsions:
REMARK  status: ('A' for Active; 'I' for Inactive)
REMARK    1  A    between atoms: C_3  and  N_10
REMARK    2  A    between atoms: C_8  and  O_18
REMARK    3  A    between atoms: O_18  and  C_19
REMARK                            x       y       z     vdW  Elec       q    Type
REMARK                         _______ _______ _______ _____ _____    ______ ____
ROOT
ATOM      1  O   UNL     1      36.408 -21.214 -19.417  0.00  0.00    -0.226 OA
ATOM      2  N   UNL     1      35.272 -19.699 -20.766  0.00  0.00    -0.246 N 
ATOM      3  C   UNL     1      35.441 -18.156 -23.223  0.00  0.00    +0.074 C 
ATOM      4  C   UNL     1      34.239 -19.055 -22.910  0.00  0.00    +0.041 C 
ATOM      5  C   UNL     1      36.692 -18.636 -22.476  0.00  0.00    +0.041 C 
ATOM      6  C   UNL     1      34.032 -19.252 -21.408  0.00  0.00    +0.098 C 
ATOM      7  C   UNL     1      36.435 -18.841 -20.982  0.00  0.00    +0.098 C 
ATOM      8  C   UNL     1      35.369 -20.834 -19.957  0.00  0.00    +0.405 C 
ENDROOT
BRANCH   3  10
ATOM      9 CL   UNL     1      33.300 -12.115 -23.546  0.00  0.00    -0.082 Cl
ATOM     10  N   UNL     1      35.144 -16.782 -22.869  0.00  0.00    -0.320 N 
ATOM     11  N   UNL     1      34.093 -16.342 -24.926  0.00  0.00    -0.229 NA
ATOM     12  C   UNL     1      34.484 -15.904 -23.708  0.00  0.00    +0.129 C 
ATOM     13  C   UNL     1      34.265 -14.619 -23.238  0.00  0.00    +0.045 C 
ATOM     14  C   UNL     1      33.602 -13.726 -24.071  0.00  0.00    +0.062 C 
ATOM     15  C   UNL     1      33.451 -15.444 -25.708  0.00  0.00    +0.101 C 
ATOM     16  C   UNL     1      33.183 -14.138 -25.331  0.00  0.00    +0.032 C 
ATOM     17  H   UNL     1      35.427 -16.456 -21.984  0.00  0.00    +0.148 HD
ENDBRANCH   3  10
BRANCH   8  18
ATOM     18  O   UNL     1      34.176 -21.494 -19.825  0.00  0.00    -0.435 OA
BRANCH  18  19
ATOM     19  C   UNL     1      34.223 -22.756 -19.148  0.00  0.00    +0.210 C 
ATOM     20  C   UNL     1      33.216 -22.746 -18.017  0.00  0.00    +0.051 C 
ENDBRANCH  18  19
ENDBRANCH   8  18
TORSDOF 3
ENDMDL
MODEL 5
REMARK VINA RESULT:      -8.1      2.155      2.627
REMARK  Name = 24894151
REMARK  3 active torsions:
REMARK  status: ('A' for Active; 'I' for Inactive)
REMARK    1  A    between atoms: C_3  and  N_10
REMARK    2  A    between atoms: C_8  and  O_18
REMARK    3  A    between atoms: O_18  and  C_19
REMARK                            x       y       z     vdW  Elec       q    Type
REMARK                         _______ _______ _______ _____ _____    ______ ____
ROOT
ATOM      1  O   UNL     1      32.186 -12.633 -23.542  0.00  0.00    -0.226 OA
ATOM      2  N   UNL     1      32.924 -14.276 -22.072  0.00  0.00    -0.246 N 
ATOM      3  C   UNL     1      34.931 -16.339 -21.671  0.00  0.00    +0.074 C 
ATOM      4  C   UNL     1      34.648 -15.266 -20.613  0.00  0.00    +0.041 C 
ATOM      5  C   UNL     1      34.540 -15.846 -23.070  0.00  0.00    +0.041 C 
ATOM      6  C   UNL     1      33.225 -14.715 -20.706  0.00  0.00    +0.098 C 
ATOM      7  C   UNL     1      33.118 -15.284 -23.112  0.00  0.00    +0.098 C 
ATOM      8  C   UNL     1      32.439 -13.006 -22.397  0.00  0.00    +0.405 C 
ENDROOT
BRANCH   3  10
ATOM      9 CL   UNL     1      33.669 -22.350 -19.810  0.00  0.00    -0.082 Cl
ATOM     10  N   UNL     1      34.213 -17.557 -21.352  0.00  0.00    -0.320 N 
ATOM     11  N   UNL     1      36.170 -18.703 -20.729  0.00  0.00    -0.229 NA
ATOM     12  C   UNL     1      34.828 -18.707 -20.891  0.00  0.00    +0.129 C 
ATOM     13  C   UNL     1      34.017 -19.798 -20.624  0.00  0.00    +0.045 C 
ATOM     14  C   UNL     1      34.621 -20.960 -20.160  0.00  0.00    +0.062 C 
ATOM     15  C   UNL     1      36.722 -19.852 -20.276  0.00  0.00    +0.101 C 
ATOM     16  C   UNL     1      35.999 -20.996 -19.979  0.00  0.00    +0.032 C 
ATOM     17  H   UNL     1      33.236 -17.568 -21.469  0.00  0.00    +0.148 HD
ENDBRANCH   3  10
BRANCH   8  18
ATOM     18  O   UNL     1      32.274 -12.206 -21.297  0.00  0.00    -0.435 OA
BRANCH  18  19
ATOM     19  C   UNL     1      31.079 -11.415 -21.265  0.00  0.00    +0.210 C 
ATOM     20  C   UNL     1      30.963 -10.751 -19.910  0.00  0.00    +0.051 C 
ENDBRANCH  18  19
ENDBRANCH   8  18
TORSDOF 3
ENDMDL
MODEL 6
REMARK VINA RESULT:      -7.7      4.188      7.433
REMARK  Name = 24894151
REMARK  3 active torsions:
REMARK  status: ('A' for Active; 'I' for Inactive)
REMARK    1  A    between atoms: C_3  and  N_10
REMARK    2  A    between atoms: C_8  and  O_18
REMARK    3  A    between atoms: O_18  and  C_19
REMARK                            x       y       z     vdW  Elec       q    Type
REMARK                         _______ _______ _______ _____ _____    ______ ____
ROOT
ATOM      1  O   UNL     1      32.607 -20.613 -19.385  0.00  0.00    -0.226 OA
ATOM      2  N   UNL     1      33.842 -19.543 -21.039  0.00  0.00    -0.246 N 
ATOM      3  C   UNL     1      34.996 -16.996 -21.831  0.00  0.00    +0.074 C 
ATOM      4  C   UNL     1      35.824 -18.286 -21.794  0.00  0.00    +0.041 C 
ATOM      5  C   UNL     1      33.802 -17.085 -20.872  0.00  0.00    +0.041 C 
ATOM      6  C   UNL     1      34.965 -19.537 -21.981  0.00  0.00    +0.098 C 
ATOM      7  C   UNL     1      32.984 -18.361 -21.079  0.00  0.00    +0.098 C 
ATOM      8  C   UNL     1      33.548 -20.604 -20.178  0.00  0.00    +0.405 C 
ENDROOT
BRANCH   3  10
ATOM      9 CL   UNL     1      32.825 -13.936 -27.037  0.00  0.00    -0.082 Cl
ATOM     10  N   UNL     1      34.535 -16.736 -23.181  0.00  0.00    -0.320 N 
ATOM     11  N   UNL     1      34.215 -14.443 -22.770  0.00  0.00    -0.229 NA
ATOM     12  C   UNL     1      34.156 -15.484 -23.630  0.00  0.00    +0.129 C 
ATOM     13  C   UNL     1      33.738 -15.381 -24.946  0.00  0.00    +0.045 C 
ATOM     14  C   UNL     1      33.355 -14.130 -25.412  0.00  0.00    +0.062 C 
ATOM     15  C   UNL     1      33.834 -13.240 -23.258  0.00  0.00    +0.101 C 
ATOM     16  C   UNL     1      33.401 -13.033 -24.559  0.00  0.00    +0.032 C 
ATOM     17  H   UNL     1      34.489 -17.491 -23.811  0.00  0.00    +0.148 HD
ENDBRANCH   3  10
BRANCH   8  18
ATOM     18  O   UNL     1      34.427 -21.647 -20.304  0.00  0.00    -0.435 OA
BRANCH  18  19
ATOM     19  C   UNL     1      35.092 -22.062 -19.105  0.00  0.00    +0.210 C 
ATOM     20  C   UNL     1      36.445 -21.386 -19.032  0.00  0.00    +0.051 C 
ENDBRANCH  18  19
ENDBRANCH   8  18
TORSDOF 3
ENDMDL
MODEL 7
REMARK VINA RESULT:      -7.6      2.195      3.540
REMARK  Name = 24894151
REMARK  3 active torsions:
REMARK  status: ('A' for Active; 'I' for Inactive)
REMARK    1  A    between atoms: C_3  and  N_10
REMARK    2  A    between atoms: C_8  and  O_18
REMARK    3  A    between atoms: O_18  and  C_19
REMARK                            x       y       z     vdW  Elec       q    Type
REMARK                         _______ _______ _______ _____ _____    ______ ____
ROOT
ATOM      1  O   UNL     1      33.385 -15.083 -22.536  0.00  0.00    -0.226 OA
ATOM      2  N   UNL     1      34.553 -17.088 -22.376  0.00  0.00    -0.246 N 
ATOM      3  C   UNL     1      34.320 -19.889 -21.641  0.00  0.00    +0.074 C 
ATOM      4  C   UNL     1      34.901 -19.450 -22.991  0.00  0.00    +0.041 C 
ATOM      5  C   UNL     1      33.377 -18.819 -21.076  0.00  0.00    +0.041 C 
ATOM      6  C   UNL     1      35.508 -18.048 -22.936  0.00  0.00    +0.098 C 
ATOM      7  C   UNL     1      34.018 -17.430 -21.060  0.00  0.00    +0.098 C 
ATOM      8  C   UNL     1      34.187 -15.892 -23.001  0.00  0.00    +0.405 C 
ENDROOT
BRANCH   3  10
ATOM      9 CL   UNL     1      37.595 -22.301 -16.677  0.00  0.00    -0.082 Cl
ATOM     10  N   UNL     1      35.390 -20.160 -20.701  0.00  0.00    -0.320 N 
ATOM     11  N   UNL     1      34.081 -21.652 -19.439  0.00  0.00    -0.229 NA
ATOM     12  C   UNL     1      35.263 -21.023 -19.628  0.00  0.00    +0.129 C 
ATOM     13  C   UNL     1      36.369 -21.188 -18.811  0.00  0.00    +0.045 C 
ATOM     14  C   UNL     1      36.257 -22.054 -17.730  0.00  0.00    +0.062 C 
ATOM     15  C   UNL     1      34.009 -22.486 -18.377  0.00  0.00    +0.101 C 
ATOM     16  C   UNL     1      35.058 -22.720 -17.501  0.00  0.00    +0.032 C 
ATOM     17  H   UNL     1      36.253 -19.704 -20.832  0.00  0.00    +0.148 HD
ENDBRANCH   3  10
BRANCH   8  18
ATOM     18  O   UNL     1      34.818 -15.710 -24.204  0.00  0.00    -0.435 OA
BRANCH  18  19
ATOM     19  C   UNL     1      34.103 -16.150 -25.365  0.00  0.00    +0.210 C 
ATOM     20  C   UNL     1      33.231 -15.019 -25.866  0.00  0.00    +0.051 C 
ENDBRANCH  18  19
ENDBRANCH   8  18
TORSDOF 3
ENDMDL
MODEL 8
REMARK VINA RESULT:      -7.5      5.290      8.649
REMARK  Name = 24894151
REMARK  3 active torsions:
REMARK  status: ('A' for Active; 'I' for Inactive)
REMARK    1  A    between atoms: C_3  and  N_10
REMARK    2  A    between atoms: C_8  and  O_18
REMARK    3  A    between atoms: O_18  and  C_19
REMARK                            x       y       z     vdW  Elec       q    Type
REMARK                         _______ _______ _______ _____ _____    ______ ____
ROOT
ATOM      1  O   UNL     1      36.156 -23.530 -16.269  0.00  0.00    -0.226 OA
ATOM      2  N   UNL     1      35.217 -22.153 -17.891  0.00  0.00    -0.246 N 
ATOM      3  C   UNL     1      35.658 -20.968 -20.507  0.00  0.00    +0.074 C 
ATOM      4  C   UNL     1      34.382 -21.752 -20.176  0.00  0.00    +0.041 C 
ATOM      5  C   UNL     1      36.819 -21.407 -19.607  0.00  0.00    +0.041 C 
ATOM      6  C   UNL     1      34.057 -21.733 -18.682  0.00  0.00    +0.098 C 
ATOM      7  C   UNL     1      36.443 -21.394 -18.125  0.00  0.00    +0.098 C 
ATOM      8  C   UNL     1      35.185 -23.172 -16.935  0.00  0.00    +0.405 C 
ENDROOT
BRANCH   3  10
ATOM      9 CL   UNL     1      34.533 -14.808 -21.914  0.00  0.00    -0.082 Cl
ATOM     10  N   UNL     1      35.422 -19.545 -20.361  0.00  0.00    -0.320 N 
ATOM     11  N   UNL     1      35.250 -19.201 -22.681  0.00  0.00    -0.229 NA
ATOM     12  C   UNL     1      35.224 -18.690 -21.430  0.00  0.00    +0.129 C 
ATOM     13  C   UNL     1      35.008 -17.352 -21.142  0.00  0.00    +0.045 C 
ATOM     14  C   UNL     1      34.806 -16.482 -22.206  0.00  0.00    +0.062 C 
ATOM     15  C   UNL     1      35.050 -18.324 -23.691  0.00  0.00    +0.101 C 
ATOM     16  C   UNL     1      34.825 -16.969 -23.508  0.00  0.00    +0.032 C 
ATOM     17  H   UNL     1      35.403 -19.166 -19.452  0.00  0.00    +0.148 HD
ENDBRANCH   3  10
BRANCH   8  18
ATOM     18  O   UNL     1      33.946 -23.745 -16.813  0.00  0.00    -0.435 OA
BRANCH  18  19
ATOM     19  C   UNL     1      33.276 -23.540 -15.564  0.00  0.00    +0.210 C 
ATOM     20  C   UNL     1      31.814 -23.249 -15.831  0.00  0.00    +0.051 C 
ENDBRANCH  18  19
ENDBRANCH   8  18
TORSDOF 3
ENDMDL
MODEL 9
REMARK VINA RESULT:      -7.5     10.969     13.009
REMARK  Name = 24894151
REMARK  3 active torsions:
REMARK  status: ('A' for Active; 'I' for Inactive)
REMARK    1  A    between atoms: C_3  and  N_10
REMARK    2  A    between atoms: C_8  and  O_18
REMARK    3  A    between atoms: O_18  and  C_19
REMARK                            x       y       z     vdW  Elec       q    Type
REMARK                         _______ _______ _______ _____ _____    ______ ____
ROOT
ATOM      1  O   UNL     1      38.883 -25.987 -12.337  0.00  0.00    -0.226 OA
ATOM      2  N   UNL     1      36.924 -25.671 -13.549  0.00  0.00    -0.246 N 
ATOM      3  C   UNL     1      34.780 -23.789 -14.098  0.00  0.00    +0.074 C 
ATOM      4  C   UNL     1      35.581 -24.457 -15.222  0.00  0.00    +0.041 C 
ATOM      5  C   UNL     1      35.597 -23.736 -12.800  0.00  0.00    +0.041 C 
ATOM      6  C   UNL     1      36.170 -25.803 -14.799  0.00  0.00    +0.098 C 
ATOM      7  C   UNL     1      36.184 -25.098 -12.427  0.00  0.00    +0.098 C 
ATOM      8  C   UNL     1      38.246 -26.096 -13.384  0.00  0.00    +0.405 C 
ENDROOT
BRANCH   3  10
ATOM      9 CL   UNL     1      28.635 -25.586 -14.531  0.00  0.00    -0.082 Cl
ATOM     10  N   UNL     1      33.537 -24.502 -13.878  0.00  0.00    -0.320 N 
ATOM     11  N   UNL     1      32.352 -23.181 -15.420  0.00  0.00    -0.229 NA
ATOM     12  C   UNL     1      32.356 -24.197 -14.529  0.00  0.00    +0.129 C 
ATOM     13  C   UNL     1      31.245 -24.965 -14.222  0.00  0.00    +0.045 C 
ATOM     14  C   UNL     1      30.052 -24.671 -14.870  0.00  0.00    +0.062 C 
ATOM     15  C   UNL     1      31.173 -22.924 -16.031  0.00  0.00    +0.101 C 
ATOM     16  C   UNL     1      30.006 -23.632 -15.794  0.00  0.00    +0.032 C 
ATOM     17  H   UNL     1      33.533 -25.243 -13.229  0.00  0.00    +0.148 HD
ENDBRANCH   3  10
BRANCH   8  18
ATOM     18  O   UNL     1      38.769 -26.651 -14.522  0.00  0.00    -0.435 OA
BRANCH  18  19
ATOM     19  C   UNL     1      40.054 -26.164 -14.928  0.00  0.00    +0.210 C 
ATOM     20  C   UNL     1      39.935 -24.698 -15.287  0.00  0.00    +0.051 C 
ENDBRANCH  18  19
ENDBRANCH   8  18
TORSDOF 3
ENDMDL
