MODEL 1
REMARK VINA RESULT:      -8.8      0.000      0.000
REMARK  Name = 9053
REMARK  4 active torsions:
REMARK  status: ('A' for Active; 'I' for Inactive)
REMARK    1  A    between atoms: C_7  and  C_26
REMARK    2  A    between atoms: C_11  and  O_23
REMARK    3  A    between atoms: C_26  and  C_27
REMARK    4  A    between atoms: C_27  and  O_28
REMARK                            x       y       z     vdW  Elec       q    Type
REMARK                         _______ _______ _______ _____ _____    ______ ____
ROOT
ATOM      1  F   UNL     1      37.747 -20.810 -19.940  0.00  0.00    -0.233 F 
ATOM      2  O   UNL     1      33.719 -18.413 -21.378  0.00  0.00    -0.287 OA
ATOM      3  C   UNL     1      34.980 -23.556 -15.093  0.00  0.00    +0.009 C 
ATOM      4  C   UNL     1      36.004 -22.651 -15.806  0.00  0.00    +0.001 C 
ATOM      5  C   UNL     1      35.862 -22.657 -17.333  0.00  0.00    +0.006 C 
ATOM      6  C   UNL     1      34.429 -22.136 -17.707  0.00  0.00    +0.034 C 
ATOM      7  C   UNL     1      35.426 -23.321 -13.629  0.00  0.00    +0.060 C 
ATOM      8  C   UNL     1      37.336 -23.049 -15.177  0.00  0.00    +0.000 C 
ATOM      9  C   UNL     1      33.574 -23.026 -15.421  0.00  0.00    +0.030 C 
ATOM     10  C   UNL     1      36.978 -23.339 -13.699  0.00  0.00    +0.007 C 
ATOM     11  C   UNL     1      33.311 -22.912 -16.939  0.00  0.00    +0.111 C 
ATOM     12  C   UNL     1      34.231 -21.997 -19.269  0.00  0.00    +0.039 C 
ATOM     13  C   UNL     1      36.953 -21.788 -17.980  0.00  0.00    +0.040 C 
ATOM     14  C   UNL     1      35.106 -25.058 -15.465  0.00  0.00    +0.001 C 
ATOM     15  C   UNL     1      36.773 -21.652 -19.484  0.00  0.00    +0.180 C 
ATOM     16  C   UNL     1      35.390 -21.144 -19.804  0.00  0.00    -0.006 C 
ATOM     17  C   UNL     1      37.595 -22.318 -12.748  0.00  0.00    +0.000 C 
ATOM     18  C   UNL     1      34.238 -23.345 -20.025  0.00  0.00    +0.009 C 
ATOM     19  C   UNL     1      32.887 -21.350 -19.567  0.00  0.00    -0.020 C 
ATOM     20  C   UNL     1      35.216 -19.996 -20.476  0.00  0.00    +0.036 C 
ATOM     21  C   UNL     1      32.710 -20.206 -20.235  0.00  0.00    +0.038 C 
ATOM     22  C   UNL     1      33.868 -19.455 -20.749  0.00  0.00    +0.195 C 
ENDROOT
BRANCH  11  23
ATOM     23  O   UNL     1      33.118 -24.209 -17.486  0.00  0.00    -0.384 OA
ATOM     24  H   UNL     1      33.875 -24.772 -17.259  0.00  0.00    +0.210 HD
ENDBRANCH  11  23
BRANCH   7  26
ATOM     25  O   UNL     1      33.682 -24.586 -12.611  0.00  0.00    -0.293 OA
ATOM     26  C   UNL     1      34.884 -24.328 -12.659  0.00  0.00    +0.180 C 
BRANCH  26  27
ATOM     27  C   UNL     1      35.895 -24.998 -11.753  0.00  0.00    +0.202 C 
BRANCH  27  28
ATOM     28  O   UNL     1      35.418 -25.050 -10.426  0.00  0.00    -0.375 OA
ATOM     29  H   UNL     1      35.886 -24.393  -9.887  0.00  0.00    +0.211 HD
ENDBRANCH  27  28
ENDBRANCH  26  27
ENDBRANCH   7  26
TORSDOF 4
ENDMDL
MODEL 2
REMARK VINA RESULT:      -7.7      3.646      6.416
REMARK  Name = 9053
REMARK  4 active torsions:
REMARK  status: ('A' for Active; 'I' for Inactive)
REMARK    1  A    between atoms: C_7  and  C_26
REMARK    2  A    between atoms: C_11  and  O_23
REMARK    3  A    between atoms: C_26  and  C_27
REMARK    4  A    between atoms: C_27  and  O_28
REMARK                            x       y       z     vdW  Elec       q    Type
REMARK                         _______ _______ _______ _____ _____    ______ ____
ROOT
ATOM      1  F   UNL     1      37.896 -22.330 -16.999  0.00  0.00    -0.233 F 
ATOM      2  O   UNL     1      40.584 -26.023 -15.218  0.00  0.00    -0.287 OA
ATOM      3  C   UNL     1      32.730 -23.965 -13.945  0.00  0.00    +0.009 C 
ATOM      4  C   UNL     1      33.606 -23.672 -15.179  0.00  0.00    +0.001 C 
ATOM      5  C   UNL     1      35.025 -23.212 -14.822  0.00  0.00    +0.006 C 
ATOM      6  C   UNL     1      35.730 -24.349 -14.001  0.00  0.00    +0.034 C 
ATOM      7  C   UNL     1      31.419 -24.364 -14.667  0.00  0.00    +0.060 C 
ATOM      8  C   UNL     1      32.723 -22.774 -16.042  0.00  0.00    +0.000 C 
ATOM      9  C   UNL     1      33.394 -25.108 -13.158  0.00  0.00    +0.030 C 
ATOM     10  C   UNL     1      31.297 -23.334 -15.823  0.00  0.00    +0.007 C 
ATOM     11  C   UNL     1      34.864 -24.811 -12.786  0.00  0.00    +0.111 C 
ATOM     12  C   UNL     1      37.242 -24.011 -13.688  0.00  0.00    +0.039 C 
ATOM     13  C   UNL     1      35.819 -22.874 -16.094  0.00  0.00    +0.040 C 
ATOM     14  C   UNL     1      32.496 -22.731 -13.035  0.00  0.00    +0.001 C 
ATOM     15  C   UNL     1      37.274 -22.543 -15.802  0.00  0.00    +0.180 C 
ATOM     16  C   UNL     1      37.919 -23.659 -15.020  0.00  0.00    -0.006 C 
ATOM     17  C   UNL     1      30.733 -23.974 -17.088  0.00  0.00    +0.000 C 
ATOM     18  C   UNL     1      37.432 -22.820 -12.722  0.00  0.00    +0.009 C 
ATOM     19  C   UNL     1      37.915 -25.205 -13.026  0.00  0.00    -0.020 C 
ATOM     20  C   UNL     1      38.988 -24.312 -15.503  0.00  0.00    +0.036 C 
ATOM     21  C   UNL     1      38.978 -25.858 -13.505  0.00  0.00    +0.038 C 
ATOM     22  C   UNL     1      39.598 -25.444 -14.776  0.00  0.00    +0.195 C 
ENDROOT
BRANCH  11  23
ATOM     23  O   UNL     1      34.904 -23.856 -11.735  0.00  0.00    -0.384 OA
ATOM     24  H   UNL     1      34.943 -22.963 -12.110  0.00  0.00    +0.210 HD
ENDBRANCH  11  23
BRANCH   7  26
ATOM     25  O   UNL     1      30.321 -24.294 -12.554  0.00  0.00    -0.293 OA
ATOM     26  C   UNL     1      30.213 -24.373 -13.777  0.00  0.00    +0.180 C 
BRANCH  26  27
ATOM     27  C   UNL     1      28.870 -24.482 -14.467  0.00  0.00    +0.202 C 
BRANCH  27  28
ATOM     28  O   UNL     1      28.307 -25.760 -14.263  0.00  0.00    -0.375 OA
ATOM     29  H   UNL     1      27.419 -25.789 -14.652  0.00  0.00    +0.211 HD
ENDBRANCH  27  28
ENDBRANCH  26  27
ENDBRANCH   7  26
TORSDOF 4
ENDMDL
MODEL 3
REMARK VINA RESULT:      -7.5     13.944     19.063
REMARK  Name = 9053
REMARK  4 active torsions:
REMARK  status: ('A' for Active; 'I' for Inactive)
REMARK    1  A    between atoms: C_7  and  C_26
REMARK    2  A    between atoms: C_11  and  O_23
REMARK    3  A    between atoms: C_26  and  C_27
REMARK    4  A    between atoms: C_27  and  O_28
REMARK                            x       y       z     vdW  Elec       q    Type
REMARK                         _______ _______ _______ _____ _____    ______ ____
ROOT
ATOM      1  F   UNL     1      35.462  -9.332 -24.719  0.00  0.00    -0.233 F 
ATOM      2  O   UNL     1      32.231 -12.595 -23.003  0.00  0.00    -0.287 OA
ATOM      3  C   UNL     1      31.551  -4.512 -24.326  0.00  0.00    +0.009 C 
ATOM      4  C   UNL     1      32.481  -5.519 -25.029  0.00  0.00    +0.001 C 
ATOM      5  C   UNL     1      33.144  -6.512 -24.065  0.00  0.00    +0.006 C 
ATOM      6  C   UNL     1      32.020  -7.333 -23.339  0.00  0.00    +0.034 C 
ATOM      7  C   UNL     1      31.101  -3.694 -25.562  0.00  0.00    +0.060 C 
ATOM      8  C   UNL     1      33.359  -4.641 -25.917  0.00  0.00    +0.000 C 
ATOM      9  C   UNL     1      30.423  -5.308 -23.647  0.00  0.00    +0.030 C 
ATOM     10  C   UNL     1      32.401  -3.521 -26.394  0.00  0.00    +0.007 C 
ATOM     11  C   UNL     1      30.947  -6.401 -22.689  0.00  0.00    +0.111 C 
ATOM     12  C   UNL     1      32.612  -8.465 -22.408  0.00  0.00    +0.039 C 
ATOM     13  C   UNL     1      34.106  -7.440 -24.823  0.00  0.00    +0.040 C 
ATOM     14  C   UNL     1      32.275  -3.598 -23.303  0.00  0.00    +0.001 C 
ATOM     15  C   UNL     1      34.685  -8.530 -23.933  0.00  0.00    +0.180 C 
ATOM     16  C   UNL     1      33.578  -9.301 -23.260  0.00  0.00    -0.006 C 
ATOM     17  C   UNL     1      32.124  -3.604 -27.892  0.00  0.00    +0.000 C 
ATOM     18  C   UNL     1      33.391  -7.928 -21.185  0.00  0.00    +0.009 C 
ATOM     19  C   UNL     1      31.485  -9.321 -21.850  0.00  0.00    -0.020 C 
ATOM     20  C   UNL     1      33.445 -10.624 -23.447  0.00  0.00    +0.036 C 
ATOM     21  C   UNL     1      31.350 -10.638 -22.036  0.00  0.00    +0.038 C 
ATOM     22  C   UNL     1      32.334 -11.384 -22.839  0.00  0.00    +0.195 C 
ENDROOT
BRANCH  11  23
ATOM     23  O   UNL     1      31.443  -5.795 -21.504  0.00  0.00    -0.384 OA
ATOM     24  H   UNL     1      32.364  -6.065 -21.364  0.00  0.00    +0.210 HD
ENDBRANCH  11  23
BRANCH   7  26
ATOM     25  O   UNL     1      30.738  -1.786 -24.182  0.00  0.00    -0.293 OA
ATOM     26  C   UNL     1      30.460  -2.382 -25.222  0.00  0.00    +0.180 C 
BRANCH  26  27
ATOM     27  C   UNL     1      29.462  -1.843 -26.224  0.00  0.00    +0.202 C 
BRANCH  27  28
ATOM     28  O   UNL     1      28.163  -1.818 -25.671  0.00  0.00    -0.375 OA
ATOM     29  H   UNL     1      28.218  -1.950 -24.711  0.00  0.00    +0.211 HD
ENDBRANCH  27  28
ENDBRANCH  26  27
ENDBRANCH   7  26
TORSDOF 4
ENDMDL
MODEL 4
REMARK VINA RESULT:      -7.4      6.354     10.369
REMARK  Name = 9053
REMARK  4 active torsions:
REMARK  status: ('A' for Active; 'I' for Inactive)
REMARK    1  A    between atoms: C_7  and  C_26
REMARK    2  A    between atoms: C_11  and  O_23
REMARK    3  A    between atoms: C_26  and  C_27
REMARK    4  A    between atoms: C_27  and  O_28
REMARK                            x       y       z     vdW  Elec       q    Type
REMARK                         _______ _______ _______ _____ _____    ______ ____
ROOT
ATOM      1  F   UNL     1      32.844 -13.970 -27.479  0.00  0.00    -0.233 F 
ATOM      2  O   UNL     1      35.204  -9.857 -26.232  0.00  0.00    -0.287 OA
ATOM      3  C   UNL     1      34.457 -17.046 -22.319  0.00  0.00    +0.009 C 
ATOM      4  C   UNL     1      34.387 -16.772 -23.834  0.00  0.00    +0.001 C 
ATOM      5  C   UNL     1      33.568 -15.525 -24.191  0.00  0.00    +0.006 C 
ATOM      6  C   UNL     1      34.236 -14.275 -23.514  0.00  0.00    +0.034 C 
ATOM      7  C   UNL     1      35.309 -18.339 -22.345  0.00  0.00    +0.060 C 
ATOM      8  C   UNL     1      33.990 -18.121 -24.427  0.00  0.00    +0.000 C 
ATOM      9  C   UNL     1      35.148 -15.843 -21.655  0.00  0.00    +0.030 C 
ATOM     10  C   UNL     1      34.728 -19.150 -23.536  0.00  0.00    +0.007 C 
ATOM     11  C   UNL     1      34.466 -14.496 -21.984  0.00  0.00    +0.111 C 
ATOM     12  C   UNL     1      33.525 -12.923 -23.921  0.00  0.00    +0.039 C 
ATOM     13  C   UNL     1      33.485 -15.351 -25.715  0.00  0.00    +0.040 C 
ATOM     14  C   UNL     1      33.075 -17.318 -21.668  0.00  0.00    +0.001 C 
ATOM     15  C   UNL     1      32.799 -14.054 -26.117  0.00  0.00    +0.180 C 
ATOM     16  C   UNL     1      33.470 -12.878 -25.455  0.00  0.00    -0.006 C 
ATOM     17  C   UNL     1      35.823 -19.889 -24.299  0.00  0.00    +0.000 C 
ATOM     18  C   UNL     1      32.082 -12.786 -23.385  0.00  0.00    +0.009 C 
ATOM     19  C   UNL     1      34.301 -11.740 -23.361  0.00  0.00    -0.020 C 
ATOM     20  C   UNL     1      34.014 -11.892 -26.187  0.00  0.00    +0.036 C 
ATOM     21  C   UNL     1      34.844 -10.758 -24.087  0.00  0.00    +0.038 C 
ATOM     22  C   UNL     1      34.724 -10.761 -25.556  0.00  0.00    +0.195 C 
ENDROOT
BRANCH  11  23
ATOM     23  O   UNL     1      33.247 -14.392 -21.262  0.00  0.00    -0.384 OA
ATOM     24  H   UNL     1      32.646 -15.102 -21.537  0.00  0.00    +0.210 HD
ENDBRANCH  11  23
BRANCH   7  26
ATOM     25  O   UNL     1      36.177 -18.985 -20.222  0.00  0.00    -0.293 OA
ATOM     26  C   UNL     1      35.284 -19.109 -21.060  0.00  0.00    +0.180 C 
BRANCH  26  27
ATOM     27  C   UNL     1      34.106 -20.039 -20.858  0.00  0.00    +0.202 C 
BRANCH  27  28
ATOM     28  O   UNL     1      34.361 -20.945 -19.806  0.00  0.00    -0.375 OA
ATOM     29  H   UNL     1      35.096 -21.529 -20.052  0.00  0.00    +0.211 HD
ENDBRANCH  27  28
ENDBRANCH  26  27
ENDBRANCH   7  26
TORSDOF 4
ENDMDL
MODEL 5
REMARK VINA RESULT:      -7.1      9.060     14.340
REMARK  Name = 9053
REMARK  4 active torsions:
REMARK  status: ('A' for Active; 'I' for Inactive)
REMARK    1  A    between atoms: C_7  and  C_26
REMARK    2  A    between atoms: C_11  and  O_23
REMARK    3  A    between atoms: C_26  and  C_27
REMARK    4  A    between atoms: C_27  and  O_28
REMARK                            x       y       z     vdW  Elec       q    Type
REMARK                         _______ _______ _______ _____ _____    ______ ____
ROOT
ATOM      1  F   UNL     1      31.625 -14.640 -20.215  0.00  0.00    -0.233 F 
ATOM      2  O   UNL     1      35.462 -17.265 -21.773  0.00  0.00    -0.287 OA
ATOM      3  C   UNL     1      33.191  -9.537 -23.408  0.00  0.00    +0.009 C 
ATOM      4  C   UNL     1      32.885 -10.377 -22.152  0.00  0.00    +0.001 C 
ATOM      5  C   UNL     1      32.484 -11.823 -22.469  0.00  0.00    +0.006 C 
ATOM      6  C   UNL     1      33.671 -12.519 -23.226  0.00  0.00    +0.034 C 
ATOM      7  C   UNL     1      33.522  -8.188 -22.723  0.00  0.00    +0.060 C 
ATOM      8  C   UNL     1      31.930  -9.494 -21.352  0.00  0.00    +0.000 C 
ATOM      9  C   UNL     1      34.380 -10.190 -24.132  0.00  0.00    +0.030 C 
ATOM     10  C   UNL     1      32.450  -8.059 -21.606  0.00  0.00    +0.007 C 
ATOM     11  C   UNL     1      34.144 -11.682 -24.458  0.00  0.00    +0.111 C 
ATOM     12  C   UNL     1      33.393 -14.052 -23.493  0.00  0.00    +0.039 C 
ATOM     13  C   UNL     1      32.130 -12.580 -21.180  0.00  0.00    +0.040 C 
ATOM     14  C   UNL     1      31.980  -9.379 -24.366  0.00  0.00    +0.001 C 
ATOM     15  C   UNL     1      31.857 -14.056 -21.427  0.00  0.00    +0.180 C 
ATOM     16  C   UNL     1      33.019 -14.691 -22.148  0.00  0.00    -0.006 C 
ATOM     17  C   UNL     1      33.029  -7.427 -20.344  0.00  0.00    +0.000 C 
ATOM     18  C   UNL     1      32.242 -14.318 -24.489  0.00  0.00    +0.009 C 
ATOM     19  C   UNL     1      34.630 -14.707 -24.090  0.00  0.00    -0.020 C 
ATOM     20  C   UNL     1      33.690 -15.719 -21.604  0.00  0.00    +0.036 C 
ATOM     21  C   UNL     1      35.301 -15.729 -23.550  0.00  0.00    +0.038 C 
ATOM     22  C   UNL     1      34.865 -16.316 -22.271  0.00  0.00    +0.195 C 
ENDROOT
BRANCH  11  23
ATOM     23  O   UNL     1      33.227 -11.793 -25.537  0.00  0.00    -0.384 OA
ATOM     24  H   UNL     1      33.348 -11.046 -26.143  0.00  0.00    +0.210 HD
ENDBRANCH  11  23
BRANCH   7  26
ATOM     25  O   UNL     1      34.443  -6.829 -24.450  0.00  0.00    -0.293 OA
ATOM     26  C   UNL     1      33.520  -7.016 -23.658  0.00  0.00    +0.180 C 
BRANCH  26  27
ATOM     27  C   UNL     1      32.328  -6.088 -23.568  0.00  0.00    +0.202 C 
BRANCH  27  28
ATOM     28  O   UNL     1      31.770  -5.867 -24.846  0.00  0.00    -0.375 OA
ATOM     29  H   UNL     1      32.352  -6.247 -25.523  0.00  0.00    +0.211 HD
ENDBRANCH  27  28
ENDBRANCH  26  27
ENDBRANCH   7  26
TORSDOF 4
ENDMDL
MODEL 6
REMARK VINA RESULT:      -6.5      2.286      7.486
REMARK  Name = 9053
REMARK  4 active torsions:
REMARK  status: ('A' for Active; 'I' for Inactive)
REMARK    1  A    between atoms: C_7  and  C_26
REMARK    2  A    between atoms: C_11  and  O_23
REMARK    3  A    between atoms: C_26  and  C_27
REMARK    4  A    between atoms: C_27  and  O_28
REMARK                            x       y       z     vdW  Elec       q    Type
REMARK                         _______ _______ _______ _____ _____    ______ ____
ROOT
ATOM      1  F   UNL     1      32.891 -25.271 -14.703  0.00  0.00    -0.233 F 
ATOM      2  O   UNL     1      35.222 -23.628 -10.715  0.00  0.00    -0.287 OA
ATOM      3  C   UNL     1      35.893 -21.485 -18.621  0.00  0.00    +0.009 C 
ATOM      4  C   UNL     1      34.672 -22.083 -17.894  0.00  0.00    +0.001 C 
ATOM      5  C   UNL     1      35.032 -23.230 -16.941  0.00  0.00    +0.006 C 
ATOM      6  C   UNL     1      36.014 -22.684 -15.845  0.00  0.00    +0.034 C 
ATOM      7  C   UNL     1      35.169 -20.416 -19.474  0.00  0.00    +0.060 C 
ATOM      8  C   UNL     1      33.670 -22.330 -19.018  0.00  0.00    +0.000 C 
ATOM      9  C   UNL     1      36.841 -20.911 -17.554  0.00  0.00    +0.030 C 
ATOM     10  C   UNL     1      33.892 -21.141 -19.983  0.00  0.00    +0.007 C 
ATOM     11  C   UNL     1      37.238 -21.946 -16.478  0.00  0.00    +0.111 C 
ATOM     12  C   UNL     1      36.350 -23.770 -14.747  0.00  0.00    +0.039 C 
ATOM     13  C   UNL     1      33.764 -23.820 -16.304  0.00  0.00    +0.040 C 
ATOM     14  C   UNL     1      36.637 -22.498 -19.532  0.00  0.00    +0.001 C 
ATOM     15  C   UNL     1      34.077 -24.870 -15.249  0.00  0.00    +0.180 C 
ATOM     16  C   UNL     1      35.016 -24.308 -14.211  0.00  0.00    -0.006 C 
ATOM     17  C   UNL     1      32.690 -20.201 -20.021  0.00  0.00    +0.000 C 
ATOM     18  C   UNL     1      37.172 -24.967 -15.278  0.00  0.00    +0.009 C 
ATOM     19  C   UNL     1      37.180 -23.146 -13.635  0.00  0.00    -0.020 C 
ATOM     20  C   UNL     1      34.662 -24.255 -12.917  0.00  0.00    +0.036 C 
ATOM     21  C   UNL     1      36.830 -23.091 -12.347  0.00  0.00    +0.038 C 
ATOM     22  C   UNL     1      35.547 -23.657 -11.896  0.00  0.00    +0.195 C 
ENDROOT
BRANCH  11  23
ATOM     23  O   UNL     1      38.167 -22.870 -17.027  0.00  0.00    -0.384 OA
ATOM     24  H   UNL     1      38.521 -22.517 -17.859  0.00  0.00    +0.210 HD
ENDBRANCH  11  23
BRANCH   7  26
ATOM     25  O   UNL     1      37.146 -19.463 -20.400  0.00  0.00    -0.293 OA
ATOM     26  C   UNL     1      36.000 -19.866 -20.594  0.00  0.00    +0.180 C 
BRANCH  26  27
ATOM     27  C   UNL     1      35.350 -19.838 -21.961  0.00  0.00    +0.202 C 
BRANCH  27  28
ATOM     28  O   UNL     1      34.894 -18.539 -22.270  0.00  0.00    -0.375 OA
ATOM     29  H   UNL     1      35.102 -18.334 -23.195  0.00  0.00    +0.211 HD
ENDBRANCH  27  28
ENDBRANCH  26  27
ENDBRANCH   7  26
TORSDOF 4
ENDMDL
MODEL 7
REMARK VINA RESULT:      -5.9      5.461     10.735
REMARK  Name = 9053
REMARK  4 active torsions:
REMARK  status: ('A' for Active; 'I' for Inactive)
REMARK    1  A    between atoms: C_7  and  C_26
REMARK    2  A    between atoms: C_11  and  O_23
REMARK    3  A    between atoms: C_26  and  C_27
REMARK    4  A    between atoms: C_27  and  O_28
REMARK                            x       y       z     vdW  Elec       q    Type
REMARK                         _______ _______ _______ _____ _____    ______ ____
ROOT
ATOM      1  F   UNL     1      32.269 -19.674 -19.749  0.00  0.00    -0.233 F 
ATOM      2  O   UNL     1      36.911 -21.199 -19.340  0.00  0.00    -0.287 OA
ATOM      3  C   UNL     1      33.725 -14.506 -22.889  0.00  0.00    +0.009 C 
ATOM      4  C   UNL     1      33.151 -15.333 -21.721  0.00  0.00    +0.001 C 
ATOM      5  C   UNL     1      33.265 -16.848 -21.934  0.00  0.00    +0.006 C 
ATOM      6  C   UNL     1      34.783 -17.222 -22.077  0.00  0.00    +0.034 C 
ATOM      7  C   UNL     1      33.425 -13.085 -22.350  0.00  0.00    +0.060 C 
ATOM      8  C   UNL     1      31.777 -14.713 -21.482  0.00  0.00    +0.000 C 
ATOM      9  C   UNL     1      35.223 -14.837 -23.008  0.00  0.00    +0.030 C 
ATOM     10  C   UNL     1      31.999 -13.204 -21.746  0.00  0.00    +0.007 C 
ATOM     11  C   UNL     1      35.497 -16.350 -23.160  0.00  0.00    +0.111 C 
ATOM     12  C   UNL     1      35.007 -18.783 -22.184  0.00  0.00    +0.039 C 
ATOM     13  C   UNL     1      32.615 -17.607 -20.767  0.00  0.00    +0.040 C 
ATOM     14  C   UNL     1      32.998 -14.741 -24.240  0.00  0.00    +0.001 C 
ATOM     15  C   UNL     1      32.821 -19.111 -20.864  0.00  0.00    +0.180 C 
ATOM     16  C   UNL     1      34.289 -19.432 -20.993  0.00  0.00    -0.006 C 
ATOM     17  C   UNL     1      31.857 -12.372 -20.475  0.00  0.00    +0.000 C 
ATOM     18  C   UNL     1      34.448 -19.410 -23.482  0.00  0.00    +0.009 C 
ATOM     19  C   UNL     1      36.496 -19.096 -22.169  0.00  0.00    -0.020 C 
ATOM     20  C   UNL     1      34.908 -20.203 -20.085  0.00  0.00    +0.036 C 
ATOM     21  C   UNL     1      37.115 -19.862 -21.266  0.00  0.00    +0.038 C 
ATOM     22  C   UNL     1      36.357 -20.482 -20.165  0.00  0.00    +0.195 C 
ENDROOT
BRANCH  11  23
ATOM     23  O   UNL     1      35.142 -16.767 -24.470  0.00  0.00    -0.384 OA
ATOM     24  H   UNL     1      35.523 -16.155 -25.119  0.00  0.00    +0.210 HD
ENDBRANCH  11  23
BRANCH   7  26
ATOM     25  O   UNL     1      34.159 -12.178 -24.427  0.00  0.00    -0.293 OA
ATOM     26  C   UNL     1      33.520 -12.009 -23.390  0.00  0.00    +0.180 C 
BRANCH  26  27
ATOM     27  C   UNL     1      32.791 -10.717 -23.087  0.00  0.00    +0.202 C 
BRANCH  27  28
ATOM     28  O   UNL     1      33.516  -9.609 -23.574  0.00  0.00    -0.375 OA
ATOM     29  H   UNL     1      34.456  -9.838 -23.634  0.00  0.00    +0.211 HD
ENDBRANCH  27  28
ENDBRANCH  26  27
ENDBRANCH   7  26
TORSDOF 4
ENDMDL
