MODEL 1
REMARK VINA RESULT:      -9.1      0.000      0.000
REMARK  Name = 60789
REMARK  12 active torsions:
REMARK  status: ('A' for Active; 'I' for Inactive)
REMARK    1  A    between atoms: N_1  and  C_4
REMARK    2  A    between atoms: N_1  and  C_16
REMARK    3  A    between atoms: C_4  and  C_5
REMARK    4  A    between atoms: C_5  and  C_6
REMARK    5  A    between atoms: C_6  and  C_7
REMARK    6  A    between atoms: C_7  and  C_8
REMARK    7  A    between atoms: C_13  and  O_14
REMARK    8  A    between atoms: C_16  and  C_17
REMARK    9  A    between atoms: C_17  and  C_18
REMARK   10  A    between atoms: C_17  and  O_28
REMARK   11  A    between atoms: C_21  and  O_24
REMARK   12  A    between atoms: C_23  and  O_26
REMARK                            x       y       z     vdW  Elec       q    Type
REMARK                         _______ _______ _______ _____ _____    ______ ____
ROOT
ATOM      1  N   UNL     1      34.013 -22.794 -14.734  0.00  0.00    +0.386 N 
ATOM      2  H   UNL     1      33.587 -21.867 -14.774  0.00  0.00    -0.084 HD
ATOM      3  H   UNL     1      34.770 -22.808 -14.050  0.00  0.00    -0.084 HD
ENDROOT
BRANCH   1   4
ATOM      4  C   UNL     1      34.561 -23.125 -16.043  0.00  0.00    -0.082 C 
BRANCH   4   5
ATOM      5  C   UNL     1      33.454 -23.618 -16.973  0.00  0.00    -0.023 C 
BRANCH   5   6
ATOM      6  C   UNL     1      33.235 -22.648 -18.136  0.00  0.00    +0.003 C 
BRANCH   6   7
ATOM      7  C   UNL     1      34.514 -22.470 -18.958  0.00  0.00    +0.026 C 
BRANCH   7   8
ATOM      8  C   UNL     1      34.474 -21.208 -19.783  0.00  0.00    -0.022 C 
ATOM      9  C   UNL     1      33.250 -20.635 -20.092  0.00  0.00    -0.001 C 
ATOM     10  C   UNL     1      35.663 -20.644 -20.221  0.00  0.00    -0.001 C 
ATOM     11  C   UNL     1      33.214 -19.468 -20.857  0.00  0.00    +0.036 C 
ATOM     12  C   UNL     1      35.626 -19.476 -20.985  0.00  0.00    +0.036 C 
ATOM     13  C   UNL     1      34.401 -18.890 -21.303  0.00  0.00    +0.134 C 
BRANCH  13  14
ATOM     14  O   UNL     1      34.365 -17.751 -22.047  0.00  0.00    -0.506 OA
ATOM     15  H   UNL     1      33.592 -17.529 -22.526  0.00  0.00    +0.292 HD
ENDBRANCH  13  14
ENDBRANCH   7   8
ENDBRANCH   6   7
ENDBRANCH   5   6
ENDBRANCH   4   5
ENDBRANCH   1   4
BRANCH   1  16
ATOM     16  C   UNL     1      33.005 -23.764 -14.332  0.00  0.00    -0.047 C 
BRANCH  16  17
ATOM     17  C   UNL     1      31.693 -23.065 -13.957  0.00  0.00    +0.112 C 
BRANCH  17  18
ATOM     18  C   UNL     1      30.581 -23.418 -14.920  0.00  0.00    +0.005 C 
ATOM     19  C   UNL     1      29.822 -22.402 -15.477  0.00  0.00    +0.038 C 
ATOM     20  C   UNL     1      30.343 -24.748 -15.221  0.00  0.00    +0.001 C 
ATOM     21  C   UNL     1      28.796 -22.727 -16.363  0.00  0.00    +0.167 C 
ATOM     22  C   UNL     1      29.317 -25.073 -16.107  0.00  0.00    +0.040 C 
ATOM     23  C   UNL     1      28.543 -24.062 -16.679  0.00  0.00    +0.167 C 
BRANCH  21  24
ATOM     24  O   UNL     1      28.047 -21.732 -16.916  0.00  0.00    -0.503 OA
ATOM     25  H   UNL     1      27.924 -21.699 -17.844  0.00  0.00    +0.292 HD
ENDBRANCH  21  24
BRANCH  23  26
ATOM     26  O   UNL     1      27.544 -24.393 -17.543  0.00  0.00    -0.503 OA
ATOM     27  H   UNL     1      27.722 -24.953 -18.274  0.00  0.00    +0.292 HD
ENDBRANCH  23  26
ENDBRANCH  17  18
BRANCH  17  28
ATOM     28  O   UNL     1      31.285 -23.449 -12.644  0.00  0.00    -0.382 OA
ATOM     29  H   UNL     1      30.680 -24.205 -12.701  0.00  0.00    +0.211 HD
ENDBRANCH  17  28
ENDBRANCH  16  17
ENDBRANCH   1  16
TORSDOF 12
ENDMDL
MODEL 2
REMARK VINA RESULT:      -8.9      5.104     10.626
REMARK  Name = 60789
REMARK  12 active torsions:
REMARK  status: ('A' for Active; 'I' for Inactive)
REMARK    1  A    between atoms: N_1  and  C_4
REMARK    2  A    between atoms: N_1  and  C_16
REMARK    3  A    between atoms: C_4  and  C_5
REMARK    4  A    between atoms: C_5  and  C_6
REMARK    5  A    between atoms: C_6  and  C_7
REMARK    6  A    between atoms: C_7  and  C_8
REMARK    7  A    between atoms: C_13  and  O_14
REMARK    8  A    between atoms: C_16  and  C_17
REMARK    9  A    between atoms: C_17  and  C_18
REMARK   10  A    between atoms: C_17  and  O_28
REMARK   11  A    between atoms: C_21  and  O_24
REMARK   12  A    between atoms: C_23  and  O_26
REMARK                            x       y       z     vdW  Elec       q    Type
REMARK                         _______ _______ _______ _____ _____    ______ ____
ROOT
ATOM      1  N   UNL     1      34.411 -14.991 -21.051  0.00  0.00    +0.386 N 
ATOM      2  H   UNL     1      35.094 -14.336 -21.434  0.00  0.00    -0.084 HD
ATOM      3  H   UNL     1      34.230 -14.782 -20.069  0.00  0.00    -0.084 HD
ENDROOT
BRANCH   1   4
ATOM      4  C   UNL     1      34.941 -16.345 -21.150  0.00  0.00    -0.082 C 
BRANCH   4   5
ATOM      5  C   UNL     1      34.961 -16.802 -22.607  0.00  0.00    -0.023 C 
BRANCH   5   6
ATOM      6  C   UNL     1      35.306 -18.289 -22.716  0.00  0.00    +0.003 C 
BRANCH   6   7
ATOM      7  C   UNL     1      35.998 -18.792 -21.448  0.00  0.00    +0.026 C 
BRANCH   7   8
ATOM      8  C   UNL     1      35.159 -19.815 -20.724  0.00  0.00    -0.022 C 
ATOM      9  C   UNL     1      33.777 -19.723 -20.776  0.00  0.00    -0.001 C 
ATOM     10  C   UNL     1      35.785 -20.830 -20.015  0.00  0.00    -0.001 C 
ATOM     11  C   UNL     1      33.001 -20.669 -20.105  0.00  0.00    +0.036 C 
ATOM     12  C   UNL     1      35.009 -21.777 -19.345  0.00  0.00    +0.036 C 
ATOM     13  C   UNL     1      33.617 -21.695 -19.390  0.00  0.00    +0.134 C 
BRANCH  13  14
ATOM     14  O   UNL     1      32.860 -22.618 -18.737  0.00  0.00    -0.506 OA
ATOM     15  H   UNL     1      32.203 -22.340 -18.130  0.00  0.00    +0.292 HD
ENDBRANCH  13  14
ENDBRANCH   7   8
ENDBRANCH   6   7
ENDBRANCH   5   6
ENDBRANCH   4   5
ENDBRANCH   1   4
BRANCH   1  16
ATOM     16  C   UNL     1      33.164 -14.865 -21.791  0.00  0.00    -0.047 C 
BRANCH  16  17
ATOM     17  C   UNL     1      33.011 -13.453 -22.368  0.00  0.00    +0.112 C 
BRANCH  17  18
ATOM     18  C   UNL     1      33.220 -13.439 -23.866  0.00  0.00    +0.005 C 
ATOM     19  C   UNL     1      33.056 -14.613 -24.581  0.00  0.00    +0.038 C 
ATOM     20  C   UNL     1      33.574 -12.255 -24.489  0.00  0.00    +0.001 C 
ATOM     21  C   UNL     1      33.251 -14.602 -25.962  0.00  0.00    +0.167 C 
ATOM     22  C   UNL     1      33.769 -12.244 -25.870  0.00  0.00    +0.040 C 
ATOM     23  C   UNL     1      33.608 -13.417 -26.606  0.00  0.00    +0.167 C 
BRANCH  21  24
ATOM     24  O   UNL     1      33.090 -15.754 -26.671  0.00  0.00    -0.503 OA
ATOM     25  H   UNL     1      33.463 -15.834 -27.527  0.00  0.00    +0.292 HD
ENDBRANCH  21  24
BRANCH  23  26
ATOM     26  O   UNL     1      33.800 -13.393 -27.955  0.00  0.00    -0.503 OA
ATOM     27  H   UNL     1      34.646 -13.586 -28.311  0.00  0.00    +0.292 HD
ENDBRANCH  23  26
ENDBRANCH  17  18
BRANCH  17  28
ATOM     28  O   UNL     1      31.704 -12.946 -22.096  0.00  0.00    -0.382 OA
ATOM     29  H   UNL     1      31.433 -12.350 -22.811  0.00  0.00    +0.211 HD
ENDBRANCH  17  28
ENDBRANCH  16  17
ENDBRANCH   1  16
TORSDOF 12
ENDMDL
MODEL 3
REMARK VINA RESULT:      -8.9      4.390      5.926
REMARK  Name = 60789
REMARK  12 active torsions:
REMARK  status: ('A' for Active; 'I' for Inactive)
REMARK    1  A    between atoms: N_1  and  C_4
REMARK    2  A    between atoms: N_1  and  C_16
REMARK    3  A    between atoms: C_4  and  C_5
REMARK    4  A    between atoms: C_5  and  C_6
REMARK    5  A    between atoms: C_6  and  C_7
REMARK    6  A    between atoms: C_7  and  C_8
REMARK    7  A    between atoms: C_13  and  O_14
REMARK    8  A    between atoms: C_16  and  C_17
REMARK    9  A    between atoms: C_17  and  C_18
REMARK   10  A    between atoms: C_17  and  O_28
REMARK   11  A    between atoms: C_21  and  O_24
REMARK   12  A    between atoms: C_23  and  O_26
REMARK                            x       y       z     vdW  Elec       q    Type
REMARK                         _______ _______ _______ _____ _____    ______ ____
ROOT
ATOM      1  N   UNL     1      36.759 -21.867 -17.580  0.00  0.00    +0.386 N 
ATOM      2  H   UNL     1      37.038 -20.936 -17.269  0.00  0.00    -0.084 HD
ATOM      3  H   UNL     1      37.558 -22.366 -17.973  0.00  0.00    -0.084 HD
ENDROOT
BRANCH   1   4
ATOM      4  C   UNL     1      35.736 -21.740 -18.611  0.00  0.00    -0.082 C 
BRANCH   4   5
ATOM      5  C   UNL     1      36.358 -21.252 -19.918  0.00  0.00    -0.023 C 
BRANCH   5   6
ATOM      6  C   UNL     1      35.386 -20.361 -20.695  0.00  0.00    +0.003 C 
BRANCH   6   7
ATOM      7  C   UNL     1      36.033 -19.024 -21.063  0.00  0.00    +0.026 C 
BRANCH   7   8
ATOM      8  C   UNL     1      35.474 -18.471 -22.350  0.00  0.00    -0.022 C 
ATOM      9  C   UNL     1      34.978 -19.341 -23.307  0.00  0.00    -0.001 C 
ATOM     10  C   UNL     1      35.466 -17.099 -22.554  0.00  0.00    -0.001 C 
ATOM     11  C   UNL     1      34.461 -18.829 -24.498  0.00  0.00    +0.036 C 
ATOM     12  C   UNL     1      34.949 -16.586 -23.745  0.00  0.00    +0.036 C 
ATOM     13  C   UNL     1      34.447 -17.452 -24.716  0.00  0.00    +0.134 C 
BRANCH  13  14
ATOM     14  O   UNL     1      33.942 -16.952 -25.877  0.00  0.00    -0.506 OA
ATOM     15  H   UNL     1      33.018 -16.964 -26.028  0.00  0.00    +0.292 HD
ENDBRANCH  13  14
ENDBRANCH   7   8
ENDBRANCH   6   7
ENDBRANCH   5   6
ENDBRANCH   4   5
ENDBRANCH   1   4
BRANCH   1  16
ATOM     16  C   UNL     1      36.256 -22.620 -16.439  0.00  0.00    -0.047 C 
BRANCH  16  17
ATOM     17  C   UNL     1      37.314 -22.707 -15.333  0.00  0.00    +0.112 C 
BRANCH  17  18
ATOM     18  C   UNL     1      36.764 -23.367 -14.088  0.00  0.00    +0.005 C 
ATOM     19  C   UNL     1      35.427 -23.725 -14.049  0.00  0.00    +0.038 C 
ATOM     20  C   UNL     1      37.607 -23.596 -13.015  0.00  0.00    +0.001 C 
ATOM     21  C   UNL     1      34.918 -24.331 -12.901  0.00  0.00    +0.167 C 
ATOM     22  C   UNL     1      37.098 -24.203 -11.867  0.00  0.00    +0.040 C 
ATOM     23  C   UNL     1      35.754 -24.570 -11.810  0.00  0.00    +0.167 C 
BRANCH  21  24
ATOM     24  O   UNL     1      33.603 -24.687 -12.857  0.00  0.00    -0.503 OA
ATOM     25  H   UNL     1      32.942 -24.028 -12.786  0.00  0.00    +0.292 HD
ENDBRANCH  21  24
BRANCH  23  26
ATOM     26  O   UNL     1      35.270 -25.163 -10.683  0.00  0.00    -0.503 OA
ATOM     27  H   UNL     1      34.350 -25.317 -10.592  0.00  0.00    +0.292 HD
ENDBRANCH  23  26
ENDBRANCH  17  18
BRANCH  17  28
ATOM     28  O   UNL     1      38.437 -23.466 -15.782  0.00  0.00    -0.382 OA
ATOM     29  H   UNL     1      38.786 -23.992 -15.046  0.00  0.00    +0.211 HD
ENDBRANCH  17  28
ENDBRANCH  16  17
ENDBRANCH   1  16
TORSDOF 12
ENDMDL
MODEL 4
REMARK VINA RESULT:      -8.9      2.365      3.767
REMARK  Name = 60789
REMARK  12 active torsions:
REMARK  status: ('A' for Active; 'I' for Inactive)
REMARK    1  A    between atoms: N_1  and  C_4
REMARK    2  A    between atoms: N_1  and  C_16
REMARK    3  A    between atoms: C_4  and  C_5
REMARK    4  A    between atoms: C_5  and  C_6
REMARK    5  A    between atoms: C_6  and  C_7
REMARK    6  A    between atoms: C_7  and  C_8
REMARK    7  A    between atoms: C_13  and  O_14
REMARK    8  A    between atoms: C_16  and  C_17
REMARK    9  A    between atoms: C_17  and  C_18
REMARK   10  A    between atoms: C_17  and  O_28
REMARK   11  A    between atoms: C_21  and  O_24
REMARK   12  A    between atoms: C_23  and  O_26
REMARK                            x       y       z     vdW  Elec       q    Type
REMARK                         _______ _______ _______ _____ _____    ______ ____
ROOT
ATOM      1  N   UNL     1      35.103 -22.395 -18.346  0.00  0.00    +0.386 N 
ATOM      2  H   UNL     1      35.599 -21.858 -17.635  0.00  0.00    -0.084 HD
ATOM      3  H   UNL     1      35.626 -23.237 -18.586  0.00  0.00    -0.084 HD
ENDROOT
BRANCH   1   4
ATOM      4  C   UNL     1      34.958 -21.579 -19.545  0.00  0.00    -0.082 C 
BRANCH   4   5
ATOM      5  C   UNL     1      33.498 -21.175 -19.739  0.00  0.00    -0.023 C 
BRANCH   5   6
ATOM      6  C   UNL     1      33.379 -19.946 -20.644  0.00  0.00    +0.003 C 
BRANCH   6   7
ATOM      7  C   UNL     1      34.754 -19.351 -20.955  0.00  0.00    +0.026 C 
BRANCH   7   8
ATOM      8  C   UNL     1      34.760 -18.623 -22.276  0.00  0.00    -0.022 C 
ATOM      9  C   UNL     1      34.916 -17.246 -22.295  0.00  0.00    -0.001 C 
ATOM     10  C   UNL     1      34.606 -19.345 -23.451  0.00  0.00    -0.001 C 
ATOM     11  C   UNL     1      34.920 -16.574 -23.517  0.00  0.00    +0.036 C 
ATOM     12  C   UNL     1      34.611 -18.672 -24.673  0.00  0.00    +0.036 C 
ATOM     13  C   UNL     1      34.768 -17.287 -24.706  0.00  0.00    +0.134 C 
BRANCH  13  14
ATOM     14  O   UNL     1      34.774 -16.630 -25.898  0.00  0.00    -0.506 OA
ATOM     15  H   UNL     1      35.357 -15.910 -26.033  0.00  0.00    +0.292 HD
ENDBRANCH  13  14
ENDBRANCH   7   8
ENDBRANCH   6   7
ENDBRANCH   5   6
ENDBRANCH   4   5
ENDBRANCH   1   4
BRANCH   1  16
ATOM     16  C   UNL     1      33.802 -22.788 -17.825  0.00  0.00    -0.047 C 
BRANCH  16  17
ATOM     17  C   UNL     1      33.889 -23.116 -16.329  0.00  0.00    +0.112 C 
BRANCH  17  18
ATOM     18  C   UNL     1      32.556 -23.577 -15.783  0.00  0.00    +0.005 C 
ATOM     19  C   UNL     1      32.520 -24.264 -14.582  0.00  0.00    +0.038 C 
ATOM     20  C   UNL     1      31.402 -23.304 -16.496  0.00  0.00    +0.001 C 
ATOM     21  C   UNL     1      31.291 -24.691 -14.078  0.00  0.00    +0.167 C 
ATOM     22  C   UNL     1      30.173 -23.731 -15.993  0.00  0.00    +0.040 C 
ATOM     23  C   UNL     1      30.118 -24.424 -14.784  0.00  0.00    +0.167 C 
BRANCH  21  24
ATOM     24  O   UNL     1      31.249 -25.367 -12.896  0.00  0.00    -0.503 OA
ATOM     25  H   UNL     1      30.427 -25.528 -12.478  0.00  0.00    +0.292 HD
ENDBRANCH  21  24
BRANCH  23  26
ATOM     26  O   UNL     1      28.911 -24.835 -14.303  0.00  0.00    -0.503 OA
ATOM     27  H   UNL     1      28.305 -25.271 -14.869  0.00  0.00    +0.292 HD
ENDBRANCH  23  26
ENDBRANCH  17  18
BRANCH  17  28
ATOM     28  O   UNL     1      34.845 -24.153 -16.106  0.00  0.00    -0.382 OA
ATOM     29  H   UNL     1      35.514 -24.133 -16.807  0.00  0.00    +0.211 HD
ENDBRANCH  17  28
ENDBRANCH  16  17
ENDBRANCH   1  16
TORSDOF 12
ENDMDL
MODEL 5
REMARK VINA RESULT:      -8.8      2.829      5.385
REMARK  Name = 60789
REMARK  12 active torsions:
REMARK  status: ('A' for Active; 'I' for Inactive)
REMARK    1  A    between atoms: N_1  and  C_4
REMARK    2  A    between atoms: N_1  and  C_16
REMARK    3  A    between atoms: C_4  and  C_5
REMARK    4  A    between atoms: C_5  and  C_6
REMARK    5  A    between atoms: C_6  and  C_7
REMARK    6  A    between atoms: C_7  and  C_8
REMARK    7  A    between atoms: C_13  and  O_14
REMARK    8  A    between atoms: C_16  and  C_17
REMARK    9  A    between atoms: C_17  and  C_18
REMARK   10  A    between atoms: C_17  and  O_28
REMARK   11  A    between atoms: C_21  and  O_24
REMARK   12  A    between atoms: C_23  and  O_26
REMARK                            x       y       z     vdW  Elec       q    Type
REMARK                         _______ _______ _______ _____ _____    ______ ____
ROOT
ATOM      1  N   UNL     1      31.949 -23.640 -15.705  0.00  0.00    +0.386 N 
ATOM      2  H   UNL     1      31.937 -24.659 -15.750  0.00  0.00    -0.084 HD
ATOM      3  H   UNL     1      31.051 -23.288 -15.373  0.00  0.00    -0.084 HD
ENDROOT
BRANCH   1   4
ATOM      4  C   UNL     1      32.197 -23.105 -17.038  0.00  0.00    -0.082 C 
BRANCH   4   5
ATOM      5  C   UNL     1      33.696 -23.064 -17.324  0.00  0.00    -0.023 C 
BRANCH   5   6
ATOM      6  C   UNL     1      33.970 -22.793 -18.805  0.00  0.00    +0.003 C 
BRANCH   6   7
ATOM      7  C   UNL     1      33.211 -21.557 -19.292  0.00  0.00    +0.026 C 
BRANCH   7   8
ATOM      8  C   UNL     1      34.093 -20.649 -20.112  0.00  0.00    -0.022 C 
ATOM      9  C   UNL     1      33.514 -19.753 -20.997  0.00  0.00    -0.001 C 
ATOM     10  C   UNL     1      35.470 -20.728 -19.968  0.00  0.00    -0.001 C 
ATOM     11  C   UNL     1      34.330 -18.915 -21.755  0.00  0.00    +0.036 C 
ATOM     12  C   UNL     1      36.287 -19.888 -20.727  0.00  0.00    +0.036 C 
ATOM     13  C   UNL     1      35.716 -18.982 -21.620  0.00  0.00    +0.134 C 
BRANCH  13  14
ATOM     14  O   UNL     1      36.512 -18.162 -22.360  0.00  0.00    -0.506 OA
ATOM     15  H   UNL     1      36.607 -18.307 -23.280  0.00  0.00    +0.292 HD
ENDBRANCH  13  14
ENDBRANCH   7   8
ENDBRANCH   6   7
ENDBRANCH   5   6
ENDBRANCH   4   5
ENDBRANCH   1   4
BRANCH   1  16
ATOM     16  C   UNL     1      32.986 -23.217 -14.774  0.00  0.00    -0.047 C 
BRANCH  16  17
ATOM     17  C   UNL     1      33.628 -24.427 -14.085  0.00  0.00    +0.112 C 
BRANCH  17  18
ATOM     18  C   UNL     1      34.927 -24.054 -13.405  0.00  0.00    +0.005 C 
ATOM     19  C   UNL     1      35.046 -24.226 -12.037  0.00  0.00    +0.038 C 
ATOM     20  C   UNL     1      35.967 -23.547 -14.165  0.00  0.00    +0.001 C 
ATOM     21  C   UNL     1      36.243 -23.881 -11.409  0.00  0.00    +0.167 C 
ATOM     22  C   UNL     1      37.163 -23.202 -13.537  0.00  0.00    +0.040 C 
ATOM     23  C   UNL     1      37.301 -23.369 -12.159  0.00  0.00    +0.167 C 
BRANCH  21  24
ATOM     24  O   UNL     1      36.366 -24.050 -10.062  0.00  0.00    -0.503 OA
ATOM     25  H   UNL     1      36.567 -24.895  -9.713  0.00  0.00    +0.292 HD
ENDBRANCH  21  24
BRANCH  23  26
ATOM     26  O   UNL     1      38.476 -23.028 -11.558  0.00  0.00    -0.503 OA
ATOM     27  H   UNL     1      38.771 -22.139 -11.577  0.00  0.00    +0.292 HD
ENDBRANCH  23  26
ENDBRANCH  17  18
BRANCH  17  28
ATOM     28  O   UNL     1      32.745 -24.960 -13.098  0.00  0.00    -0.382 OA
ATOM     29  H   UNL     1      32.119 -25.569 -13.519  0.00  0.00    +0.211 HD
ENDBRANCH  17  28
ENDBRANCH  16  17
ENDBRANCH   1  16
TORSDOF 12
ENDMDL
MODEL 6
REMARK VINA RESULT:      -8.8      2.915      9.236
REMARK  Name = 60789
REMARK  12 active torsions:
REMARK  status: ('A' for Active; 'I' for Inactive)
REMARK    1  A    between atoms: N_1  and  C_4
REMARK    2  A    between atoms: N_1  and  C_16
REMARK    3  A    between atoms: C_4  and  C_5
REMARK    4  A    between atoms: C_5  and  C_6
REMARK    5  A    between atoms: C_6  and  C_7
REMARK    6  A    between atoms: C_7  and  C_8
REMARK    7  A    between atoms: C_13  and  O_14
REMARK    8  A    between atoms: C_16  and  C_17
REMARK    9  A    between atoms: C_17  and  C_18
REMARK   10  A    between atoms: C_17  and  O_28
REMARK   11  A    between atoms: C_21  and  O_24
REMARK   12  A    between atoms: C_23  and  O_26
REMARK                            x       y       z     vdW  Elec       q    Type
REMARK                         _______ _______ _______ _____ _____    ______ ____
ROOT
ATOM      1  N   UNL     1      33.629 -19.568 -20.985  0.00  0.00    +0.386 N 
ATOM      2  H   UNL     1      33.566 -18.664 -20.516  0.00  0.00    -0.084 HD
ATOM      3  H   UNL     1      32.919 -19.641 -21.715  0.00  0.00    -0.084 HD
ENDROOT
BRANCH   1   4
ATOM      4  C   UNL     1      33.406 -20.629 -20.011  0.00  0.00    -0.082 C 
BRANCH   4   5
ATOM      5  C   UNL     1      34.718 -21.341 -19.691  0.00  0.00    -0.023 C 
BRANCH   5   6
ATOM      6  C   UNL     1      34.502 -22.476 -18.688  0.00  0.00    +0.003 C 
BRANCH   6   7
ATOM      7  C   UNL     1      33.061 -22.495 -18.173  0.00  0.00    +0.026 C 
BRANCH   7   8
ATOM      8  C   UNL     1      32.964 -23.144 -16.815  0.00  0.00    -0.022 C 
ATOM      9  C   UNL     1      31.716 -23.374 -16.258  0.00  0.00    -0.001 C 
ATOM     10  C   UNL     1      34.126 -23.497 -16.145  0.00  0.00    -0.001 C 
ATOM     11  C   UNL     1      31.626 -23.973 -15.001  0.00  0.00    +0.036 C 
ATOM     12  C   UNL     1      34.036 -24.096 -14.888  0.00  0.00    +0.036 C 
ATOM     13  C   UNL     1      32.786 -24.334 -14.317  0.00  0.00    +0.134 C 
BRANCH  13  14
ATOM     14  O   UNL     1      32.698 -24.920 -13.091  0.00  0.00    -0.506 OA
ATOM     15  H   UNL     1      32.364 -25.791 -13.011  0.00  0.00    +0.292 HD
ENDBRANCH  13  14
ENDBRANCH   7   8
ENDBRANCH   6   7
ENDBRANCH   5   6
ENDBRANCH   4   5
ENDBRANCH   1   4
BRANCH   1  16
ATOM     16  C   UNL     1      34.943 -19.695 -21.600  0.00  0.00    -0.047 C 
BRANCH  16  17
ATOM     17  C   UNL     1      35.605 -18.322 -21.763  0.00  0.00    +0.112 C 
BRANCH  17  18
ATOM     18  C   UNL     1      35.090 -17.599 -22.988  0.00  0.00    +0.005 C 
ATOM     19  C   UNL     1      34.769 -16.256 -22.894  0.00  0.00    +0.038 C 
ATOM     20  C   UNL     1      34.948 -18.296 -24.175  0.00  0.00    +0.001 C 
ATOM     21  C   UNL     1      34.292 -15.589 -24.022  0.00  0.00    +0.167 C 
ATOM     22  C   UNL     1      34.471 -17.629 -25.303  0.00  0.00    +0.040 C 
ATOM     23  C   UNL     1      34.143 -16.276 -25.227  0.00  0.00    +0.167 C 
BRANCH  21  24
ATOM     24  O   UNL     1      33.976 -14.266 -23.935  0.00  0.00    -0.503 OA
ATOM     25  H   UNL     1      33.098 -14.006 -23.739  0.00  0.00    +0.292 HD
ENDBRANCH  21  24
BRANCH  23  26
ATOM     26  O   UNL     1      33.679 -15.636 -26.336  0.00  0.00    -0.503 OA
ATOM     27  H   UNL     1      33.439 -16.129 -27.096  0.00  0.00    +0.292 HD
ENDBRANCH  23  26
ENDBRANCH  17  18
BRANCH  17  28
ATOM     28  O   UNL     1      35.342 -17.508 -20.621  0.00  0.00    -0.382 OA
ATOM     29  H   UNL     1      36.179 -17.261 -20.199  0.00  0.00    +0.211 HD
ENDBRANCH  17  28
ENDBRANCH  16  17
ENDBRANCH   1  16
TORSDOF 12
ENDMDL
MODEL 7
REMARK VINA RESULT:      -8.8      3.042      4.939
REMARK  Name = 60789
REMARK  12 active torsions:
REMARK  status: ('A' for Active; 'I' for Inactive)
REMARK    1  A    between atoms: N_1  and  C_4
REMARK    2  A    between atoms: N_1  and  C_16
REMARK    3  A    between atoms: C_4  and  C_5
REMARK    4  A    between atoms: C_5  and  C_6
REMARK    5  A    between atoms: C_6  and  C_7
REMARK    6  A    between atoms: C_7  and  C_8
REMARK    7  A    between atoms: C_13  and  O_14
REMARK    8  A    between atoms: C_16  and  C_17
REMARK    9  A    between atoms: C_17  and  C_18
REMARK   10  A    between atoms: C_17  and  O_28
REMARK   11  A    between atoms: C_21  and  O_24
REMARK   12  A    between atoms: C_23  and  O_26
REMARK                            x       y       z     vdW  Elec       q    Type
REMARK                         _______ _______ _______ _____ _____    ______ ____
ROOT
ATOM      1  N   UNL     1      36.767 -21.637 -18.328  0.00  0.00    +0.386 N 
ATOM      2  H   UNL     1      37.069 -20.806 -17.819  0.00  0.00    -0.084 HD
ATOM      3  H   UNL     1      37.542 -22.293 -18.430  0.00  0.00    -0.084 HD
ENDROOT
BRANCH   1   4
ATOM      4  C   UNL     1      36.310 -21.245 -19.655  0.00  0.00    -0.082 C 
BRANCH   4   5
ATOM      5  C   UNL     1      34.785 -21.191 -19.698  0.00  0.00    -0.023 C 
BRANCH   5   6
ATOM      6  C   UNL     1      34.295 -20.094 -20.645  0.00  0.00    +0.003 C 
BRANCH   6   7
ATOM      7  C   UNL     1      35.439 -19.164 -21.055  0.00  0.00    +0.026 C 
BRANCH   7   8
ATOM      8  C   UNL     1      35.155 -18.476 -22.367  0.00  0.00    -0.022 C 
ATOM      9  C   UNL     1      35.244 -17.096 -22.446  0.00  0.00    -0.001 C 
ATOM     10  C   UNL     1      34.807 -19.238 -23.473  0.00  0.00    -0.001 C 
ATOM     11  C   UNL     1      34.980 -16.460 -23.660  0.00  0.00    +0.036 C 
ATOM     12  C   UNL     1      34.544 -18.602 -24.687  0.00  0.00    +0.036 C 
ATOM     13  C   UNL     1      34.630 -17.214 -24.780  0.00  0.00    +0.134 C 
BRANCH  13  14
ATOM     14  O   UNL     1      34.374 -16.593 -25.964  0.00  0.00    -0.506 OA
ATOM     15  H   UNL     1      34.750 -16.923 -26.756  0.00  0.00    +0.292 HD
ENDBRANCH  13  14
ENDBRANCH   7   8
ENDBRANCH   6   7
ENDBRANCH   5   6
ENDBRANCH   4   5
ENDBRANCH   1   4
BRANCH   1  16
ATOM     16  C   UNL     1      35.700 -22.290 -17.583  0.00  0.00    -0.047 C 
BRANCH  16  17
ATOM     17  C   UNL     1      36.124 -22.546 -16.132  0.00  0.00    +0.112 C 
BRANCH  17  18
ATOM     18  C   UNL     1      35.009 -23.182 -15.331  0.00  0.00    +0.005 C 
ATOM     19  C   UNL     1      35.296 -23.736 -14.096  0.00  0.00    +0.038 C 
ATOM     20  C   UNL     1      33.727 -23.198 -15.852  0.00  0.00    +0.001 C 
ATOM     21  C   UNL     1      34.269 -24.323 -13.358  0.00  0.00    +0.167 C 
ATOM     22  C   UNL     1      32.700 -23.785 -15.114  0.00  0.00    +0.040 C 
ATOM     23  C   UNL     1      32.971 -24.348 -13.867  0.00  0.00    +0.167 C 
BRANCH  21  24
ATOM     24  O   UNL     1      34.546 -24.869 -12.140  0.00  0.00    -0.503 OA
ATOM     25  H   UNL     1      35.323 -24.619 -11.681  0.00  0.00    +0.292 HD
ENDBRANCH  21  24
BRANCH  23  26
ATOM     26  O   UNL     1      31.958 -24.918 -13.156  0.00  0.00    -0.503 OA
ATOM     27  H   UNL     1      31.439 -25.598 -13.541  0.00  0.00    +0.292 HD
ENDBRANCH  23  26
ENDBRANCH  17  18
BRANCH  17  28
ATOM     28  O   UNL     1      37.254 -23.419 -16.095  0.00  0.00    -0.382 OA
ATOM     29  H   UNL     1      37.243 -23.926 -15.269  0.00  0.00    +0.211 HD
ENDBRANCH  17  28
ENDBRANCH  16  17
ENDBRANCH   1  16
TORSDOF 12
ENDMDL
MODEL 8
REMARK VINA RESULT:      -8.8      3.563      5.610
REMARK  Name = 60789
REMARK  12 active torsions:
REMARK  status: ('A' for Active; 'I' for Inactive)
REMARK    1  A    between atoms: N_1  and  C_4
REMARK    2  A    between atoms: N_1  and  C_16
REMARK    3  A    between atoms: C_4  and  C_5
REMARK    4  A    between atoms: C_5  and  C_6
REMARK    5  A    between atoms: C_6  and  C_7
REMARK    6  A    between atoms: C_7  and  C_8
REMARK    7  A    between atoms: C_13  and  O_14
REMARK    8  A    between atoms: C_16  and  C_17
REMARK    9  A    between atoms: C_17  and  C_18
REMARK   10  A    between atoms: C_17  and  O_28
REMARK   11  A    between atoms: C_21  and  O_24
REMARK   12  A    between atoms: C_23  and  O_26
REMARK                            x       y       z     vdW  Elec       q    Type
REMARK                         _______ _______ _______ _____ _____    ______ ____
ROOT
ATOM      1  N   UNL     1      34.913 -22.673 -14.931  0.00  0.00    +0.386 N 
ATOM      2  H   UNL     1      34.670 -21.717 -14.669  0.00  0.00    -0.084 HD
ATOM      3  H   UNL     1      35.844 -22.910 -14.586  0.00  0.00    -0.084 HD
ENDROOT
BRANCH   1   4
ATOM      4  C   UNL     1      34.911 -22.785 -16.384  0.00  0.00    -0.082 C 
BRANCH   4   5
ATOM      5  C   UNL     1      33.518 -23.158 -16.886  0.00  0.00    -0.023 C 
BRANCH   5   6
ATOM      6  C   UNL     1      33.310 -22.702 -18.332  0.00  0.00    +0.003 C 
BRANCH   6   7
ATOM      7  C   UNL     1      34.645 -22.396 -19.015  0.00  0.00    +0.026 C 
BRANCH   7   8
ATOM      8  C   UNL     1      34.574 -21.134 -19.837  0.00  0.00    -0.022 C 
ATOM      9  C   UNL     1      35.746 -20.532 -20.265  0.00  0.00    -0.001 C 
ATOM     10  C   UNL     1      33.334 -20.596 -20.150  0.00  0.00    -0.001 C 
ATOM     11  C   UNL     1      35.680 -19.364 -21.024  0.00  0.00    +0.036 C 
ATOM     12  C   UNL     1      33.267 -19.428 -20.911  0.00  0.00    +0.036 C 
ATOM     13  C   UNL     1      34.440 -18.812 -21.348  0.00  0.00    +0.134 C 
BRANCH  13  14
ATOM     14  O   UNL     1      34.375 -17.674 -22.090  0.00  0.00    -0.506 OA
ATOM     15  H   UNL     1      34.311 -16.841 -21.666  0.00  0.00    +0.292 HD
ENDBRANCH  13  14
ENDBRANCH   7   8
ENDBRANCH   6   7
ENDBRANCH   5   6
ENDBRANCH   4   5
ENDBRANCH   1   4
BRANCH   1  16
ATOM     16  C   UNL     1      33.950 -23.589 -14.337  0.00  0.00    -0.047 C 
BRANCH  16  17
ATOM     17  C   UNL     1      34.588 -24.388 -13.195  0.00  0.00    +0.112 C 
BRANCH  17  18
ATOM     18  C   UNL     1      35.880 -25.045 -13.630  0.00  0.00    +0.005 C 
ATOM     19  C   UNL     1      35.877 -25.870 -14.742  0.00  0.00    +0.038 C 
ATOM     20  C   UNL     1      37.036 -24.809 -12.907  0.00  0.00    +0.001 C 
ATOM     21  C   UNL     1      37.067 -26.477 -15.142  0.00  0.00    +0.167 C 
ATOM     22  C   UNL     1      38.226 -25.416 -13.307  0.00  0.00    +0.040 C 
ATOM     23  C   UNL     1      38.241 -26.250 -14.425  0.00  0.00    +0.167 C 
BRANCH  21  24
ATOM     24  O   UNL     1      37.070 -27.289 -16.237  0.00  0.00    -0.503 OA
ATOM     25  H   UNL     1      37.383 -28.169 -16.165  0.00  0.00    +0.292 HD
ENDBRANCH  21  24
BRANCH  23  26
ATOM     26  O   UNL     1      39.410 -26.836 -14.806  0.00  0.00    -0.503 OA
ATOM     27  H   UNL     1      40.210 -26.613 -14.372  0.00  0.00    +0.292 HD
ENDBRANCH  23  26
ENDBRANCH  17  18
BRANCH  17  28
ATOM     28  O   UNL     1      34.874 -23.530 -12.091  0.00  0.00    -0.382 OA
ATOM     29  H   UNL     1      34.365 -23.816 -11.318  0.00  0.00    +0.211 HD
ENDBRANCH  17  28
ENDBRANCH  16  17
ENDBRANCH   1  16
TORSDOF 12
ENDMDL
MODEL 9
REMARK VINA RESULT:      -8.8      6.201      9.393
REMARK  Name = 60789
REMARK  12 active torsions:
REMARK  status: ('A' for Active; 'I' for Inactive)
REMARK    1  A    between atoms: N_1  and  C_4
REMARK    2  A    between atoms: N_1  and  C_16
REMARK    3  A    between atoms: C_4  and  C_5
REMARK    4  A    between atoms: C_5  and  C_6
REMARK    5  A    between atoms: C_6  and  C_7
REMARK    6  A    between atoms: C_7  and  C_8
REMARK    7  A    between atoms: C_13  and  O_14
REMARK    8  A    between atoms: C_16  and  C_17
REMARK    9  A    between atoms: C_17  and  C_18
REMARK   10  A    between atoms: C_17  and  O_28
REMARK   11  A    between atoms: C_21  and  O_24
REMARK   12  A    between atoms: C_23  and  O_26
REMARK                            x       y       z     vdW  Elec       q    Type
REMARK                         _______ _______ _______ _____ _____    ______ ____
ROOT
ATOM      1  N   UNL     1      34.931 -16.455 -22.917  0.00  0.00    +0.386 N 
ATOM      2  H   UNL     1      35.817 -16.446 -23.422  0.00  0.00    -0.084 HD
ATOM      3  H   UNL     1      34.228 -16.977 -23.441  0.00  0.00    -0.084 HD
ENDROOT
BRANCH   1   4
ATOM      4  C   UNL     1      34.465 -15.085 -22.746  0.00  0.00    -0.082 C 
BRANCH   4   5
ATOM      5  C   UNL     1      33.015 -15.073 -22.267  0.00  0.00    -0.023 C 
BRANCH   5   6
ATOM      6  C   UNL     1      32.755 -13.904 -21.315  0.00  0.00    +0.003 C 
BRANCH   6   7
ATOM      7  C   UNL     1      31.776 -12.898 -21.925  0.00  0.00    +0.026 C 
BRANCH   7   8
ATOM      8  C   UNL     1      31.816 -11.575 -21.204  0.00  0.00    -0.022 C 
ATOM      9  C   UNL     1      31.737 -11.550 -19.820  0.00  0.00    -0.001 C 
ATOM     10  C   UNL     1      31.929 -10.403 -21.938  0.00  0.00    -0.001 C 
ATOM     11  C   UNL     1      31.772 -10.325 -19.154  0.00  0.00    +0.036 C 
ATOM     12  C   UNL     1      31.966  -9.178 -21.270  0.00  0.00    +0.036 C 
ATOM     13  C   UNL     1      31.887  -9.139 -19.879  0.00  0.00    +0.134 C 
BRANCH  13  14
ATOM     14  O   UNL     1      31.923  -7.945 -19.228  0.00  0.00    -0.506 OA
ATOM     15  H   UNL     1      31.453  -7.835 -18.425  0.00  0.00    +0.292 HD
ENDBRANCH  13  14
ENDBRANCH   7   8
ENDBRANCH   6   7
ENDBRANCH   5   6
ENDBRANCH   4   5
ENDBRANCH   1   4
BRANCH   1  16
ATOM     16  C   UNL     1      35.124 -17.103 -21.627  0.00  0.00    -0.047 C 
BRANCH  16  17
ATOM     17  C   UNL     1      35.686 -18.518 -21.806  0.00  0.00    +0.112 C 
BRANCH  17  18
ATOM     18  C   UNL     1      34.908 -19.531 -20.996  0.00  0.00    +0.005 C 
ATOM     19  C   UNL     1      35.596 -20.487 -20.268  0.00  0.00    +0.038 C 
ATOM     20  C   UNL     1      33.525 -19.483 -21.001  0.00  0.00    +0.001 C 
ATOM     21  C   UNL     1      34.879 -21.422 -19.522  0.00  0.00    +0.167 C 
ATOM     22  C   UNL     1      32.807 -20.418 -20.256  0.00  0.00    +0.040 C 
ATOM     23  C   UNL     1      33.485 -21.388 -19.516  0.00  0.00    +0.167 C 
BRANCH  21  24
ATOM     24  O   UNL     1      35.552 -22.364 -18.803  0.00  0.00    -0.503 OA
ATOM     25  H   UNL     1      35.188 -22.690 -18.004  0.00  0.00    +0.292 HD
ENDBRANCH  21  24
BRANCH  23  26
ATOM     26  O   UNL     1      32.772 -22.295 -18.792  0.00  0.00    -0.503 OA
ATOM     27  H   UNL     1      33.218 -22.909 -18.241  0.00  0.00    +0.292 HD
ENDBRANCH  23  26
ENDBRANCH  17  18
BRANCH  17  28
ATOM     28  O   UNL     1      35.627 -18.904 -23.179  0.00  0.00    -0.382 OA
ATOM     29  H   UNL     1      35.253 -18.180 -23.703  0.00  0.00    +0.211 HD
ENDBRANCH  17  28
ENDBRANCH  16  17
ENDBRANCH   1  16
TORSDOF 12
ENDMDL
