MODEL 1
REMARK VINA RESULT:      -8.6      0.000      0.000
REMARK  Name = 446640
REMARK  5 active torsions:
REMARK  status: ('A' for Active; 'I' for Inactive)
REMARK    1  A    between atoms: C_2  and  C_11
REMARK    2  A    between atoms: C_11  and  C_14
REMARK    3  A    between atoms: N_13  and  C_16
REMARK    4  A    between atoms: C_16  and  C_18
REMARK    5  A    between atoms: C_18  and  O_19
REMARK                            x       y       z     vdW  Elec       q    Type
REMARK                         _______ _______ _______ _____ _____    ______ ____
ROOT
ATOM      1  N   UNL     1      33.264 -23.138 -17.375  0.00  0.00    -0.312 N 
ATOM      2  C   UNL     1      35.067 -23.108 -16.080  0.00  0.00    +0.003 C 
ATOM      3  C   UNL     1      35.389 -22.462 -17.307  0.00  0.00    +0.011 C 
ATOM      4  C   UNL     1      34.241 -22.494 -18.101  0.00  0.00    +0.048 C 
ATOM      5  C   UNL     1      33.753 -23.512 -16.153  0.00  0.00    +0.058 C 
ATOM      6  C   UNL     1      36.551 -21.851 -17.819  0.00  0.00    +0.001 C 
ATOM      7  C   UNL     1      34.196 -21.944 -19.387  0.00  0.00    +0.015 C 
ATOM      8  C   UNL     1      36.522 -21.297 -19.104  0.00  0.00    +0.000 C 
ATOM      9  C   UNL     1      35.361 -21.344 -19.874  0.00  0.00    +0.001 C 
ATOM     10  H   UNL     1      32.347 -23.304 -17.689  0.00  0.00    +0.152 HD
ENDROOT
BRANCH   2  11
ATOM     11  C   UNL     1      35.971 -23.314 -14.931  0.00  0.00    +0.113 C 
BRANCH  11  14
ATOM     12  O   UNL     1      36.318 -25.620 -15.587  0.00  0.00    -0.275 OA
ATOM     13  N   UNL     1      37.971 -24.549 -14.356  0.00  0.00    -0.295 N 
ATOM     14  C   UNL     1      36.746 -24.626 -15.005  0.00  0.00    +0.227 C 
ATOM     15  H   UNL     1      38.218 -23.702 -13.919  0.00  0.00    +0.150 HD
BRANCH  13  16
ATOM     16  C   UNL     1      38.898 -25.654 -14.294  0.00  0.00    +0.200 C 
BRANCH  16  18
ATOM     17  O   UNL     1      41.090 -24.668 -14.416  0.00  0.00    -0.248 OA
ATOM     18  C   UNL     1      40.222 -25.349 -14.946  0.00  0.00    +0.334 C 
BRANCH  18  19
ATOM     19  O   UNL     1      40.358 -25.900 -16.176  0.00  0.00    -0.479 OA
ATOM     20  H   UNL     1      41.209 -25.997 -16.554  0.00  0.00    +0.295 HD
ENDBRANCH  18  19
ENDBRANCH  16  18
ENDBRANCH  13  16
ENDBRANCH  11  14
ENDBRANCH   2  11
TORSDOF 5
ENDMDL
MODEL 2
REMARK VINA RESULT:      -8.4      6.907      9.566
REMARK  Name = 446640
REMARK  5 active torsions:
REMARK  status: ('A' for Active; 'I' for Inactive)
REMARK    1  A    between atoms: C_2  and  C_11
REMARK    2  A    between atoms: C_11  and  C_14
REMARK    3  A    between atoms: N_13  and  C_16
REMARK    4  A    between atoms: C_16  and  C_18
REMARK    5  A    between atoms: C_18  and  O_19
REMARK                            x       y       z     vdW  Elec       q    Type
REMARK                         _______ _______ _______ _____ _____    ______ ____
ROOT
ATOM      1  N   UNL     1      32.688 -20.409 -20.522  0.00  0.00    -0.312 N 
ATOM      2  C   UNL     1      34.568 -19.481 -21.250  0.00  0.00    +0.003 C 
ATOM      3  C   UNL     1      34.903 -20.447 -20.259  0.00  0.00    +0.011 C 
ATOM      4  C   UNL     1      33.706 -21.014 -19.819  0.00  0.00    +0.048 C 
ATOM      5  C   UNL     1      33.199 -19.481 -21.388  0.00  0.00    +0.058 C 
ATOM      6  C   UNL     1      36.114 -20.894 -19.694  0.00  0.00    +0.001 C 
ATOM      7  C   UNL     1      33.658 -22.011 -18.838  0.00  0.00    +0.015 C 
ATOM      8  C   UNL     1      36.082 -21.890 -18.711  0.00  0.00    +0.000 C 
ATOM      9  C   UNL     1      34.872 -22.438 -18.291  0.00  0.00    +0.001 C 
ATOM     10  H   UNL     1      31.732 -20.614 -20.417  0.00  0.00    +0.152 HD
ENDROOT
BRANCH   2  11
ATOM     11  C   UNL     1      35.512 -18.627 -21.999  0.00  0.00    +0.113 C 
BRANCH  11  14
ATOM     12  O   UNL     1      34.984 -19.512 -24.192  0.00  0.00    -0.275 OA
ATOM     13  N   UNL     1      35.116 -17.209 -23.920  0.00  0.00    -0.295 N 
ATOM     14  C   UNL     1      35.179 -18.526 -23.485  0.00  0.00    +0.227 C 
ATOM     15  H   UNL     1      35.290 -16.491 -23.270  0.00  0.00    +0.150 HD
BRANCH  13  16
ATOM     16  C   UNL     1      34.805 -16.846 -25.283  0.00  0.00    +0.200 C 
BRANCH  16  18
ATOM     17  O   UNL     1      33.363 -15.132 -24.404  0.00  0.00    -0.248 OA
ATOM     18  C   UNL     1      33.796 -15.732 -25.380  0.00  0.00    +0.334 C 
BRANCH  18  19
ATOM     19  O   UNL     1      33.412 -15.460 -26.649  0.00  0.00    -0.479 OA
ATOM     20  H   UNL     1      33.234 -16.160 -27.245  0.00  0.00    +0.295 HD
ENDBRANCH  18  19
ENDBRANCH  16  18
ENDBRANCH  13  16
ENDBRANCH  11  14
ENDBRANCH   2  11
TORSDOF 5
ENDMDL
MODEL 3
REMARK VINA RESULT:      -8.3      6.895      9.467
REMARK  Name = 446640
REMARK  5 active torsions:
REMARK  status: ('A' for Active; 'I' for Inactive)
REMARK    1  A    between atoms: C_2  and  C_11
REMARK    2  A    between atoms: C_11  and  C_14
REMARK    3  A    between atoms: N_13  and  C_16
REMARK    4  A    between atoms: C_16  and  C_18
REMARK    5  A    between atoms: C_18  and  O_19
REMARK                            x       y       z     vdW  Elec       q    Type
REMARK                         _______ _______ _______ _____ _____    ______ ____
ROOT
ATOM      1  N   UNL     1      32.679 -20.699 -20.320  0.00  0.00    -0.312 N 
ATOM      2  C   UNL     1      34.326 -19.542 -21.258  0.00  0.00    +0.003 C 
ATOM      3  C   UNL     1      34.892 -20.420 -20.291  0.00  0.00    +0.011 C 
ATOM      4  C   UNL     1      33.839 -21.134 -19.718  0.00  0.00    +0.048 C 
ATOM      5  C   UNL     1      32.963 -19.737 -21.252  0.00  0.00    +0.058 C 
ATOM      6  C   UNL     1      36.205 -20.676 -19.848  0.00  0.00    +0.001 C 
ATOM      7  C   UNL     1      34.033 -22.096 -18.720  0.00  0.00    +0.015 C 
ATOM      8  C   UNL     1      36.415 -21.635 -18.850  0.00  0.00    +0.000 C 
ATOM      9  C   UNL     1      35.343 -22.332 -18.296  0.00  0.00    +0.001 C 
ATOM     10  H   UNL     1      31.777 -21.032 -20.112  0.00  0.00    +0.152 HD
ENDROOT
BRANCH   2  11
ATOM     11  C   UNL     1      35.057 -18.590 -22.117  0.00  0.00    +0.113 C 
BRANCH  11  14
ATOM     12  O   UNL     1      35.246 -16.823 -20.470  0.00  0.00    -0.275 OA
ATOM     13  N   UNL     1      34.566 -16.274 -22.621  0.00  0.00    -0.295 N 
ATOM     14  C   UNL     1      34.972 -17.148 -21.622  0.00  0.00    +0.227 C 
ATOM     15  H   UNL     1      34.370 -16.640 -23.514  0.00  0.00    +0.150 HD
BRANCH  13  16
ATOM     16  C   UNL     1      34.420 -14.853 -22.410  0.00  0.00    +0.200 C 
BRANCH  16  18
ATOM     17  O   UNL     1      33.286 -14.677 -24.526  0.00  0.00    -0.248 OA
ATOM     18  C   UNL     1      33.910 -14.127 -23.628  0.00  0.00    +0.334 C 
BRANCH  18  19
ATOM     19  O   UNL     1      34.211 -12.807 -23.635  0.00  0.00    -0.479 OA
ATOM     20  H   UNL     1      33.532 -12.172 -23.756  0.00  0.00    +0.295 HD
ENDBRANCH  18  19
ENDBRANCH  16  18
ENDBRANCH  13  16
ENDBRANCH  11  14
ENDBRANCH   2  11
TORSDOF 5
ENDMDL
MODEL 4
REMARK VINA RESULT:      -8.3      7.259     10.016
REMARK  Name = 446640
REMARK  5 active torsions:
REMARK  status: ('A' for Active; 'I' for Inactive)
REMARK    1  A    between atoms: C_2  and  C_11
REMARK    2  A    between atoms: C_11  and  C_14
REMARK    3  A    between atoms: N_13  and  C_16
REMARK    4  A    between atoms: C_16  and  C_18
REMARK    5  A    between atoms: C_18  and  O_19
REMARK                            x       y       z     vdW  Elec       q    Type
REMARK                         _______ _______ _______ _____ _____    ______ ____
ROOT
ATOM      1  N   UNL     1      36.800 -20.112 -20.222  0.00  0.00    -0.312 N 
ATOM      2  C   UNL     1      35.634 -18.627 -21.389  0.00  0.00    +0.003 C 
ATOM      3  C   UNL     1      34.723 -19.564 -20.825  0.00  0.00    +0.011 C 
ATOM      4  C   UNL     1      35.480 -20.484 -20.098  0.00  0.00    +0.048 C 
ATOM      5  C   UNL     1      36.902 -18.991 -21.000  0.00  0.00    +0.058 C 
ATOM      6  C   UNL     1      33.323 -19.717 -20.864  0.00  0.00    +0.001 C 
ATOM      7  C   UNL     1      34.904 -21.555 -19.403  0.00  0.00    +0.015 C 
ATOM      8  C   UNL     1      32.733 -20.784 -20.175  0.00  0.00    +0.000 C 
ATOM      9  C   UNL     1      33.514 -21.687 -19.457  0.00  0.00    +0.001 C 
ATOM     10  H   UNL     1      37.558 -20.583 -19.810  0.00  0.00    +0.152 HD
ENDROOT
BRANCH   2  11
ATOM     11  C   UNL     1      35.290 -17.471 -22.241  0.00  0.00    +0.113 C 
BRANCH  11  14
ATOM     12  O   UNL     1      35.000 -15.965 -20.365  0.00  0.00    -0.275 OA
ATOM     13  N   UNL     1      33.552 -15.789 -22.171  0.00  0.00    -0.295 N 
ATOM     14  C   UNL     1      34.617 -16.338 -21.471  0.00  0.00    +0.227 C 
ATOM     15  H   UNL     1      33.327 -16.163 -23.053  0.00  0.00    +0.150 HD
BRANCH  13  16
ATOM     16  C   UNL     1      32.758 -14.694 -21.664  0.00  0.00    +0.200 C 
BRANCH  16  18
ATOM     17  O   UNL     1      33.716 -13.204 -23.293  0.00  0.00    -0.248 OA
ATOM     18  C   UNL     1      32.772 -13.489 -22.568  0.00  0.00    +0.334 C 
BRANCH  18  19
ATOM     19  O   UNL     1      31.639 -12.750 -22.501  0.00  0.00    -0.479 OA
ATOM     20  H   UNL     1      31.499 -12.052 -23.109  0.00  0.00    +0.295 HD
ENDBRANCH  18  19
ENDBRANCH  16  18
ENDBRANCH  13  16
ENDBRANCH  11  14
ENDBRANCH   2  11
TORSDOF 5
ENDMDL
MODEL 5
REMARK VINA RESULT:      -8.3      1.576      2.232
REMARK  Name = 446640
REMARK  5 active torsions:
REMARK  status: ('A' for Active; 'I' for Inactive)
REMARK    1  A    between atoms: C_2  and  C_11
REMARK    2  A    between atoms: C_11  and  C_14
REMARK    3  A    between atoms: N_13  and  C_16
REMARK    4  A    between atoms: C_16  and  C_18
REMARK    5  A    between atoms: C_18  and  O_19
REMARK                            x       y       z     vdW  Elec       q    Type
REMARK                         _______ _______ _______ _____ _____    ______ ____
ROOT
ATOM      1  N   UNL     1      37.131 -21.644 -17.426  0.00  0.00    -0.312 N 
ATOM      2  C   UNL     1      36.276 -22.714 -15.680  0.00  0.00    +0.003 C 
ATOM      3  C   UNL     1      35.302 -22.706 -16.718  0.00  0.00    +0.011 C 
ATOM      4  C   UNL     1      35.863 -22.029 -17.802  0.00  0.00    +0.048 C 
ATOM      5  C   UNL     1      37.389 -22.054 -16.146  0.00  0.00    +0.058 C 
ATOM      6  C   UNL     1      33.992 -23.212 -16.839  0.00  0.00    +0.001 C 
ATOM      7  C   UNL     1      35.178 -21.831 -19.006  0.00  0.00    +0.015 C 
ATOM      8  C   UNL     1      33.294 -23.021 -18.038  0.00  0.00    +0.000 C 
ATOM      9  C   UNL     1      33.881 -22.341 -19.103  0.00  0.00    +0.001 C 
ATOM     10  H   UNL     1      37.760 -21.147 -17.996  0.00  0.00    +0.152 HD
ENDROOT
BRANCH   2  11
ATOM     11  C   UNL     1      36.128 -23.319 -14.341  0.00  0.00    +0.113 C 
BRANCH  11  14
ATOM     12  O   UNL     1      38.060 -23.442 -12.884  0.00  0.00    -0.275 OA
ATOM     13  N   UNL     1      37.771 -25.089 -14.496  0.00  0.00    -0.295 N 
ATOM     14  C   UNL     1      37.423 -23.931 -13.813  0.00  0.00    +0.227 C 
ATOM     15  H   UNL     1      37.189 -25.396 -15.228  0.00  0.00    +0.150 HD
BRANCH  13  16
ATOM     16  C   UNL     1      38.948 -25.864 -14.178  0.00  0.00    +0.200 C 
BRANCH  16  18
ATOM     17  O   UNL     1      40.967 -24.572 -14.393  0.00  0.00    -0.248 OA
ATOM     18  C   UNL     1      40.184 -25.373 -14.887  0.00  0.00    +0.334 C 
BRANCH  18  19
ATOM     19  O   UNL     1      40.344 -25.903 -16.122  0.00  0.00    -0.479 OA
ATOM     20  H   UNL     1      39.704 -26.495 -16.465  0.00  0.00    +0.295 HD
ENDBRANCH  18  19
ENDBRANCH  16  18
ENDBRANCH  13  16
ENDBRANCH  11  14
ENDBRANCH   2  11
TORSDOF 5
ENDMDL
MODEL 6
REMARK VINA RESULT:      -8.2      7.277     10.086
REMARK  Name = 446640
REMARK  5 active torsions:
REMARK  status: ('A' for Active; 'I' for Inactive)
REMARK    1  A    between atoms: C_2  and  C_11
REMARK    2  A    between atoms: C_11  and  C_14
REMARK    3  A    between atoms: N_13  and  C_16
REMARK    4  A    between atoms: C_16  and  C_18
REMARK    5  A    between atoms: C_18  and  O_19
REMARK                            x       y       z     vdW  Elec       q    Type
REMARK                         _______ _______ _______ _____ _____    ______ ____
ROOT
ATOM      1  N   UNL     1      36.873 -20.423 -20.184  0.00  0.00    -0.312 N 
ATOM      2  C   UNL     1      35.735 -18.796 -21.176  0.00  0.00    +0.003 C 
ATOM      3  C   UNL     1      34.802 -19.728 -20.639  0.00  0.00    +0.011 C 
ATOM      4  C   UNL     1      35.542 -20.738 -20.022  0.00  0.00    +0.048 C 
ATOM      5  C   UNL     1      36.999 -19.251 -20.880  0.00  0.00    +0.058 C 
ATOM      6  C   UNL     1      33.396 -19.807 -20.619  0.00  0.00    +0.001 C 
ATOM      7  C   UNL     1      34.943 -21.829 -19.382  0.00  0.00    +0.015 C 
ATOM      8  C   UNL     1      32.782 -20.894 -19.983  0.00  0.00    +0.000 C 
ATOM      9  C   UNL     1      33.547 -21.888 -19.376  0.00  0.00    +0.001 C 
ATOM     10  H   UNL     1      37.624 -20.961 -19.847  0.00  0.00    +0.152 HD
ENDROOT
BRANCH   2  11
ATOM     11  C   UNL     1      35.414 -17.561 -21.920  0.00  0.00    +0.113 C 
BRANCH  11  14
ATOM     12  O   UNL     1      35.145 -18.923 -23.905  0.00  0.00    -0.275 OA
ATOM     13  N   UNL     1      34.609 -16.667 -24.019  0.00  0.00    -0.295 N 
ATOM     14  C   UNL     1      35.054 -17.816 -23.381  0.00  0.00    +0.227 C 
ATOM     15  H   UNL     1      34.574 -15.828 -23.506  0.00  0.00    +0.150 HD
BRANCH  13  16
ATOM     16  C   UNL     1      34.194 -16.647 -25.403  0.00  0.00    +0.200 C 
BRANCH  16  18
ATOM     17  O   UNL     1      33.494 -14.947 -26.956  0.00  0.00    -0.248 OA
ATOM     18  C   UNL     1      33.535 -15.352 -25.801  0.00  0.00    +0.334 C 
BRANCH  18  19
ATOM     19  O   UNL     1      32.993 -14.680 -24.759  0.00  0.00    -0.479 OA
ATOM     20  H   UNL     1      32.978 -15.069 -23.907  0.00  0.00    +0.295 HD
ENDBRANCH  18  19
ENDBRANCH  16  18
ENDBRANCH  13  16
ENDBRANCH  11  14
ENDBRANCH   2  11
TORSDOF 5
ENDMDL
MODEL 7
REMARK VINA RESULT:      -8.2      1.686      3.391
REMARK  Name = 446640
REMARK  5 active torsions:
REMARK  status: ('A' for Active; 'I' for Inactive)
REMARK    1  A    between atoms: C_2  and  C_11
REMARK    2  A    between atoms: C_11  and  C_14
REMARK    3  A    between atoms: N_13  and  C_16
REMARK    4  A    between atoms: C_16  and  C_18
REMARK    5  A    between atoms: C_18  and  O_19
REMARK                            x       y       z     vdW  Elec       q    Type
REMARK                         _______ _______ _______ _____ _____    ______ ____
ROOT
ATOM      1  N   UNL     1      33.076 -23.071 -17.384  0.00  0.00    -0.312 N 
ATOM      2  C   UNL     1      34.435 -23.315 -15.646  0.00  0.00    +0.003 C 
ATOM      3  C   UNL     1      33.094 -23.348 -15.171  0.00  0.00    +0.011 C 
ATOM      4  C   UNL     1      32.262 -23.193 -16.281  0.00  0.00    +0.048 C 
ATOM      5  C   UNL     1      34.391 -23.143 -17.011  0.00  0.00    +0.058 C 
ATOM      6  C   UNL     1      32.508 -23.496 -13.898  0.00  0.00    +0.001 C 
ATOM      7  C   UNL     1      30.866 -23.178 -16.182  0.00  0.00    +0.015 C 
ATOM      8  C   UNL     1      31.112 -23.482 -13.784  0.00  0.00    +0.000 C 
ATOM      9  C   UNL     1      30.306 -23.325 -14.910  0.00  0.00    +0.001 C 
ATOM     10  H   UNL     1      32.759 -22.950 -18.308  0.00  0.00    +0.152 HD
ENDROOT
BRANCH   2  11
ATOM     11  C   UNL     1      35.661 -23.440 -14.832  0.00  0.00    +0.113 C 
BRANCH  11  14
ATOM     12  O   UNL     1      35.802 -25.773 -15.471  0.00  0.00    -0.275 OA
ATOM     13  N   UNL     1      37.688 -24.740 -14.595  0.00  0.00    -0.295 N 
ATOM     14  C   UNL     1      36.363 -24.784 -15.007  0.00  0.00    +0.227 C 
ATOM     15  H   UNL     1      38.041 -23.895 -14.236  0.00  0.00    +0.150 HD
BRANCH  13  16
ATOM     16  C   UNL     1      38.572 -25.880 -14.671  0.00  0.00    +0.200 C 
BRANCH  16  18
ATOM     17  O   UNL     1      40.665 -24.830 -14.117  0.00  0.00    -0.248 OA
ATOM     18  C   UNL     1      40.009 -25.495 -14.908  0.00  0.00    +0.334 C 
BRANCH  18  19
ATOM     19  O   UNL     1      40.505 -25.954 -16.081  0.00  0.00    -0.479 OA
ATOM     20  H   UNL     1      41.167 -25.469 -16.532  0.00  0.00    +0.295 HD
ENDBRANCH  18  19
ENDBRANCH  16  18
ENDBRANCH  13  16
ENDBRANCH  11  14
ENDBRANCH   2  11
TORSDOF 5
ENDMDL
MODEL 8
REMARK VINA RESULT:      -8.1      5.404      7.832
REMARK  Name = 446640
REMARK  5 active torsions:
REMARK  status: ('A' for Active; 'I' for Inactive)
REMARK    1  A    between atoms: C_2  and  C_11
REMARK    2  A    between atoms: C_11  and  C_14
REMARK    3  A    between atoms: N_13  and  C_16
REMARK    4  A    between atoms: C_16  and  C_18
REMARK    5  A    between atoms: C_18  and  O_19
REMARK                            x       y       z     vdW  Elec       q    Type
REMARK                         _______ _______ _______ _____ _____    ______ ____
ROOT
ATOM      1  N   UNL     1      35.138 -17.332 -24.233  0.00  0.00    -0.312 N 
ATOM      2  C   UNL     1      35.320 -18.342 -22.264  0.00  0.00    +0.003 C 
ATOM      3  C   UNL     1      34.960 -16.984 -22.037  0.00  0.00    +0.011 C 
ATOM      4  C   UNL     1      34.852 -16.373 -23.287  0.00  0.00    +0.048 C 
ATOM      5  C   UNL     1      35.422 -18.525 -23.624  0.00  0.00    +0.058 C 
ATOM      6  C   UNL     1      34.714 -16.214 -20.882  0.00  0.00    +0.001 C 
ATOM      7  C   UNL     1      34.509 -15.025 -23.443  0.00  0.00    +0.015 C 
ATOM      8  C   UNL     1      34.371 -14.864 -21.022  0.00  0.00    +0.000 C 
ATOM      9  C   UNL     1      34.271 -14.281 -22.284  0.00  0.00    +0.001 C 
ATOM     10  H   UNL     1      35.138 -17.183 -25.205  0.00  0.00    +0.152 HD
ENDROOT
BRANCH   2  11
ATOM     11  C   UNL     1      35.547 -19.376 -21.235  0.00  0.00    +0.113 C 
BRANCH  11  14
ATOM     12  O   UNL     1      33.146 -19.694 -21.149  0.00  0.00    -0.275 OA
ATOM     13  N   UNL     1      34.499 -21.047 -19.833  0.00  0.00    -0.295 N 
ATOM     14  C   UNL     1      34.257 -20.033 -20.750  0.00  0.00    +0.227 C 
ATOM     15  H   UNL     1      35.430 -21.240 -19.580  0.00  0.00    +0.150 HD
BRANCH  13  16
ATOM     16  C   UNL     1      33.445 -21.832 -19.234  0.00  0.00    +0.200 C 
BRANCH  16  18
ATOM     17  O   UNL     1      34.514 -22.846 -17.332  0.00  0.00    -0.248 OA
ATOM     18  C   UNL     1      33.963 -22.986 -18.416  0.00  0.00    +0.334 C 
BRANCH  18  19
ATOM     19  O   UNL     1      33.761 -24.193 -18.995  0.00  0.00    -0.479 OA
ATOM     20  H   UNL     1      34.454 -24.824 -19.017  0.00  0.00    +0.295 HD
ENDBRANCH  18  19
ENDBRANCH  16  18
ENDBRANCH  13  16
ENDBRANCH  11  14
ENDBRANCH   2  11
TORSDOF 5
ENDMDL
MODEL 9
REMARK VINA RESULT:      -8.0      6.788      9.395
REMARK  Name = 446640
REMARK  5 active torsions:
REMARK  status: ('A' for Active; 'I' for Inactive)
REMARK    1  A    between atoms: C_2  and  C_11
REMARK    2  A    between atoms: C_11  and  C_14
REMARK    3  A    between atoms: N_13  and  C_16
REMARK    4  A    between atoms: C_16  and  C_18
REMARK    5  A    between atoms: C_18  and  O_19
REMARK                            x       y       z     vdW  Elec       q    Type
REMARK                         _______ _______ _______ _____ _____    ______ ____
ROOT
ATOM      1  N   UNL     1      33.814 -16.892 -25.690  0.00  0.00    -0.312 N 
ATOM      2  C   UNL     1      34.946 -17.491 -23.877  0.00  0.00    +0.003 C 
ATOM      3  C   UNL     1      34.527 -16.141 -23.714  0.00  0.00    +0.011 C 
ATOM      4  C   UNL     1      33.819 -15.789 -24.864  0.00  0.00    +0.048 C 
ATOM      5  C   UNL     1      34.493 -17.925 -25.102  0.00  0.00    +0.058 C 
ATOM      6  C   UNL     1      34.683 -15.182 -22.693  0.00  0.00    +0.001 C 
ATOM      7  C   UNL     1      33.256 -14.521 -25.046  0.00  0.00    +0.015 C 
ATOM      8  C   UNL     1      34.126 -13.908 -22.862  0.00  0.00    +0.000 C 
ATOM      9  C   UNL     1      33.424 -13.586 -24.022  0.00  0.00    +0.001 C 
ATOM     10  H   UNL     1      33.384 -16.931 -26.573  0.00  0.00    +0.152 HD
ENDROOT
BRANCH   2  11
ATOM     11  C   UNL     1      35.728 -18.292 -22.914  0.00  0.00    +0.113 C 
BRANCH  11  14
ATOM     12  O   UNL     1      35.226 -17.891 -20.578  0.00  0.00    -0.275 OA
ATOM     13  N   UNL     1      34.043 -19.540 -21.706  0.00  0.00    -0.295 N 
ATOM     14  C   UNL     1      34.993 -18.533 -21.598  0.00  0.00    +0.227 C 
ATOM     15  H   UNL     1      33.936 -19.994 -22.573  0.00  0.00    +0.150 HD
BRANCH  13  16
ATOM     16  C   UNL     1      33.204 -19.950 -20.604  0.00  0.00    +0.200 C 
BRANCH  16  18
ATOM     17  O   UNL     1      34.959 -21.246 -19.587  0.00  0.00    -0.248 OA
ATOM     18  C   UNL     1      33.768 -21.121 -19.841  0.00  0.00    +0.334 C 
BRANCH  18  19
ATOM     19  O   UNL     1      32.830 -22.021 -19.463  0.00  0.00    -0.479 OA
ATOM     20  H   UNL     1      33.080 -22.901 -19.259  0.00  0.00    +0.295 HD
ENDBRANCH  18  19
ENDBRANCH  16  18
ENDBRANCH  13  16
ENDBRANCH  11  14
ENDBRANCH   2  11
TORSDOF 5
ENDMDL
