MODEL 1
REMARK VINA RESULT:     -10.5      0.000      0.000
REMARK  Name = 114743
REMARK  2 active torsions:
REMARK  status: ('A' for Active; 'I' for Inactive)
REMARK    1  A    between atoms: C_1  and  C_13
REMARK    2  A    between atoms: C_4  and  N_19
REMARK                            x       y       z     vdW  Elec       q    Type
REMARK                         _______ _______ _______ _____ _____    ______ ____
ROOT
ATOM      1  C   UNL     1      35.132 -17.011 -21.576  0.00  0.00    +0.044 C 
ATOM      2  C   UNL     1      34.652 -15.964 -20.551  0.00  0.00    +0.007 C 
ATOM      3  C   UNL     1      34.704 -14.557 -21.137  0.00  0.00    -0.017 C 
ATOM      4  C   UNL     1      33.771 -14.435 -22.349  0.00  0.00    -0.043 C 
ATOM      5  C   UNL     1      34.655 -16.745 -23.002  0.00  0.00    -0.024 C 
ATOM      6  C   UNL     1      34.040 -15.528 -23.363  0.00  0.00    -0.046 C 
ATOM      7  C   UNL     1      34.909 -17.697 -24.009  0.00  0.00    -0.004 C 
ATOM      8  C   UNL     1      33.650 -15.319 -24.698  0.00  0.00    -0.007 C 
ATOM      9  C   UNL     1      34.520 -17.473 -25.329  0.00  0.00    -0.000 C 
ATOM     10  C   UNL     1      33.885 -16.286 -25.674  0.00  0.00    -0.000 C 
ENDROOT
BRANCH   1  13
ATOM     11 CL   UNL     1      36.838 -21.594 -19.825  0.00  0.00    -0.081 Cl
ATOM     12 CL   UNL     1      33.749 -22.511 -19.519  0.00  0.00    -0.081 Cl
ATOM     13  C   UNL     1      34.799 -18.403 -21.055  0.00  0.00    -0.018 C 
ATOM     14  C   UNL     1      35.827 -19.276 -20.713  0.00  0.00    +0.008 C 
ATOM     15  C   UNL     1      33.471 -18.791 -20.925  0.00  0.00    -0.003 C 
ATOM     16  C   UNL     1      35.523 -20.551 -20.236  0.00  0.00    +0.068 C 
ATOM     17  C   UNL     1      33.165 -20.066 -20.448  0.00  0.00    +0.012 C 
ATOM     18  C   UNL     1      34.192 -20.946 -20.104  0.00  0.00    +0.068 C 
ENDBRANCH   1  13
BRANCH   4  19
ATOM     19  N   UNL     1      32.370 -14.460 -21.919  0.00  0.00    +0.384 N 
ATOM     20  H   UNL     1      31.801 -14.902 -22.641  0.00  0.00    -0.089 HD
ATOM     21  H   UNL     1      32.043 -13.505 -21.767  0.00  0.00    -0.089 HD
ATOM     22  H   UNL     1      32.289 -14.989 -21.051  0.00  0.00    -0.089 HD
ENDBRANCH   4  19
TORSDOF 2
ENDMDL
MODEL 2
REMARK VINA RESULT:      -8.9      5.211      7.435
REMARK  Name = 114743
REMARK  2 active torsions:
REMARK  status: ('A' for Active; 'I' for Inactive)
REMARK    1  A    between atoms: C_1  and  C_13
REMARK    2  A    between atoms: C_4  and  N_19
REMARK                            x       y       z     vdW  Elec       q    Type
REMARK                         _______ _______ _______ _____ _____    ______ ____
ROOT
ATOM      1  C   UNL     1      32.337 -13.468 -22.635  0.00  0.00    +0.044 C 
ATOM      2  C   UNL     1      32.539 -13.702 -21.124  0.00  0.00    +0.007 C 
ATOM      3  C   UNL     1      32.492 -15.189 -20.788  0.00  0.00    -0.017 C 
ATOM      4  C   UNL     1      33.620 -15.947 -21.499  0.00  0.00    -0.043 C 
ATOM      5  C   UNL     1      33.047 -14.489 -23.521  0.00  0.00    -0.024 C 
ATOM      6  C   UNL     1      33.625 -15.658 -22.987  0.00  0.00    -0.046 C 
ATOM      7  C   UNL     1      33.055 -14.309 -24.918  0.00  0.00    -0.004 C 
ATOM      8  C   UNL     1      34.238 -16.584 -23.850  0.00  0.00    -0.007 C 
ATOM      9  C   UNL     1      33.663 -15.239 -25.761  0.00  0.00    -0.000 C 
ATOM     10  C   UNL     1      34.260 -16.374 -25.227  0.00  0.00    -0.000 C 
ENDROOT
BRANCH   1  13
ATOM     11 CL   UNL     1      35.324 -10.098 -25.226  0.00  0.00    -0.081 Cl
ATOM     12 CL   UNL     1      33.610  -7.704 -23.883  0.00  0.00    -0.081 Cl
ATOM     13  C   UNL     1      32.671 -12.017 -22.960  0.00  0.00    -0.018 C 
ATOM     14  C   UNL     1      33.713 -11.728 -23.834  0.00  0.00    +0.008 C 
ATOM     15  C   UNL     1      31.931 -10.993 -22.380  0.00  0.00    -0.003 C 
ATOM     16  C   UNL     1      34.019 -10.401 -24.132  0.00  0.00    +0.068 C 
ATOM     17  C   UNL     1      32.236  -9.665 -22.678  0.00  0.00    +0.012 C 
ATOM     18  C   UNL     1      33.281  -9.369 -23.553  0.00  0.00    +0.068 C 
ENDBRANCH   1  13
BRANCH   4  19
ATOM     19  N   UNL     1      34.916 -15.612 -20.901  0.00  0.00    +0.384 N 
ATOM     20  H   UNL     1      34.857 -15.705 -19.887  0.00  0.00    -0.089 HD
ATOM     21  H   UNL     1      35.163 -14.652 -21.140  0.00  0.00    -0.089 HD
ATOM     22  H   UNL     1      35.630 -16.246 -21.259  0.00  0.00    -0.089 HD
ENDBRANCH   4  19
TORSDOF 2
ENDMDL
MODEL 3
REMARK VINA RESULT:      -8.7      3.356      5.483
REMARK  Name = 114743
REMARK  2 active torsions:
REMARK  status: ('A' for Active; 'I' for Inactive)
REMARK    1  A    between atoms: C_1  and  C_13
REMARK    2  A    between atoms: C_4  and  N_19
REMARK                            x       y       z     vdW  Elec       q    Type
REMARK                         _______ _______ _______ _____ _____    ______ ____
ROOT
ATOM      1  C   UNL     1      33.087 -13.389 -23.821  0.00  0.00    +0.044 C 
ATOM      2  C   UNL     1      34.025 -12.900 -24.943  0.00  0.00    +0.007 C 
ATOM      3  C   UNL     1      33.564 -11.557 -25.497  0.00  0.00    -0.017 C 
ATOM      4  C   UNL     1      33.590 -10.476 -24.408  0.00  0.00    -0.043 C 
ATOM      5  C   UNL     1      32.613 -12.282 -22.883  0.00  0.00    -0.024 C 
ATOM      6  C   UNL     1      32.831 -10.920 -23.174  0.00  0.00    -0.046 C 
ATOM      7  C   UNL     1      31.862 -12.616 -21.738  0.00  0.00    -0.004 C 
ATOM      8  C   UNL     1      32.343  -9.937 -22.294  0.00  0.00    -0.007 C 
ATOM      9  C   UNL     1      31.383 -11.629 -20.877  0.00  0.00    -0.000 C 
ATOM     10  C   UNL     1      31.627 -10.289 -21.152  0.00  0.00    -0.000 C 
ENDROOT
BRANCH   1  13
ATOM     11 CL   UNL     1      34.979 -18.218 -24.124  0.00  0.00    -0.081 Cl
ATOM     12 CL   UNL     1      35.654 -18.043 -20.964  0.00  0.00    -0.081 Cl
ATOM     13  C   UNL     1      33.735 -14.573 -23.114  0.00  0.00    -0.018 C 
ATOM     14  C   UNL     1      34.034 -15.727 -23.832  0.00  0.00    +0.008 C 
ATOM     15  C   UNL     1      34.023 -14.492 -21.756  0.00  0.00    -0.003 C 
ATOM     16  C   UNL     1      34.628 -16.810 -23.185  0.00  0.00    +0.068 C 
ATOM     17  C   UNL     1      34.617 -15.575 -21.109  0.00  0.00    +0.012 C 
ATOM     18  C   UNL     1      34.918 -16.734 -21.823  0.00  0.00    +0.068 C 
ENDBRANCH   1  13
BRANCH   4  19
ATOM     19  N   UNL     1      34.973 -10.128 -24.068  0.00  0.00    +0.384 N 
ATOM     20  H   UNL     1      35.395  -9.616 -24.843  0.00  0.00    -0.089 HD
ATOM     21  H   UNL     1      35.506 -10.981 -23.895  0.00  0.00    -0.089 HD
ATOM     22  H   UNL     1      34.982  -9.546 -23.231  0.00  0.00    -0.089 HD
ENDBRANCH   4  19
TORSDOF 2
ENDMDL
MODEL 4
REMARK VINA RESULT:      -8.7      5.413      7.650
REMARK  Name = 114743
REMARK  2 active torsions:
REMARK  status: ('A' for Active; 'I' for Inactive)
REMARK    1  A    between atoms: C_1  and  C_13
REMARK    2  A    between atoms: C_4  and  N_19
REMARK                            x       y       z     vdW  Elec       q    Type
REMARK                         _______ _______ _______ _____ _____    ______ ____
ROOT
ATOM      1  C   UNL     1      32.418 -13.420 -22.722  0.00  0.00    +0.044 C 
ATOM      2  C   UNL     1      32.606 -13.655 -21.210  0.00  0.00    +0.007 C 
ATOM      3  C   UNL     1      32.492 -15.136 -20.867  0.00  0.00    -0.017 C 
ATOM      4  C   UNL     1      33.588 -15.948 -21.570  0.00  0.00    -0.043 C 
ATOM      5  C   UNL     1      33.085 -14.476 -23.601  0.00  0.00    -0.024 C 
ATOM      6  C   UNL     1      33.610 -15.667 -23.059  0.00  0.00    -0.046 C 
ATOM      7  C   UNL     1      33.105 -14.305 -24.999  0.00  0.00    -0.004 C 
ATOM      8  C   UNL     1      34.183 -16.624 -23.915  0.00  0.00    -0.007 C 
ATOM      9  C   UNL     1      33.674 -15.265 -25.835  0.00  0.00    -0.000 C 
ATOM     10  C   UNL     1      34.219 -16.423 -25.294  0.00  0.00    -0.000 C 
ENDROOT
BRANCH   1  13
ATOM     11 CL   UNL     1      31.621  -8.337 -22.009  0.00  0.00    -0.081 Cl
ATOM     12 CL   UNL     1      34.044  -7.770 -24.078  0.00  0.00    -0.081 Cl
ATOM     13  C   UNL     1      32.817 -11.988 -23.054  0.00  0.00    -0.018 C 
ATOM     14  C   UNL     1      32.135 -10.928 -22.466  0.00  0.00    +0.008 C 
ATOM     15  C   UNL     1      33.859 -11.751 -23.944  0.00  0.00    -0.003 C 
ATOM     16  C   UNL     1      32.500  -9.616 -22.769  0.00  0.00    +0.068 C 
ATOM     17  C   UNL     1      34.224 -10.440 -24.248  0.00  0.00    +0.012 C 
ATOM     18  C   UNL     1      33.544  -9.372 -23.661  0.00  0.00    +0.068 C 
ENDBRANCH   1  13
BRANCH   4  19
ATOM     19  N   UNL     1      34.896 -15.667 -20.970  0.00  0.00    +0.384 N 
ATOM     20  H   UNL     1      34.972 -14.669 -20.772  0.00  0.00    -0.089 HD
ATOM     21  H   UNL     1      35.634 -15.941 -21.619  0.00  0.00    -0.089 HD
ATOM     22  H   UNL     1      34.992 -16.193 -20.102  0.00  0.00    -0.089 HD
ENDBRANCH   4  19
TORSDOF 2
ENDMDL
MODEL 5
REMARK VINA RESULT:      -8.4      5.038      8.904
REMARK  Name = 114743
REMARK  2 active torsions:
REMARK  status: ('A' for Active; 'I' for Inactive)
REMARK    1  A    between atoms: C_1  and  C_13
REMARK    2  A    between atoms: C_4  and  N_19
REMARK                            x       y       z     vdW  Elec       q    Type
REMARK                         _______ _______ _______ _____ _____    ______ ____
ROOT
ATOM      1  C   UNL     1      33.737 -23.368 -17.291  0.00  0.00    +0.044 C 
ATOM      2  C   UNL     1      32.223 -23.168 -17.078  0.00  0.00    +0.007 C 
ATOM      3  C   UNL     1      31.729 -23.963 -15.875  0.00  0.00    -0.017 C 
ATOM      4  C   UNL     1      32.413 -23.489 -14.586  0.00  0.00    -0.043 C 
ATOM      5  C   UNL     1      34.546 -23.402 -15.996  0.00  0.00    -0.024 C 
ATOM      6  C   UNL     1      33.922 -23.482 -14.735  0.00  0.00    -0.046 C 
ATOM      7  C   UNL     1      35.953 -23.443 -16.057  0.00  0.00    -0.004 C 
ATOM      8  C   UNL     1      34.712 -23.547 -13.574  0.00  0.00    -0.007 C 
ATOM      9  C   UNL     1      36.723 -23.510 -14.897  0.00  0.00    -0.000 C 
ATOM     10  C   UNL     1      36.104 -23.557 -13.653  0.00  0.00    -0.000 C 
ENDROOT
BRANCH   1  13
ATOM     11 CL   UNL     1      32.590 -19.895 -20.981  0.00  0.00    -0.081 Cl
ATOM     12 CL   UNL     1      35.762 -19.349 -21.311  0.00  0.00    -0.081 Cl
ATOM     13  C   UNL     1      34.233 -22.350 -18.311  0.00  0.00    -0.018 C 
ATOM     14  C   UNL     1      33.317 -21.658 -19.097  0.00  0.00    +0.008 C 
ATOM     15  C   UNL     1      35.597 -22.119 -18.448  0.00  0.00    -0.003 C 
ATOM     16  C   UNL     1      33.770 -20.726 -20.031  0.00  0.00    +0.068 C 
ATOM     17  C   UNL     1      36.051 -21.187 -19.381  0.00  0.00    +0.012 C 
ATOM     18  C   UNL     1      35.138 -20.491 -20.173  0.00  0.00    +0.068 C 
ENDBRANCH   1  13
BRANCH   4  19
ATOM     19  N   UNL     1      31.925 -22.160 -14.208  0.00  0.00    +0.384 N 
ATOM     20  H   UNL     1      30.968 -22.041 -14.541  0.00  0.00    -0.089 HD
ATOM     21  H   UNL     1      32.520 -21.446 -14.626  0.00  0.00    -0.089 HD
ATOM     22  H   UNL     1      31.944 -22.066 -13.192  0.00  0.00    -0.089 HD
ENDBRANCH   4  19
TORSDOF 2
ENDMDL
MODEL 6
REMARK VINA RESULT:      -8.4      1.535      3.283
REMARK  Name = 114743
REMARK  2 active torsions:
REMARK  status: ('A' for Active; 'I' for Inactive)
REMARK    1  A    between atoms: C_1  and  C_13
REMARK    2  A    between atoms: C_4  and  N_19
REMARK                            x       y       z     vdW  Elec       q    Type
REMARK                         _______ _______ _______ _____ _____    ______ ____
ROOT
ATOM      1  C   UNL     1      33.930 -18.550 -22.436  0.00  0.00    +0.044 C 
ATOM      2  C   UNL     1      34.559 -18.821 -23.817  0.00  0.00    +0.007 C 
ATOM      3  C   UNL     1      34.060 -17.820 -24.854  0.00  0.00    -0.017 C 
ATOM      4  C   UNL     1      34.459 -16.389 -24.470  0.00  0.00    -0.043 C 
ATOM      5  C   UNL     1      33.809 -17.067 -22.091  0.00  0.00    -0.024 C 
ATOM      6  C   UNL     1      34.035 -16.062 -23.052  0.00  0.00    -0.046 C 
ATOM      7  C   UNL     1      33.377 -16.687 -20.805  0.00  0.00    -0.004 C 
ATOM      8  C   UNL     1      33.877 -14.711 -22.692  0.00  0.00    -0.007 C 
ATOM      9  C   UNL     1      33.221 -15.343 -20.464  0.00  0.00    -0.000 C 
ATOM     10  C   UNL     1      33.476 -14.354 -21.406  0.00  0.00    -0.000 C 
ENDROOT
BRANCH   1  13
ATOM     11 CL   UNL     1      33.729 -22.293 -18.839  0.00  0.00    -0.081 Cl
ATOM     12 CL   UNL     1      36.881 -21.799 -18.297  0.00  0.00    -0.081 Cl
ATOM     13  C   UNL     1      34.661 -19.378 -21.387  0.00  0.00    -0.018 C 
ATOM     14  C   UNL     1      33.968 -20.345 -20.666  0.00  0.00    +0.008 C 
ATOM     15  C   UNL     1      36.015 -19.162 -21.159  0.00  0.00    -0.003 C 
ATOM     16  C   UNL     1      34.637 -21.104 -19.706  0.00  0.00    +0.068 C 
ATOM     17  C   UNL     1      36.685 -19.921 -20.199  0.00  0.00    +0.012 C 
ATOM     18  C   UNL     1      35.995 -20.892 -19.472  0.00  0.00    +0.068 C 
ENDBRANCH   1  13
BRANCH   4  19
ATOM     19  N   UNL     1      35.903 -16.200 -24.635  0.00  0.00    +0.384 N 
ATOM     20  H   UNL     1      36.207 -15.400 -24.079  0.00  0.00    -0.089 HD
ATOM     21  H   UNL     1      36.114 -16.028 -25.619  0.00  0.00    -0.089 HD
ATOM     22  H   UNL     1      36.394 -17.037 -24.323  0.00  0.00    -0.089 HD
ENDBRANCH   4  19
TORSDOF 2
ENDMDL
MODEL 7
REMARK VINA RESULT:      -8.3      8.462     10.706
REMARK  Name = 114743
REMARK  2 active torsions:
REMARK  status: ('A' for Active; 'I' for Inactive)
REMARK    1  A    between atoms: C_1  and  C_13
REMARK    2  A    between atoms: C_4  and  N_19
REMARK                            x       y       z     vdW  Elec       q    Type
REMARK                         _______ _______ _______ _____ _____    ______ ____
ROOT
ATOM      1  C   UNL     1      33.319  -7.123 -22.760  0.00  0.00    +0.044 C 
ATOM      2  C   UNL     1      32.455  -7.134 -21.483  0.00  0.00    +0.007 C 
ATOM      3  C   UNL     1      32.041  -5.721 -21.088  0.00  0.00    -0.017 C 
ATOM      4  C   UNL     1      31.184  -5.074 -22.184  0.00  0.00    -0.043 C 
ATOM      5  C   UNL     1      32.849  -6.126 -23.817  0.00  0.00    -0.024 C 
ATOM      6  C   UNL     1      31.867  -5.155 -23.535  0.00  0.00    -0.046 C 
ATOM      7  C   UNL     1      33.468  -6.112 -25.082  0.00  0.00    -0.004 C 
ATOM      8  C   UNL     1      31.494  -4.237 -24.533  0.00  0.00    -0.007 C 
ATOM      9  C   UNL     1      33.090  -5.193 -26.060  0.00  0.00    -0.000 C 
ATOM     10  C   UNL     1      32.099  -4.258 -25.789  0.00  0.00    -0.000 C 
ENDROOT
BRANCH   1  13
ATOM     11 CL   UNL     1      35.797 -10.465 -25.872  0.00  0.00    -0.081 Cl
ATOM     12 CL   UNL     1      33.860 -12.797 -24.739  0.00  0.00    -0.081 Cl
ATOM     13  C   UNL     1      33.468  -8.551 -23.270  0.00  0.00    -0.018 C 
ATOM     14  C   UNL     1      34.438  -8.846 -24.222  0.00  0.00    +0.008 C 
ATOM     15  C   UNL     1      32.634  -9.549 -22.779  0.00  0.00    -0.003 C 
ATOM     16  C   UNL     1      34.575 -10.153 -24.689  0.00  0.00    +0.068 C 
ATOM     17  C   UNL     1      32.770 -10.856 -23.245  0.00  0.00    +0.012 C 
ATOM     18  C   UNL     1      33.740 -11.158 -24.201  0.00  0.00    +0.068 C 
ENDBRANCH   1  13
BRANCH   4  19
ATOM     19  N   UNL     1      29.860  -5.703 -22.235  0.00  0.00    +0.384 N 
ATOM     20  H   UNL     1      29.323  -5.301 -23.004  0.00  0.00    -0.089 HD
ATOM     21  H   UNL     1      29.371  -5.536 -21.356  0.00  0.00    -0.089 HD
ATOM     22  H   UNL     1      29.965  -6.707 -22.382  0.00  0.00    -0.089 HD
ENDBRANCH   4  19
TORSDOF 2
ENDMDL
MODEL 8
REMARK VINA RESULT:      -8.3      4.807      8.520
REMARK  Name = 114743
REMARK  2 active torsions:
REMARK  status: ('A' for Active; 'I' for Inactive)
REMARK    1  A    between atoms: C_1  and  C_13
REMARK    2  A    between atoms: C_4  and  N_19
REMARK                            x       y       z     vdW  Elec       q    Type
REMARK                         _______ _______ _______ _____ _____    ______ ____
ROOT
ATOM      1  C   UNL     1      33.503 -23.204 -17.524  0.00  0.00    +0.044 C 
ATOM      2  C   UNL     1      32.015 -23.125 -17.130  0.00  0.00    +0.007 C 
ATOM      3  C   UNL     1      31.729 -23.969 -15.892  0.00  0.00    -0.017 C 
ATOM      4  C   UNL     1      32.525 -23.457 -14.685  0.00  0.00    -0.043 C 
ATOM      5  C   UNL     1      34.461 -23.190 -16.335  0.00  0.00    -0.024 C 
ATOM      6  C   UNL     1      34.000 -23.332 -15.011  0.00  0.00    -0.046 C 
ATOM      7  C   UNL     1      35.849 -23.121 -16.563  0.00  0.00    -0.004 C 
ATOM      8  C   UNL     1      34.927 -23.347 -13.953  0.00  0.00    -0.007 C 
ATOM      9  C   UNL     1      36.756 -23.141 -15.503  0.00  0.00    -0.000 C 
ATOM     10  C   UNL     1      36.295 -23.249 -14.197  0.00  0.00    -0.000 C 
ENDROOT
BRANCH   1  13
ATOM     11 CL   UNL     1      37.030 -20.588 -20.300  0.00  0.00    -0.081 Cl
ATOM     12 CL   UNL     1      34.591 -18.978 -21.691  0.00  0.00    -0.081 Cl
ATOM     13  C   UNL     1      33.794 -22.140 -18.575  0.00  0.00    -0.018 C 
ATOM     14  C   UNL     1      35.110 -21.864 -18.932  0.00  0.00    +0.008 C 
ATOM     15  C   UNL     1      32.742 -21.452 -19.169  0.00  0.00    -0.003 C 
ATOM     16  C   UNL     1      35.377 -20.890 -19.894  0.00  0.00    +0.068 C 
ATOM     17  C   UNL     1      33.008 -20.478 -20.131  0.00  0.00    +0.012 C 
ATOM     18  C   UNL     1      34.326 -20.197 -20.493  0.00  0.00    +0.068 C 
ENDBRANCH   1  13
BRANCH   4  19
ATOM     19  N   UNL     1      31.986 -22.174 -14.224  0.00  0.00    +0.384 N 
ATOM     20  H   UNL     1      30.991 -22.276 -14.023  0.00  0.00    -0.089 HD
ATOM     21  H   UNL     1      32.114 -21.470 -14.951  0.00  0.00    -0.089 HD
ATOM     22  H   UNL     1      32.475 -21.883 -13.378  0.00  0.00    -0.089 HD
ENDBRANCH   4  19
TORSDOF 2
ENDMDL
MODEL 9
REMARK VINA RESULT:      -8.1      8.759     10.947
REMARK  Name = 114743
REMARK  2 active torsions:
REMARK  status: ('A' for Active; 'I' for Inactive)
REMARK    1  A    between atoms: C_1  and  C_13
REMARK    2  A    between atoms: C_4  and  N_19
REMARK                            x       y       z     vdW  Elec       q    Type
REMARK                         _______ _______ _______ _____ _____    ______ ____
ROOT
ATOM      1  C   UNL     1      32.295  -6.348 -22.397  0.00  0.00    +0.044 C 
ATOM      2  C   UNL     1      30.988  -5.549 -22.217  0.00  0.00    +0.007 C 
ATOM      3  C   UNL     1      31.120  -4.145 -22.798  0.00  0.00    -0.017 C 
ATOM      4  C   UNL     1      31.389  -4.199 -24.307  0.00  0.00    -0.043 C 
ATOM      5  C   UNL     1      32.977  -6.125 -23.745  0.00  0.00    -0.024 C 
ATOM      6  C   UNL     1      32.564  -5.103 -24.624  0.00  0.00    -0.046 C 
ATOM      7  C   UNL     1      34.103  -6.897 -24.090  0.00  0.00    -0.004 C 
ATOM      8  C   UNL     1      33.248  -4.916 -25.839  0.00  0.00    -0.007 C 
ATOM      9  C   UNL     1      34.774  -6.697 -25.296  0.00  0.00    -0.000 C 
ATOM     10  C   UNL     1      34.343  -5.710 -26.174  0.00  0.00    -0.000 C 
ENDROOT
BRANCH   1  13
ATOM     11 CL   UNL     1      32.175 -10.114 -18.821  0.00  0.00    -0.081 Cl
ATOM     12 CL   UNL     1      31.228 -12.154 -21.148  0.00  0.00    -0.081 Cl
ATOM     13  C   UNL     1      32.029  -7.811 -22.066  0.00  0.00    -0.018 C 
ATOM     14  C   UNL     1      32.196  -8.265 -20.762  0.00  0.00    +0.008 C 
ATOM     15  C   UNL     1      31.622  -8.683 -23.070  0.00  0.00    -0.003 C 
ATOM     16  C   UNL     1      31.953  -9.604 -20.458  0.00  0.00    +0.068 C 
ATOM     17  C   UNL     1      31.379 -10.022 -22.767  0.00  0.00    +0.012 C 
ATOM     18  C   UNL     1      31.545 -10.483 -21.461  0.00  0.00    +0.068 C 
ENDBRANCH   1  13
BRANCH   4  19
ATOM     19  N   UNL     1      30.189  -4.640 -25.025  0.00  0.00    +0.384 N 
ATOM     20  H   UNL     1      29.522  -5.036 -24.361  0.00  0.00    -0.089 HD
ATOM     21  H   UNL     1      30.444  -5.348 -25.713  0.00  0.00    -0.089 HD
ATOM     22  H   UNL     1      29.764  -3.843 -25.498  0.00  0.00    -0.089 HD
ENDBRANCH   4  19
TORSDOF 2
ENDMDL
