MODEL 1
REMARK VINA RESULT:       1.1      0.000      0.000
REMARK  Name = 72271
REMARK  3 active torsions:
REMARK  status: ('A' for Active; 'I' for Inactive)
REMARK    1  A    between atoms: C_7  and  O_37
REMARK    2  A    between atoms: C_9  and  N_33
REMARK    3  A    between atoms: C_22  and  O_39
REMARK                            x       y       z     vdW  Elec       q    Type
REMARK                         _______ _______ _______ _____ _____    ______ ____
ROOT
ATOM      1  O   UNL     1      34.667  -7.462 -22.590  0.00  0.00    -0.319 OA
ATOM      2  O   UNL     1      34.434 -14.363 -25.184  0.00  0.00    -0.270 OA
ATOM      3  N   UNL     1      32.975  -8.869 -21.736  0.00  0.00    -0.305 N 
ATOM      4  N   UNL     1      34.459  -8.954 -24.350  0.00  0.00    -0.304 N 
ATOM      5  N   UNL     1      33.176 -14.739 -23.249  0.00  0.00    -0.276 N 
ATOM      6  C   UNL     1      33.457  -7.488 -21.828  0.00  0.00    +0.188 C 
ATOM      7  C   UNL     1      32.436  -6.472 -22.415  0.00  0.00    +0.141 C 
ATOM      8  C   UNL     1      34.541  -7.563 -23.990  0.00  0.00    +0.204 C 
ATOM      9  C   UNL     1      32.150  -6.668 -23.907  0.00  0.00    -0.025 C 
ATOM     10  C   UNL     1      33.486  -6.664 -24.638  0.00  0.00    +0.035 C 
ATOM     11  C   UNL     1      33.270 -10.007 -22.462  0.00  0.00    +0.077 A 
ATOM     12  C   UNL     1      33.984 -10.051 -23.697  0.00  0.00    +0.078 A 
ATOM     13  C   UNL     1      32.803 -11.303 -22.013  0.00  0.00    +0.019 A 
ATOM     14  C   UNL     1      34.159 -11.372 -24.277  0.00  0.00    +0.023 A 
ATOM     15  C   UNL     1      32.143  -9.407 -20.730  0.00  0.00    +0.062 A 
ATOM     16  C   UNL     1      33.975  -6.978 -20.461  0.00  0.00    +0.056 C 
ATOM     17  C   UNL     1      33.001 -12.564 -22.572  0.00  0.00    +0.030 A 
ATOM     18  C   UNL     1      35.009  -9.512 -25.505  0.00  0.00    +0.062 A 
ATOM     19  C   UNL     1      32.074 -10.829 -20.845  0.00  0.00    +0.017 A 
ATOM     20  C   UNL     1      33.730 -12.585 -23.750  0.00  0.00    +0.055 A 
ATOM     21  C   UNL     1      34.862 -10.930 -25.489  0.00  0.00    +0.017 A 
ATOM     22  C   UNL     1      32.578 -13.948 -22.197  0.00  0.00    +0.212 C 
ATOM     23  C   UNL     1      31.428  -8.775 -19.687  0.00  0.00    +0.017 C 
ATOM     24  C   UNL     1      33.850 -13.972 -24.194  0.00  0.00    +0.248 C 
ATOM     25  C   UNL     1      31.326 -11.554 -19.881  0.00  0.00    +0.001 C 
ATOM     26  C   UNL     1      35.643  -8.861 -26.585  0.00  0.00    +0.017 C 
ATOM     27  C   UNL     1      35.377 -11.647 -26.599  0.00  0.00    +0.001 C 
ATOM     28  C   UNL     1      30.694  -9.525 -18.765  0.00  0.00    +0.001 C 
ATOM     29  C   UNL     1      30.648 -10.902 -18.854  0.00  0.00    +0.000 C 
ATOM     30  C   UNL     1      36.135  -9.611 -27.651  0.00  0.00    +0.001 C 
ATOM     31  C   UNL     1      36.005 -10.989 -27.660  0.00  0.00    +0.000 C 
ATOM     32  H   UNL     1      33.113 -15.721 -23.293  0.00  0.00    +0.152 HD
ENDROOT
BRANCH   9  33
ATOM     33  N   UNL     1      31.398  -7.891 -24.183  0.00  0.00    +0.385 N 
ATOM     34  C   UNL     1      30.093  -7.579 -24.743  0.00  0.00    -0.105 C 
ATOM     35  H   UNL     1      31.274  -8.411 -23.314  0.00  0.00    -0.084 HD
ATOM     36  H   UNL     1      31.919  -8.449 -24.859  0.00  0.00    -0.084 HD
ENDBRANCH   9  33
BRANCH   7  37
ATOM     37  O   UNL     1      31.206  -6.418 -21.709  0.00  0.00    -0.351 OA
ATOM     38  C   UNL     1      30.541  -5.176 -21.909  0.00  0.00    +0.174 C 
ENDBRANCH   7  37
BRANCH  22  39
ATOM     39  O   UNL     1      31.172 -14.081 -22.257  0.00  0.00    -0.364 OA
ATOM     40  H   UNL     1      30.843 -13.675 -23.074  0.00  0.00    +0.213 HD
ENDBRANCH  22  39
TORSDOF 3
ENDMDL
