MODEL 1
REMARK VINA RESULT:      -8.4      0.000      0.000
REMARK  Name = 446696
REMARK  6 active torsions:
REMARK  status: ('A' for Active; 'I' for Inactive)
REMARK    1  A    between atoms: C_2  and  C_16
REMARK    2  A    between atoms: C_4  and  N_7
REMARK    3  A    between atoms: C_16  and  O_17
REMARK    4  A    between atoms: O_17  and  P_18
REMARK    5  A    between atoms: P_18  and  O_20
REMARK    6  A    between atoms: P_18  and  O_22
REMARK                            x       y       z     vdW  Elec       q    Type
REMARK                         _______ _______ _______ _____ _____    ______ ____
ROOT
ATOM      1  O   UNL     1      35.589 -17.676 -21.259  0.00  0.00    -0.337 OA
ATOM      2  C   UNL     1      35.279 -16.719 -22.287  0.00  0.00    +0.147 C 
ATOM      3  C   UNL     1      35.311 -17.478 -23.605  0.00  0.00    +0.037 C 
ATOM      4  C   UNL     1      35.567 -18.993 -21.828  0.00  0.00    +0.206 C 
ATOM      5  C   UNL     1      34.916 -18.874 -23.193  0.00  0.00    +0.055 C 
ENDROOT
BRANCH   4   7
ATOM      6  O   UNL     1      36.765 -20.911 -20.152  0.00  0.00    -0.193 OA
ATOM      7  N   UNL     1      34.861 -19.880 -20.950  0.00  0.00    -0.180 N 
ATOM      8  N   UNL     1      34.790 -21.645 -19.310  0.00  0.00    -0.306 NA
ATOM      9  N   UNL     1      32.763 -22.395 -18.453  0.00  0.00    -0.332 N 
ATOM     10  C   UNL     1      33.479 -19.808 -20.906  0.00  0.00    +0.083 C 
ATOM     11  C   UNL     1      35.537 -20.820 -20.135  0.00  0.00    +0.275 C 
ATOM     12  C   UNL     1      32.743 -20.593 -20.121  0.00  0.00    +0.065 C 
ATOM     13  C   UNL     1      33.486 -21.566 -19.279  0.00  0.00    +0.193 C 
ATOM     14  H   UNL     1      33.227 -23.049 -17.882  0.00  0.00    +0.145 HD
ATOM     15  H   UNL     1      31.780 -22.333 -18.431  0.00  0.00    +0.145 HD
ENDBRANCH   4   7
BRANCH   2  16
ATOM     16  C   UNL     1      33.918 -16.109 -21.983  0.00  0.00    +0.183 C 
BRANCH  16  17
ATOM     17  O   UNL     1      34.010 -14.698 -22.099  0.00  0.00    -0.271 OA
BRANCH  17  18
ATOM     18  P   UNL     1      33.324 -13.985 -23.380  0.00  0.00    +0.473 P 
ATOM     19  O   UNL     1      33.143 -14.870 -24.578  0.00  0.00    -0.227 OA
BRANCH  18  20
ATOM     20  O   UNL     1      34.238 -12.671 -23.622  0.00  0.00    -0.303 OA
ATOM     21  H   UNL     1      33.713 -11.875 -23.444  0.00  0.00    +0.222 HD
ENDBRANCH  18  20
BRANCH  18  22
ATOM     22  O   UNL     1      31.957 -13.378 -22.766  0.00  0.00    -0.303 OA
ATOM     23  H   UNL     1      31.930 -12.421 -22.920  0.00  0.00    +0.222 HD
ENDBRANCH  18  22
ENDBRANCH  17  18
ENDBRANCH  16  17
ENDBRANCH   2  16
TORSDOF 6
ENDMDL
MODEL 2
REMARK VINA RESULT:      -8.3      7.642     10.476
REMARK  Name = 446696
REMARK  6 active torsions:
REMARK  status: ('A' for Active; 'I' for Inactive)
REMARK    1  A    between atoms: C_2  and  C_16
REMARK    2  A    between atoms: C_4  and  N_7
REMARK    3  A    between atoms: C_16  and  O_17
REMARK    4  A    between atoms: O_17  and  P_18
REMARK    5  A    between atoms: P_18  and  O_20
REMARK    6  A    between atoms: P_18  and  O_22
REMARK                            x       y       z     vdW  Elec       q    Type
REMARK                         _______ _______ _______ _____ _____    ______ ____
ROOT
ATOM      1  O   UNL     1      35.734 -24.833 -15.869  0.00  0.00    -0.337 OA
ATOM      2  C   UNL     1      36.699 -24.859 -14.803  0.00  0.00    +0.147 C 
ATOM      3  C   UNL     1      37.243 -23.445 -14.680  0.00  0.00    +0.037 C 
ATOM      4  C   UNL     1      35.481 -23.470 -16.234  0.00  0.00    +0.206 C 
ATOM      5  C   UNL     1      36.082 -22.602 -15.144  0.00  0.00    +0.055 C 
ENDROOT
BRANCH   4   7
ATOM      6  O   UNL     1      34.174 -22.946 -18.670  0.00  0.00    -0.193 OA
ATOM      7  N   UNL     1      34.070 -23.270 -16.388  0.00  0.00    -0.180 N 
ATOM      8  N   UNL     1      32.113 -22.830 -17.726  0.00  0.00    -0.306 NA
ATOM      9  N   UNL     1      30.005 -22.711 -16.752  0.00  0.00    -0.332 N 
ATOM     10  C   UNL     1      33.264 -23.336 -15.264  0.00  0.00    +0.083 C 
ATOM     11  C   UNL     1      33.484 -23.012 -17.651  0.00  0.00    +0.275 C 
ATOM     12  C   UNL     1      31.945 -23.163 -15.314  0.00  0.00    +0.065 C 
ATOM     13  C   UNL     1      31.365 -22.895 -16.656  0.00  0.00    +0.193 C 
ATOM     14  H   UNL     1      29.593 -22.533 -17.628  0.00  0.00    +0.145 HD
ATOM     15  H   UNL     1      29.444 -22.760 -15.944  0.00  0.00    +0.145 HD
ENDBRANCH   4   7
BRANCH   2  16
ATOM     16  C   UNL     1      36.006 -25.344 -13.537  0.00  0.00    +0.183 C 
BRANCH  16  17
ATOM     17  O   UNL     1      36.771 -24.942 -12.412  0.00  0.00    -0.271 OA
BRANCH  17  18
ATOM     18  P   UNL     1      36.049 -24.058 -11.265  0.00  0.00    +0.473 P 
ATOM     19  O   UNL     1      36.929 -23.042 -10.598  0.00  0.00    -0.227 OA
BRANCH  18  20
ATOM     20  O   UNL     1      35.399 -25.163 -10.279  0.00  0.00    -0.303 OA
ATOM     21  H   UNL     1      35.925 -25.977 -10.313  0.00  0.00    +0.222 HD
ENDBRANCH  18  20
BRANCH  18  22
ATOM     22  O   UNL     1      34.764 -23.447 -12.036  0.00  0.00    -0.303 OA
ATOM     23  H   UNL     1      34.279 -22.858 -11.439  0.00  0.00    +0.222 HD
ENDBRANCH  18  22
ENDBRANCH  17  18
ENDBRANCH  16  17
ENDBRANCH   2  16
TORSDOF 6
ENDMDL
MODEL 3
REMARK VINA RESULT:      -8.3      7.468      9.541
REMARK  Name = 446696
REMARK  6 active torsions:
REMARK  status: ('A' for Active; 'I' for Inactive)
REMARK    1  A    between atoms: C_2  and  C_16
REMARK    2  A    between atoms: C_4  and  N_7
REMARK    3  A    between atoms: C_16  and  O_17
REMARK    4  A    between atoms: O_17  and  P_18
REMARK    5  A    between atoms: P_18  and  O_20
REMARK    6  A    between atoms: P_18  and  O_22
REMARK                            x       y       z     vdW  Elec       q    Type
REMARK                         _______ _______ _______ _____ _____    ______ ____
ROOT
ATOM      1  O   UNL     1      32.148 -24.995 -14.829  0.00  0.00    -0.337 OA
ATOM      2  C   UNL     1      30.817 -24.964 -14.283  0.00  0.00    +0.147 C 
ATOM      3  C   UNL     1      30.708 -23.673 -13.487  0.00  0.00    +0.037 C 
ATOM      4  C   UNL     1      32.763 -23.715 -14.625  0.00  0.00    +0.206 C 
ATOM      5  C   UNL     1      31.663 -22.756 -14.210  0.00  0.00    +0.055 C 
ENDROOT
BRANCH   4   7
ATOM      6  O   UNL     1      35.533 -23.282 -14.875  0.00  0.00    -0.193 OA
ATOM      7  N   UNL     1      33.431 -23.310 -15.827  0.00  0.00    -0.180 N 
ATOM      8  N   UNL     1      35.411 -22.721 -17.071  0.00  0.00    -0.306 NA
ATOM      9  N   UNL     1      35.278 -22.145 -19.320  0.00  0.00    -0.332 N 
ATOM     10  C   UNL     1      32.675 -23.108 -16.969  0.00  0.00    +0.083 C 
ATOM     11  C   UNL     1      34.833 -23.112 -15.874  0.00  0.00    +0.275 C 
ATOM     12  C   UNL     1      33.211 -22.730 -18.128  0.00  0.00    +0.065 C 
ATOM     13  C   UNL     1      34.684 -22.534 -18.141  0.00  0.00    +0.193 C 
ATOM     14  H   UNL     1      36.252 -22.008 -19.358  0.00  0.00    +0.145 HD
ATOM     15  H   UNL     1      34.728 -22.005 -20.125  0.00  0.00    +0.145 HD
ENDBRANCH   4   7
BRANCH   2  16
ATOM     16  C   UNL     1      29.823 -25.042 -15.433  0.00  0.00    +0.183 C 
BRANCH  16  17
ATOM     17  O   UNL     1      28.785 -24.101 -15.208  0.00  0.00    -0.271 OA
BRANCH  17  18
ATOM     18  P   UNL     1      28.237 -23.244 -16.466  0.00  0.00    +0.473 P 
ATOM     19  O   UNL     1      29.215 -22.261 -17.039  0.00  0.00    -0.227 OA
BRANCH  18  20
ATOM     20  O   UNL     1      26.853 -22.605 -15.922  0.00  0.00    -0.303 OA
ATOM     21  H   UNL     1      26.207 -23.312 -15.774  0.00  0.00    +0.222 HD
ENDBRANCH  18  20
BRANCH  18  22
ATOM     22  O   UNL     1      27.738 -24.389 -17.493  0.00  0.00    -0.303 OA
ATOM     23  H   UNL     1      28.362 -25.130 -17.479  0.00  0.00    +0.222 HD
ENDBRANCH  18  22
ENDBRANCH  17  18
ENDBRANCH  16  17
ENDBRANCH   2  16
TORSDOF 6
ENDMDL
MODEL 4
REMARK VINA RESULT:      -8.2      7.624     10.846
REMARK  Name = 446696
REMARK  6 active torsions:
REMARK  status: ('A' for Active; 'I' for Inactive)
REMARK    1  A    between atoms: C_2  and  C_16
REMARK    2  A    between atoms: C_4  and  N_7
REMARK    3  A    between atoms: C_16  and  O_17
REMARK    4  A    between atoms: O_17  and  P_18
REMARK    5  A    between atoms: P_18  and  O_20
REMARK    6  A    between atoms: P_18  and  O_22
REMARK                            x       y       z     vdW  Elec       q    Type
REMARK                         _______ _______ _______ _____ _____    ______ ____
ROOT
ATOM      1  O   UNL     1      37.220 -23.478 -14.761  0.00  0.00    -0.337 OA
ATOM      2  C   UNL     1      37.538 -24.530 -13.833  0.00  0.00    +0.147 C 
ATOM      3  C   UNL     1      36.368 -24.621 -12.867  0.00  0.00    +0.037 C 
ATOM      4  C   UNL     1      35.850 -23.095 -14.577  0.00  0.00    +0.206 C 
ATOM      5  C   UNL     1      35.205 -24.161 -13.711  0.00  0.00    +0.055 C 
ENDROOT
BRANCH   4   7
ATOM      6  O   UNL     1      37.067 -22.046 -16.888  0.00  0.00    -0.193 OA
ATOM      7  N   UNL     1      35.216 -22.958 -15.855  0.00  0.00    -0.180 N 
ATOM      8  N   UNL     1      35.221 -22.318 -18.180  0.00  0.00    -0.306 NA
ATOM      9  N   UNL     1      33.325 -22.598 -19.497  0.00  0.00    -0.332 N 
ATOM     10  C   UNL     1      33.900 -23.366 -15.989  0.00  0.00    +0.083 C 
ATOM     11  C   UNL     1      35.896 -22.420 -16.974  0.00  0.00    +0.275 C 
ATOM     12  C   UNL     1      33.232 -23.275 -17.138  0.00  0.00    +0.065 C 
ATOM     13  C   UNL     1      33.978 -22.708 -18.291  0.00  0.00    +0.193 C 
ATOM     14  H   UNL     1      33.795 -22.226 -20.279  0.00  0.00    +0.145 HD
ATOM     15  H   UNL     1      32.389 -22.892 -19.578  0.00  0.00    +0.145 HD
ENDBRANCH   4   7
BRANCH   2  16
ATOM     16  C   UNL     1      37.763 -25.814 -14.620  0.00  0.00    +0.183 C 
BRANCH  16  17
ATOM     17  O   UNL     1      38.918 -26.466 -14.115  0.00  0.00    -0.271 OA
BRANCH  17  18
ATOM     18  P   UNL     1      40.372 -25.877 -14.515  0.00  0.00    +0.473 P 
ATOM     19  O   UNL     1      40.710 -24.549 -13.904  0.00  0.00    -0.227 OA
BRANCH  18  20
ATOM     20  O   UNL     1      40.368 -25.913 -16.133  0.00  0.00    -0.303 OA
ATOM     21  H   UNL     1      40.077 -26.787 -16.436  0.00  0.00    +0.222 HD
ENDBRANCH  18  20
BRANCH  18  22
ATOM     22  O   UNL     1      41.371 -27.086 -14.120  0.00  0.00    -0.303 OA
ATOM     23  H   UNL     1      41.139 -27.422 -13.241  0.00  0.00    +0.222 HD
ENDBRANCH  18  22
ENDBRANCH  17  18
ENDBRANCH  16  17
ENDBRANCH   2  16
TORSDOF 6
ENDMDL
MODEL 5
REMARK VINA RESULT:      -8.2      8.061     10.574
REMARK  Name = 446696
REMARK  6 active torsions:
REMARK  status: ('A' for Active; 'I' for Inactive)
REMARK    1  A    between atoms: C_2  and  C_16
REMARK    2  A    between atoms: C_4  and  N_7
REMARK    3  A    between atoms: C_16  and  O_17
REMARK    4  A    between atoms: O_17  and  P_18
REMARK    5  A    between atoms: P_18  and  O_20
REMARK    6  A    between atoms: P_18  and  O_22
REMARK                            x       y       z     vdW  Elec       q    Type
REMARK                         _______ _______ _______ _____ _____    ______ ____
ROOT
ATOM      1  O   UNL     1      35.995 -22.868 -14.572  0.00  0.00    -0.337 OA
ATOM      2  C   UNL     1      36.895 -23.832 -13.995  0.00  0.00    +0.147 C 
ATOM      3  C   UNL     1      36.062 -25.066 -13.685  0.00  0.00    +0.037 C 
ATOM      4  C   UNL     1      34.745 -23.511 -14.854  0.00  0.00    +0.206 C 
ATOM      5  C   UNL     1      34.977 -25.005 -14.731  0.00  0.00    +0.055 C 
ENDROOT
BRANCH   4   7
ATOM      6  O   UNL     1      32.083 -23.657 -15.757  0.00  0.00    -0.193 OA
ATOM      7  N   UNL     1      34.292 -23.124 -16.158  0.00  0.00    -0.180 N 
ATOM      8  N   UNL     1      32.566 -22.832 -17.816  0.00  0.00    -0.306 NA
ATOM      9  N   UNL     1      33.068 -21.988 -19.923  0.00  0.00    -0.332 N 
ATOM     10  C   UNL     1      35.219 -22.636 -17.063  0.00  0.00    +0.083 C 
ATOM     11  C   UNL     1      32.932 -23.226 -16.539  0.00  0.00    +0.275 C 
ATOM     12  C   UNL     1      34.888 -22.254 -18.295  0.00  0.00    +0.065 C 
ATOM     13  C   UNL     1      33.452 -22.374 -18.660  0.00  0.00    +0.193 C 
ATOM     14  H   UNL     1      32.123 -22.056 -20.193  0.00  0.00    +0.145 HD
ATOM     15  H   UNL     1      33.738 -21.643 -20.558  0.00  0.00    +0.145 HD
ENDBRANCH   4   7
BRANCH   2  16
ATOM     16  C   UNL     1      38.014 -24.102 -14.991  0.00  0.00    +0.183 C 
BRANCH  16  17
ATOM     17  O   UNL     1      39.177 -24.497 -14.279  0.00  0.00    -0.271 OA
BRANCH  17  18
ATOM     18  P   UNL     1      39.876 -25.904 -14.666  0.00  0.00    +0.473 P 
ATOM     19  O   UNL     1      41.008 -26.318 -13.772  0.00  0.00    -0.227 OA
BRANCH  18  20
ATOM     20  O   UNL     1      40.258 -25.727 -16.228  0.00  0.00    -0.303 OA
ATOM     21  H   UNL     1      39.468 -25.869 -16.772  0.00  0.00    +0.222 HD
ENDBRANCH  18  20
BRANCH  18  22
ATOM     22  O   UNL     1      38.625 -26.929 -14.703  0.00  0.00    -0.303 OA
ATOM     23  H   UNL     1      38.448 -27.190 -15.620  0.00  0.00    +0.222 HD
ENDBRANCH  18  22
ENDBRANCH  17  18
ENDBRANCH  16  17
ENDBRANCH   2  16
TORSDOF 6
ENDMDL
MODEL 6
REMARK VINA RESULT:      -8.0      7.692     10.351
REMARK  Name = 446696
REMARK  6 active torsions:
REMARK  status: ('A' for Active; 'I' for Inactive)
REMARK    1  A    between atoms: C_2  and  C_16
REMARK    2  A    between atoms: C_4  and  N_7
REMARK    3  A    between atoms: C_16  and  O_17
REMARK    4  A    between atoms: O_17  and  P_18
REMARK    5  A    between atoms: P_18  and  O_20
REMARK    6  A    between atoms: P_18  and  O_22
REMARK                            x       y       z     vdW  Elec       q    Type
REMARK                         _______ _______ _______ _____ _____    ______ ____
ROOT
ATOM      1  O   UNL     1      35.845 -24.270 -15.655  0.00  0.00    -0.337 OA
ATOM      2  C   UNL     1      37.036 -23.718 -15.069  0.00  0.00    +0.147 C 
ATOM      3  C   UNL     1      37.443 -22.543 -15.945  0.00  0.00    +0.037 C 
ATOM      4  C   UNL     1      35.370 -23.376 -16.671  0.00  0.00    +0.206 C 
ATOM      5  C   UNL     1      36.122 -22.070 -16.498  0.00  0.00    +0.055 C 
ENDROOT
BRANCH   4   7
ATOM      6  O   UNL     1      33.588 -22.953 -18.808  0.00  0.00    -0.193 OA
ATOM      7  N   UNL     1      33.950 -23.222 -16.545  0.00  0.00    -0.180 N 
ATOM      8  N   UNL     1      31.753 -22.872 -17.474  0.00  0.00    -0.306 NA
ATOM      9  N   UNL     1      29.878 -22.789 -16.102  0.00  0.00    -0.332 N 
ATOM     10  C   UNL     1      33.387 -23.282 -15.282  0.00  0.00    +0.083 C 
ATOM     11  C   UNL     1      33.117 -23.012 -17.671  0.00  0.00    +0.275 C 
ATOM     12  C   UNL     1      32.078 -23.148 -15.071  0.00  0.00    +0.065 C 
ATOM     13  C   UNL     1      31.235 -22.931 -16.275  0.00  0.00    +0.193 C 
ATOM     14  H   UNL     1      29.294 -22.645 -16.881  0.00  0.00    +0.145 HD
ATOM     15  H   UNL     1      29.490 -22.833 -15.197  0.00  0.00    +0.145 HD
ENDBRANCH   4   7
BRANCH   2  16
ATOM     16  C   UNL     1      36.724 -23.313 -13.635  0.00  0.00    +0.183 C 
BRANCH  16  17
ATOM     17  O   UNL     1      35.867 -24.286 -13.058  0.00  0.00    -0.271 OA
BRANCH  17  18
ATOM     18  P   UNL     1      36.321 -24.988 -11.673  0.00  0.00    +0.473 P 
ATOM     19  O   UNL     1      35.270 -25.020 -10.603  0.00  0.00    -0.227 OA
BRANCH  18  20
ATOM     20  O   UNL     1      37.686 -24.213 -11.279  0.00  0.00    -0.303 OA
ATOM     21  H   UNL     1      37.469 -23.416 -10.770  0.00  0.00    +0.222 HD
ENDBRANCH  18  20
BRANCH  18  22
ATOM     22  O   UNL     1      36.846 -26.439 -12.159  0.00  0.00    -0.303 OA
ATOM     23  H   UNL     1      37.482 -26.327 -12.882  0.00  0.00    +0.222 HD
ENDBRANCH  18  22
ENDBRANCH  17  18
ENDBRANCH  16  17
ENDBRANCH   2  16
TORSDOF 6
ENDMDL
MODEL 7
REMARK VINA RESULT:      -7.9      3.842      6.873
REMARK  Name = 446696
REMARK  6 active torsions:
REMARK  status: ('A' for Active; 'I' for Inactive)
REMARK    1  A    between atoms: C_2  and  C_16
REMARK    2  A    between atoms: C_4  and  N_7
REMARK    3  A    between atoms: C_16  and  O_17
REMARK    4  A    between atoms: O_17  and  P_18
REMARK    5  A    between atoms: P_18  and  O_20
REMARK    6  A    between atoms: P_18  and  O_22
REMARK                            x       y       z     vdW  Elec       q    Type
REMARK                         _______ _______ _______ _____ _____    ______ ____
ROOT
ATOM      1  O   UNL     1      34.091 -19.087 -22.383  0.00  0.00    -0.337 OA
ATOM      2  C   UNL     1      34.499 -20.090 -21.435  0.00  0.00    +0.147 C 
ATOM      3  C   UNL     1      35.851 -19.649 -20.897  0.00  0.00    +0.037 C 
ATOM      4  C   UNL     1      34.975 -17.962 -22.277  0.00  0.00    +0.206 C 
ATOM      5  C   UNL     1      35.776 -18.146 -21.002  0.00  0.00    +0.055 C 
ENDROOT
BRANCH   4   7
ATOM      6  O   UNL     1      34.722 -16.211 -24.466  0.00  0.00    -0.193 OA
ATOM      7  N   UNL     1      34.208 -16.751 -22.283  0.00  0.00    -0.180 N 
ATOM      8  N   UNL     1      33.367 -14.764 -23.360  0.00  0.00    -0.306 NA
ATOM      9  N   UNL     1      31.981 -13.286 -22.220  0.00  0.00    -0.332 N 
ATOM     10  C   UNL     1      33.529 -16.392 -21.131  0.00  0.00    +0.083 C 
ATOM     11  C   UNL     1      34.128 -15.920 -23.427  0.00  0.00    +0.275 C 
ATOM     12  C   UNL     1      32.793 -15.284 -21.046  0.00  0.00    +0.065 C 
ATOM     13  C   UNL     1      32.732 -14.438 -22.265  0.00  0.00    +0.193 C 
ATOM     14  H   UNL     1      31.921 -12.706 -23.013  0.00  0.00    +0.145 HD
ATOM     15  H   UNL     1      31.504 -13.042 -21.394  0.00  0.00    +0.145 HD
ENDBRANCH   4   7
BRANCH   2  16
ATOM     16  C   UNL     1      33.432 -20.194 -20.355  0.00  0.00    +0.183 C 
BRANCH  16  17
ATOM     17  O   UNL     1      33.050 -21.553 -20.215  0.00  0.00    -0.271 OA
BRANCH  17  18
ATOM     18  P   UNL     1      33.729 -22.426 -19.033  0.00  0.00    +0.473 P 
ATOM     19  O   UNL     1      34.972 -21.832 -18.438  0.00  0.00    -0.227 OA
BRANCH  18  20
ATOM     20  O   UNL     1      33.912 -23.892 -19.694  0.00  0.00    -0.303 OA
ATOM     21  H   UNL     1      33.825 -23.825 -20.658  0.00  0.00    +0.222 HD
ENDBRANCH  18  20
BRANCH  18  22
ATOM     22  O   UNL     1      32.508 -22.637 -17.994  0.00  0.00    -0.303 OA
ATOM     23  H   UNL     1      31.672 -22.406 -18.426  0.00  0.00    +0.222 HD
ENDBRANCH  18  22
ENDBRANCH  17  18
ENDBRANCH  16  17
ENDBRANCH   2  16
TORSDOF 6
ENDMDL
MODEL 8
REMARK VINA RESULT:      -7.9      1.064      1.606
REMARK  Name = 446696
REMARK  6 active torsions:
REMARK  status: ('A' for Active; 'I' for Inactive)
REMARK    1  A    between atoms: C_2  and  C_16
REMARK    2  A    between atoms: C_4  and  N_7
REMARK    3  A    between atoms: C_16  and  O_17
REMARK    4  A    between atoms: O_17  and  P_18
REMARK    5  A    between atoms: P_18  and  O_20
REMARK    6  A    between atoms: P_18  and  O_22
REMARK                            x       y       z     vdW  Elec       q    Type
REMARK                         _______ _______ _______ _____ _____    ______ ____
ROOT
ATOM      1  O   UNL     1      35.582 -18.057 -20.760  0.00  0.00    -0.337 OA
ATOM      2  C   UNL     1      35.327 -17.091 -21.795  0.00  0.00    +0.147 C 
ATOM      3  C   UNL     1      35.408 -17.843 -23.115  0.00  0.00    +0.037 C 
ATOM      4  C   UNL     1      35.571 -19.370 -21.337  0.00  0.00    +0.206 C 
ATOM      5  C   UNL     1      34.981 -19.237 -22.728  0.00  0.00    +0.055 C 
ENDROOT
BRANCH   4   7
ATOM      6  O   UNL     1      32.771 -19.340 -21.043  0.00  0.00    -0.193 OA
ATOM      7  N   UNL     1      34.818 -20.254 -20.496  0.00  0.00    -0.180 N 
ATOM      8  N   UNL     1      32.746 -21.066 -19.569  0.00  0.00    -0.306 NA
ATOM      9  N   UNL     1      32.727 -22.834 -18.058  0.00  0.00    -0.332 N 
ATOM     10  C   UNL     1      35.500 -21.208 -19.759  0.00  0.00    +0.083 C 
ATOM     11  C   UNL     1      33.408 -20.179 -20.402  0.00  0.00    +0.275 C 
ATOM     12  C   UNL     1      34.884 -22.069 -18.952  0.00  0.00    +0.065 C 
ATOM     13  C   UNL     1      33.403 -21.961 -18.880  0.00  0.00    +0.193 C 
ATOM     14  H   UNL     1      31.746 -22.786 -17.990  0.00  0.00    +0.145 HD
ATOM     15  H   UNL     1      33.225 -23.507 -17.539  0.00  0.00    +0.145 HD
ENDBRANCH   4   7
BRANCH   2  16
ATOM     16  C   UNL     1      33.960 -16.468 -21.547  0.00  0.00    +0.183 C 
BRANCH  16  17
ATOM     17  O   UNL     1      34.056 -15.064 -21.724  0.00  0.00    -0.271 OA
BRANCH  17  18
ATOM     18  P   UNL     1      33.416 -14.410 -23.059  0.00  0.00    +0.473 P 
ATOM     19  O   UNL     1      33.349 -15.327 -24.245  0.00  0.00    -0.227 OA
BRANCH  18  20
ATOM     20  O   UNL     1      34.279 -13.060 -23.278  0.00  0.00    -0.303 OA
ATOM     21  H   UNL     1      34.681 -12.793 -22.436  0.00  0.00    +0.222 HD
ENDBRANCH  18  20
BRANCH  18  22
ATOM     22  O   UNL     1      31.987 -13.858 -22.540  0.00  0.00    -0.303 OA
ATOM     23  H   UNL     1      32.128 -13.209 -21.834  0.00  0.00    +0.222 HD
ENDBRANCH  18  22
ENDBRANCH  17  18
ENDBRANCH  16  17
ENDBRANCH   2  16
TORSDOF 6
ENDMDL
MODEL 9
REMARK VINA RESULT:      -7.8      8.594     10.768
REMARK  Name = 446696
REMARK  6 active torsions:
REMARK  status: ('A' for Active; 'I' for Inactive)
REMARK    1  A    between atoms: C_2  and  C_16
REMARK    2  A    between atoms: C_4  and  N_7
REMARK    3  A    between atoms: C_16  and  O_17
REMARK    4  A    between atoms: O_17  and  P_18
REMARK    5  A    between atoms: P_18  and  O_20
REMARK    6  A    between atoms: P_18  and  O_22
REMARK                            x       y       z     vdW  Elec       q    Type
REMARK                         _______ _______ _______ _____ _____    ______ ____
ROOT
ATOM      1  O   UNL     1      36.119 -24.468 -15.854  0.00  0.00    -0.337 OA
ATOM      2  C   UNL     1      37.400 -23.891 -15.544  0.00  0.00    +0.147 C 
ATOM      3  C   UNL     1      37.267 -22.395 -15.780  0.00  0.00    +0.037 C 
ATOM      4  C   UNL     1      35.163 -23.413 -16.023  0.00  0.00    +0.206 C 
ATOM      5  C   UNL     1      35.806 -22.144 -15.496  0.00  0.00    +0.055 C 
ENDROOT
BRANCH   4   7
ATOM      6  O   UNL     1      32.563 -23.057 -17.042  0.00  0.00    -0.193 OA
ATOM      7  N   UNL     1      33.952 -23.750 -15.334  0.00  0.00    -0.180 N 
ATOM      8  N   UNL     1      31.550 -23.893 -15.191  0.00  0.00    -0.306 NA
ATOM      9  N   UNL     1      30.518 -24.749 -13.291  0.00  0.00    -0.332 N 
ATOM     10  C   UNL     1      34.042 -24.296 -14.065  0.00  0.00    +0.083 C 
ATOM     11  C   UNL     1      32.677 -23.543 -15.915  0.00  0.00    +0.275 C 
ATOM     12  C   UNL     1      32.971 -24.639 -13.352  0.00  0.00    +0.065 C 
ATOM     13  C   UNL     1      31.650 -24.407 -13.993  0.00  0.00    +0.193 C 
ATOM     14  H   UNL     1      29.629 -24.607 -13.690  0.00  0.00    +0.145 HD
ATOM     15  H   UNL     1      30.596 -25.136 -12.388  0.00  0.00    +0.145 HD
ENDBRANCH   4   7
BRANCH   2  16
ATOM     16  C   UNL     1      37.750 -24.239 -14.104  0.00  0.00    +0.183 C 
BRANCH  16  17
ATOM     17  O   UNL     1      39.130 -24.561 -14.031  0.00  0.00    -0.271 OA
BRANCH  17  18
ATOM     18  P   UNL     1      39.619 -25.990 -14.613  0.00  0.00    +0.473 P 
ATOM     19  O   UNL     1      38.562 -27.055 -14.654  0.00  0.00    -0.227 OA
BRANCH  18  20
ATOM     20  O   UNL     1      40.922 -26.343 -13.721  0.00  0.00    -0.303 OA
ATOM     21  H   UNL     1      41.070 -25.637 -13.072  0.00  0.00    +0.222 HD
ENDBRANCH  18  20
BRANCH  18  22
ATOM     22  O   UNL     1      40.249 -25.597 -16.050  0.00  0.00    -0.303 OA
ATOM     23  H   UNL     1      40.762 -24.779 -15.965  0.00  0.00    +0.222 HD
ENDBRANCH  18  22
ENDBRANCH  17  18
ENDBRANCH  16  17
ENDBRANCH   2  16
TORSDOF 6
ENDMDL
