MODEL 1
REMARK VINA RESULT:     -12.9      0.000      0.000
REMARK  Name = 73777259
REMARK  4 active torsions:
REMARK  status: ('A' for Active; 'I' for Inactive)
REMARK    1  A    between atoms: N_3  and  C_16
REMARK    2  A    between atoms: N_4  and  C_23
REMARK    3  A    between atoms: C_16  and  C_17
REMARK    4  A    between atoms: C_23  and  C_24
REMARK                            x       y       z     vdW  Elec       q    Type
REMARK                         _______ _______ _______ _____ _____    ______ ____
ROOT
ATOM      1  O   UNL     1      34.728 -15.956 -19.852  0.00  0.00    -0.270 OA
ATOM      2  N   UNL     1      33.932 -15.727 -23.800  0.00  0.00    -0.240 N 
ATOM      3  N   UNL     1      31.996 -12.990 -21.242  0.00  0.00    +0.393 N 
ATOM      4  N   UNL     1      34.968 -16.875 -21.986  0.00  0.00    -0.224 N 
ATOM      5  N   UNL     1      35.106 -17.638 -24.243  0.00  0.00    -0.214 NA
ATOM      6  C   UNL     1      33.424 -14.763 -22.954  0.00  0.00    +0.032 C 
ATOM      7  C   UNL     1      33.652 -14.812 -21.627  0.00  0.00    +0.021 C 
ATOM      8  C   UNL     1      32.605 -13.637 -23.538  0.00  0.00    +0.019 C 
ATOM      9  C   UNL     1      33.085 -13.797 -20.667  0.00  0.00    -0.044 C 
ATOM     10  C   UNL     1      32.379 -12.474 -22.560  0.00  0.00    -0.070 C 
ATOM     11  C   UNL     1      34.687 -16.777 -23.349  0.00  0.00    +0.202 C 
ATOM     12  C   UNL     1      33.782 -15.832 -25.230  0.00  0.00    +0.092 C 
ATOM     13  C   UNL     1      34.496 -15.928 -21.061  0.00  0.00    +0.250 C 
ATOM     14  C   UNL     1      34.554 -17.124 -25.530  0.00  0.00    +0.118 C 
ATOM     15  H   UNL     1      31.178 -13.589 -21.362  0.00  0.00    -0.079 HD
ENDROOT
BRANCH   3  16
ATOM     16  C   UNL     1      31.628 -11.901 -20.339  0.00  0.00    -0.049 C 
BRANCH  16  17
ATOM     17  C   UNL     1      31.692 -10.561 -21.022  0.00  0.00    -0.043 C 
ATOM     18  C   UNL     1      31.116 -10.391 -22.281  0.00  0.00    -0.006 C 
ATOM     19  C   UNL     1      32.328  -9.489 -20.395  0.00  0.00    -0.006 C 
ATOM     20  C   UNL     1      31.177  -9.149 -22.914  0.00  0.00    -0.000 C 
ATOM     21  C   UNL     1      32.389  -8.248 -21.028  0.00  0.00    -0.000 C 
ATOM     22  C   UNL     1      31.813  -8.078 -22.287  0.00  0.00    -0.000 C 
ENDBRANCH  16  17
ENDBRANCH   3  16
BRANCH   4  23
ATOM     23  C   UNL     1      35.781 -17.991 -21.515  0.00  0.00    +0.127 C 
BRANCH  23  24
ATOM     24  C   UNL     1      34.935 -19.102 -20.951  0.00  0.00    -0.006 C 
ATOM     25  C   UNL     1      35.518 -20.185 -20.294  0.00  0.00    -0.024 C 
ATOM     26  C   UNL     1      33.549 -19.036 -21.092  0.00  0.00    -0.003 C 
ATOM     27  C   UNL     1      34.716 -21.203 -19.780  0.00  0.00    -0.005 C 
ATOM     28  C   UNL     1      37.000 -20.278 -20.131  0.00  0.00    +0.031 C 
ATOM     29  C   UNL     1      32.746 -20.054 -20.577  0.00  0.00    -0.000 C 
ATOM     30  C   UNL     1      33.330 -21.138 -19.921  0.00  0.00    -0.000 C 
ENDBRANCH  23  24
ENDBRANCH   4  23
TORSDOF 4
ENDMDL
MODEL 2
REMARK VINA RESULT:     -12.3      1.181      1.918
REMARK  Name = 73777259
REMARK  4 active torsions:
REMARK  status: ('A' for Active; 'I' for Inactive)
REMARK    1  A    between atoms: N_3  and  C_16
REMARK    2  A    between atoms: N_4  and  C_23
REMARK    3  A    between atoms: C_16  and  C_17
REMARK    4  A    between atoms: C_23  and  C_24
REMARK                            x       y       z     vdW  Elec       q    Type
REMARK                         _______ _______ _______ _____ _____    ______ ____
ROOT
ATOM      1  O   UNL     1      35.120 -15.408 -20.824  0.00  0.00    -0.270 OA
ATOM      2  N   UNL     1      34.279 -17.076 -24.399  0.00  0.00    -0.240 N 
ATOM      3  N   UNL     1      32.933 -13.142 -23.700  0.00  0.00    +0.393 N 
ATOM      4  N   UNL     1      35.137 -17.305 -22.187  0.00  0.00    -0.224 N 
ATOM      5  N   UNL     1      35.078 -19.115 -23.742  0.00  0.00    -0.214 NA
ATOM      6  C   UNL     1      33.976 -15.747 -24.189  0.00  0.00    +0.032 C 
ATOM      7  C   UNL     1      34.224 -15.157 -23.003  0.00  0.00    +0.021 C 
ATOM      8  C   UNL     1      33.358 -14.952 -25.314  0.00  0.00    +0.019 C 
ATOM      9  C   UNL     1      33.873 -13.717 -22.724  0.00  0.00    -0.044 C 
ATOM     10  C   UNL     1      33.370 -13.435 -25.069  0.00  0.00    -0.070 C 
ATOM     11  C   UNL     1      34.844 -17.864 -23.431  0.00  0.00    +0.202 C 
ATOM     12  C   UNL     1      34.077 -17.862 -25.591  0.00  0.00    +0.092 C 
ATOM     13  C   UNL     1      34.866 -15.957 -21.897  0.00  0.00    +0.250 C 
ATOM     14  C   UNL     1      34.596 -19.238 -25.148  0.00  0.00    +0.118 C 
ATOM     15  H   UNL     1      32.018 -13.571 -23.561  0.00  0.00    -0.079 HD
ENDROOT
BRANCH   3  16
ATOM     16  C   UNL     1      32.790 -11.702 -23.492  0.00  0.00    -0.049 C 
BRANCH  16  17
ATOM     17  C   UNL     1      32.285 -11.382 -22.111  0.00  0.00    -0.043 C 
ATOM     18  C   UNL     1      32.005 -12.413 -21.214  0.00  0.00    -0.006 C 
ATOM     19  C   UNL     1      32.096 -10.054 -21.728  0.00  0.00    -0.006 C 
ATOM     20  C   UNL     1      31.536 -12.116 -19.934  0.00  0.00    -0.000 C 
ATOM     21  C   UNL     1      31.627  -9.757 -20.448  0.00  0.00    -0.000 C 
ATOM     22  C   UNL     1      31.347 -10.789 -19.552  0.00  0.00    -0.000 C 
ENDBRANCH  16  17
ENDBRANCH   3  16
BRANCH   4  23
ATOM     23  C   UNL     1      35.746 -18.149 -21.164  0.00  0.00    +0.127 C 
BRANCH  23  24
ATOM     24  C   UNL     1      34.813 -19.238 -20.706  0.00  0.00    -0.006 C 
ATOM     25  C   UNL     1      35.307 -20.426 -20.167  0.00  0.00    -0.024 C 
ATOM     26  C   UNL     1      33.438 -19.046 -20.827  0.00  0.00    -0.003 C 
ATOM     27  C   UNL     1      34.425 -21.421 -19.750  0.00  0.00    -0.005 C 
ATOM     28  C   UNL     1      36.777 -20.654 -20.029  0.00  0.00    +0.031 C 
ATOM     29  C   UNL     1      32.555 -20.042 -20.408  0.00  0.00    -0.000 C 
ATOM     30  C   UNL     1      33.049 -21.230 -19.870  0.00  0.00    -0.000 C 
ENDBRANCH  23  24
ENDBRANCH   4  23
TORSDOF 4
ENDMDL
MODEL 3
REMARK VINA RESULT:     -12.2      2.453      8.669
REMARK  Name = 73777259
REMARK  4 active torsions:
REMARK  status: ('A' for Active; 'I' for Inactive)
REMARK    1  A    between atoms: N_3  and  C_16
REMARK    2  A    between atoms: N_4  and  C_23
REMARK    3  A    between atoms: C_16  and  C_17
REMARK    4  A    between atoms: C_23  and  C_24
REMARK                            x       y       z     vdW  Elec       q    Type
REMARK                         _______ _______ _______ _____ _____    ______ ____
ROOT
ATOM      1  O   UNL     1      33.992 -15.140 -25.075  0.00  0.00    -0.270 OA
ATOM      2  N   UNL     1      32.832 -13.807 -21.449  0.00  0.00    -0.240 N 
ATOM      3  N   UNL     1      34.602 -17.627 -21.664  0.00  0.00    +0.393 N 
ATOM      4  N   UNL     1      32.881 -13.517 -23.814  0.00  0.00    -0.224 N 
ATOM      5  N   UNL     1      31.812 -11.968 -22.347  0.00  0.00    -0.214 NA
ATOM      6  C   UNL     1      33.537 -14.989 -21.537  0.00  0.00    +0.032 C 
ATOM      7  C   UNL     1      33.928 -15.478 -22.730  0.00  0.00    +0.021 C 
ATOM      8  C   UNL     1      33.873 -15.735 -20.268  0.00  0.00    +0.019 C 
ATOM      9  C   UNL     1      34.668 -16.784 -22.869  0.00  0.00    -0.044 C 
ATOM     10  C   UNL     1      34.920 -16.840 -20.468  0.00  0.00    -0.070 C 
ATOM     11  C   UNL     1      32.492 -13.069 -22.552  0.00  0.00    +0.202 C 
ATOM     12  C   UNL     1      32.334 -13.147 -20.267  0.00  0.00    +0.092 C 
ATOM     13  C   UNL     1      33.609 -14.707 -23.987  0.00  0.00    +0.250 C 
ATOM     14  C   UNL     1      31.632 -11.921 -20.868  0.00  0.00    +0.118 C 
ATOM     15  H   UNL     1      33.649 -17.980 -21.566  0.00  0.00    -0.079 HD
ENDROOT
BRANCH   3  16
ATOM     16  C   UNL     1      35.497 -18.777 -21.788  0.00  0.00    -0.049 C 
BRANCH  16  17
ATOM     17  C   UNL     1      35.110 -19.891 -20.853  0.00  0.00    -0.043 C 
ATOM     18  C   UNL     1      36.098 -20.652 -20.228  0.00  0.00    -0.006 C 
ATOM     19  C   UNL     1      33.763 -20.163 -20.612  0.00  0.00    -0.006 C 
ATOM     20  C   UNL     1      35.739 -21.686 -19.362  0.00  0.00    -0.000 C 
ATOM     21  C   UNL     1      33.404 -21.196 -19.746  0.00  0.00    -0.000 C 
ATOM     22  C   UNL     1      34.392 -21.957 -19.121  0.00  0.00    -0.000 C 
ENDBRANCH  16  17
ENDBRANCH   3  16
BRANCH   4  23
ATOM     23  C   UNL     1      32.523 -12.722 -24.984  0.00  0.00    +0.127 C 
BRANCH  23  24
ATOM     24  C   UNL     1      33.666 -11.856 -25.444  0.00  0.00    -0.006 C 
ATOM     25  C   UNL     1      34.259 -12.054 -26.690  0.00  0.00    -0.024 C 
ATOM     26  C   UNL     1      34.128 -10.843 -24.604  0.00  0.00    -0.003 C 
ATOM     27  C   UNL     1      35.317 -11.241 -27.095  0.00  0.00    -0.005 C 
ATOM     28  C   UNL     1      33.781 -13.132 -27.606  0.00  0.00    +0.031 C 
ATOM     29  C   UNL     1      35.186 -10.029 -25.010  0.00  0.00    -0.000 C 
ATOM     30  C   UNL     1      35.780 -10.228 -26.256  0.00  0.00    -0.000 C 
ENDBRANCH  23  24
ENDBRANCH   4  23
TORSDOF 4
ENDMDL
MODEL 4
REMARK VINA RESULT:     -12.0      1.534      1.855
REMARK  Name = 73777259
REMARK  4 active torsions:
REMARK  status: ('A' for Active; 'I' for Inactive)
REMARK    1  A    between atoms: N_3  and  C_16
REMARK    2  A    between atoms: N_4  and  C_23
REMARK    3  A    between atoms: C_16  and  C_17
REMARK    4  A    between atoms: C_23  and  C_24
REMARK                            x       y       z     vdW  Elec       q    Type
REMARK                         _______ _______ _______ _____ _____    ______ ____
ROOT
ATOM      1  O   UNL     1      34.874 -15.646 -20.449  0.00  0.00    -0.270 OA
ATOM      2  N   UNL     1      34.258 -16.818 -24.259  0.00  0.00    -0.240 N 
ATOM      3  N   UNL     1      32.473 -13.212 -22.999  0.00  0.00    +0.393 N 
ATOM      4  N   UNL     1      35.116 -17.294 -22.087  0.00  0.00    -0.224 N 
ATOM      5  N   UNL     1      35.275 -18.835 -23.902  0.00  0.00    -0.214 NA
ATOM      6  C   UNL     1      33.806 -15.580 -23.855  0.00  0.00    +0.032 C 
ATOM      7  C   UNL     1      33.975 -15.158 -22.587  0.00  0.00    +0.021 C 
ATOM      8  C   UNL     1      33.113 -14.691 -24.861  0.00  0.00    +0.019 C 
ATOM      9  C   UNL     1      33.462 -13.827 -22.099  0.00  0.00    -0.044 C 
ATOM     10  C   UNL     1      32.952 -13.240 -24.385  0.00  0.00    -0.070 C 
ATOM     11  C   UNL     1      34.899 -17.681 -23.409  0.00  0.00    +0.202 C 
ATOM     12  C   UNL     1      34.157 -17.427 -25.562  0.00  0.00    +0.092 C 
ATOM     13  C   UNL     1      34.693 -16.045 -21.600  0.00  0.00    +0.250 C 
ATOM     14  C   UNL     1      34.822 -18.789 -25.323  0.00  0.00    +0.118 C 
ATOM     15  H   UNL     1      31.610 -13.756 -22.952  0.00  0.00    -0.079 HD
ENDROOT
BRANCH   3  16
ATOM     16  C   UNL     1      32.167 -11.847 -22.577  0.00  0.00    -0.049 C 
BRANCH  16  17
ATOM     17  C   UNL     1      33.084 -10.842 -23.223  0.00  0.00    -0.043 C 
ATOM     18  C   UNL     1      34.037 -11.262 -24.150  0.00  0.00    -0.006 C 
ATOM     19  C   UNL     1      32.979  -9.490 -22.893  0.00  0.00    -0.006 C 
ATOM     20  C   UNL     1      34.887 -10.331 -24.747  0.00  0.00    -0.000 C 
ATOM     21  C   UNL     1      33.828  -8.559 -23.491  0.00  0.00    -0.000 C 
ATOM     22  C   UNL     1      34.782  -8.980 -24.418  0.00  0.00    -0.000 C 
ENDBRANCH  16  17
ENDBRANCH   3  16
BRANCH   4  23
ATOM     23  C   UNL     1      35.807 -18.214 -21.190  0.00  0.00    +0.127 C 
BRANCH  23  24
ATOM     24  C   UNL     1      34.900 -19.314 -20.707  0.00  0.00    -0.006 C 
ATOM     25  C   UNL     1      35.420 -20.470 -20.125  0.00  0.00    -0.024 C 
ATOM     26  C   UNL     1      33.520 -19.164 -20.848  0.00  0.00    -0.003 C 
ATOM     27  C   UNL     1      34.561 -21.476 -19.685  0.00  0.00    -0.005 C 
ATOM     28  C   UNL     1      36.893 -20.653 -19.964  0.00  0.00    +0.031 C 
ATOM     29  C   UNL     1      32.661 -20.171 -20.406  0.00  0.00    -0.000 C 
ATOM     30  C   UNL     1      33.182 -21.327 -19.826  0.00  0.00    -0.000 C 
ENDBRANCH  23  24
ENDBRANCH   4  23
TORSDOF 4
ENDMDL
MODEL 5
REMARK VINA RESULT:     -12.0      1.980      9.090
REMARK  Name = 73777259
REMARK  4 active torsions:
REMARK  status: ('A' for Active; 'I' for Inactive)
REMARK    1  A    between atoms: N_3  and  C_16
REMARK    2  A    between atoms: N_4  and  C_23
REMARK    3  A    between atoms: C_16  and  C_17
REMARK    4  A    between atoms: C_23  and  C_24
REMARK                            x       y       z     vdW  Elec       q    Type
REMARK                         _______ _______ _______ _____ _____    ______ ____
ROOT
ATOM      1  O   UNL     1      33.696 -13.048 -24.772  0.00  0.00    -0.270 OA
ATOM      2  N   UNL     1      32.391 -12.741 -20.968  0.00  0.00    -0.240 N 
ATOM      3  N   UNL     1      34.309 -16.320 -22.106  0.00  0.00    +0.393 N 
ATOM      4  N   UNL     1      32.491 -11.843 -23.173  0.00  0.00    -0.224 N 
ATOM      5  N   UNL     1      31.327 -10.763 -21.392  0.00  0.00    -0.214 NA
ATOM      6  C   UNL     1      33.142 -13.838 -21.335  0.00  0.00    +0.032 C 
ATOM      7  C   UNL     1      33.582 -13.987 -22.600  0.00  0.00    +0.021 C 
ATOM      8  C   UNL     1      33.472 -14.880 -20.292  0.00  0.00    +0.019 C 
ATOM      9  C   UNL     1      34.374 -15.189 -23.047  0.00  0.00    -0.044 C 
ATOM     10  C   UNL     1      34.565 -15.863 -20.736  0.00  0.00    -0.070 C 
ATOM     11  C   UNL     1      32.052 -11.751 -21.852  0.00  0.00    +0.202 C 
ATOM     12  C   UNL     1      31.837 -12.428 -19.674  0.00  0.00    +0.092 C 
ATOM     13  C   UNL     1      33.268 -12.925 -23.624  0.00  0.00    +0.250 C 
ATOM     14  C   UNL     1      31.106 -11.109 -19.959  0.00  0.00    +0.118 C 
ATOM     15  H   UNL     1      33.367 -16.713 -22.137  0.00  0.00    -0.079 HD
ENDROOT
BRANCH   3  16
ATOM     16  C   UNL     1      35.248 -17.370 -22.493  0.00  0.00    -0.049 C 
BRANCH  16  17
ATOM     17  C   UNL     1      35.125 -18.585 -21.614  0.00  0.00    -0.043 C 
ATOM     18  C   UNL     1      36.265 -19.166 -21.060  0.00  0.00    -0.006 C 
ATOM     19  C   UNL     1      33.867 -19.131 -21.352  0.00  0.00    -0.006 C 
ATOM     20  C   UNL     1      36.150 -20.293 -20.246  0.00  0.00    -0.000 C 
ATOM     21  C   UNL     1      33.752 -20.258 -20.538  0.00  0.00    -0.000 C 
ATOM     22  C   UNL     1      34.893 -20.838 -19.984  0.00  0.00    -0.000 C 
ENDBRANCH  16  17
ENDBRANCH   3  16
BRANCH   4  23
ATOM     23  C   UNL     1      32.135 -10.781 -24.107  0.00  0.00    +0.127 C 
BRANCH  23  24
ATOM     24  C   UNL     1      33.015  -9.570 -23.942  0.00  0.00    -0.006 C 
ATOM     25  C   UNL     1      32.468  -8.319 -23.661  0.00  0.00    -0.024 C 
ATOM     26  C   UNL     1      34.396  -9.714 -24.074  0.00  0.00    -0.003 C 
ATOM     27  C   UNL     1      33.302  -7.211 -23.512  0.00  0.00    -0.005 C 
ATOM     28  C   UNL     1      30.992  -8.140 -23.516  0.00  0.00    +0.031 C 
ATOM     29  C   UNL     1      35.230  -8.606 -23.924  0.00  0.00    -0.000 C 
ATOM     30  C   UNL     1      34.682  -7.354 -23.644  0.00  0.00    -0.000 C 
ENDBRANCH  23  24
ENDBRANCH   4  23
TORSDOF 4
ENDMDL
MODEL 6
REMARK VINA RESULT:     -11.9      1.809      8.227
REMARK  Name = 73777259
REMARK  4 active torsions:
REMARK  status: ('A' for Active; 'I' for Inactive)
REMARK    1  A    between atoms: N_3  and  C_16
REMARK    2  A    between atoms: N_4  and  C_23
REMARK    3  A    between atoms: C_16  and  C_17
REMARK    4  A    between atoms: C_23  and  C_24
REMARK                            x       y       z     vdW  Elec       q    Type
REMARK                         _______ _______ _______ _____ _____    ______ ____
ROOT
ATOM      1  O   UNL     1      33.743 -14.283 -21.172  0.00  0.00    -0.270 OA
ATOM      2  N   UNL     1      33.530 -15.352 -25.056  0.00  0.00    -0.240 N 
ATOM      3  N   UNL     1      35.909 -17.711 -22.495  0.00  0.00    +0.393 N 
ATOM      4  N   UNL     1      33.027 -13.779 -23.338  0.00  0.00    -0.224 N 
ATOM      5  N   UNL     1      32.372 -13.460 -25.611  0.00  0.00    -0.214 NA
ATOM      6  C   UNL     1      34.185 -16.177 -24.166  0.00  0.00    +0.032 C 
ATOM      7  C   UNL     1      34.294 -15.848 -22.864  0.00  0.00    +0.021 C 
ATOM      8  C   UNL     1      34.783 -17.469 -24.672  0.00  0.00    +0.019 C 
ATOM      9  C   UNL     1      35.033 -16.707 -21.869  0.00  0.00    -0.044 C 
ATOM     10  C   UNL     1      35.190 -18.435 -23.549  0.00  0.00    -0.070 C 
ATOM     11  C   UNL     1      32.958 -14.166 -24.676  0.00  0.00    +0.202 C 
ATOM     12  C   UNL     1      33.328 -15.542 -26.471  0.00  0.00    +0.092 C 
ATOM     13  C   UNL     1      33.668 -14.568 -22.368  0.00  0.00    +0.250 C 
ATOM     14  C   UNL     1      32.566 -14.265 -26.851  0.00  0.00    +0.118 C 
ATOM     15  H   UNL     1      36.699 -17.229 -22.926  0.00  0.00    -0.079 HD
ENDROOT
BRANCH   3  16
ATOM     16  C   UNL     1      36.438 -18.633 -21.492  0.00  0.00    -0.049 C 
BRANCH  16  17
ATOM     17  C   UNL     1      35.359 -19.509 -20.913  0.00  0.00    -0.043 C 
ATOM     18  C   UNL     1      34.017 -19.169 -21.083  0.00  0.00    -0.006 C 
ATOM     19  C   UNL     1      35.702 -20.661 -20.205  0.00  0.00    -0.006 C 
ATOM     20  C   UNL     1      33.018 -19.981 -20.545  0.00  0.00    -0.000 C 
ATOM     21  C   UNL     1      34.703 -21.473 -19.667  0.00  0.00    -0.000 C 
ATOM     22  C   UNL     1      33.362 -21.132 -19.837  0.00  0.00    -0.000 C 
ENDBRANCH  16  17
ENDBRANCH   3  16
BRANCH   4  23
ATOM     23  C   UNL     1      32.407 -12.519 -22.939  0.00  0.00    +0.127 C 
BRANCH  23  24
ATOM     24  C   UNL     1      33.196 -11.330 -23.419  0.00  0.00    -0.006 C 
ATOM     25  C   UNL     1      32.869 -10.038 -23.006  0.00  0.00    -0.024 C 
ATOM     26  C   UNL     1      34.268 -11.534 -24.288  0.00  0.00    -0.003 C 
ATOM     27  C   UNL     1      33.613  -8.951 -23.463  0.00  0.00    -0.005 C 
ATOM     28  C   UNL     1      31.726  -9.795 -22.076  0.00  0.00    +0.031 C 
ATOM     29  C   UNL     1      35.012 -10.446 -24.744  0.00  0.00    -0.000 C 
ATOM     30  C   UNL     1      34.685  -9.154 -24.332  0.00  0.00    -0.000 C 
ENDBRANCH  23  24
ENDBRANCH   4  23
TORSDOF 4
ENDMDL
MODEL 7
REMARK VINA RESULT:     -11.7      5.733      9.589
REMARK  Name = 73777259
REMARK  4 active torsions:
REMARK  status: ('A' for Active; 'I' for Inactive)
REMARK    1  A    between atoms: N_3  and  C_16
REMARK    2  A    between atoms: N_4  and  C_23
REMARK    3  A    between atoms: C_16  and  C_17
REMARK    4  A    between atoms: C_23  and  C_24
REMARK                            x       y       z     vdW  Elec       q    Type
REMARK                         _______ _______ _______ _____ _____    ______ ____
ROOT
ATOM      1  O   UNL     1      37.237 -22.228 -16.011  0.00  0.00    -0.270 OA
ATOM      2  N   UNL     1      33.333 -22.997 -16.669  0.00  0.00    -0.240 N 
ATOM      3  N   UNL     1      35.435 -20.836 -19.617  0.00  0.00    +0.393 N 
ATOM      4  N   UNL     1      35.207 -23.049 -15.198  0.00  0.00    -0.224 N 
ATOM      5  N   UNL     1      33.050 -23.852 -14.568  0.00  0.00    -0.214 NA
ATOM      6  C   UNL     1      34.081 -22.415 -17.670  0.00  0.00    +0.032 C 
ATOM      7  C   UNL     1      35.384 -22.126 -17.485  0.00  0.00    +0.021 C 
ATOM      8  C   UNL     1      33.420 -22.105 -18.992  0.00  0.00    +0.019 C 
ATOM      9  C   UNL     1      36.226 -21.457 -18.542  0.00  0.00    -0.044 C 
ATOM     10  C   UNL     1      34.417 -21.769 -20.111  0.00  0.00    -0.070 C 
ATOM     11  C   UNL     1      33.859 -23.312 -15.444  0.00  0.00    +0.202 C 
ATOM     12  C   UNL     1      31.939 -23.364 -16.693  0.00  0.00    +0.092 C 
ATOM     13  C   UNL     1      36.039 -22.466 -16.169  0.00  0.00    +0.250 C 
ATOM     14  C   UNL     1      31.740 -23.922 -15.277  0.00  0.00    +0.118 C 
ATOM     15  H   UNL     1      34.956 -20.018 -19.236  0.00  0.00    -0.079 HD
ENDROOT
BRANCH   3  16
ATOM     16  C   UNL     1      36.303 -20.384 -20.703  0.00  0.00    -0.049 C 
BRANCH  16  17
ATOM     17  C   UNL     1      35.696 -19.236 -21.465  0.00  0.00    -0.043 C 
ATOM     18  C   UNL     1      35.314 -19.406 -22.795  0.00  0.00    -0.006 C 
ATOM     19  C   UNL     1      35.516 -18.002 -20.839  0.00  0.00    -0.006 C 
ATOM     20  C   UNL     1      34.752 -18.341 -23.501  0.00  0.00    -0.000 C 
ATOM     21  C   UNL     1      34.954 -16.938 -21.545  0.00  0.00    -0.000 C 
ATOM     22  C   UNL     1      34.573 -17.108 -22.876  0.00  0.00    -0.000 C 
ENDBRANCH  16  17
ENDBRANCH   3  16
BRANCH   4  23
ATOM     23  C   UNL     1      35.763 -23.395 -13.894  0.00  0.00    +0.127 C 
BRANCH  23  24
ATOM     24  C   UNL     1      36.693 -24.577 -13.978  0.00  0.00    -0.006 C 
ATOM     25  C   UNL     1      37.775 -24.701 -13.107  0.00  0.00    -0.024 C 
ATOM     26  C   UNL     1      36.460 -25.555 -14.944  0.00  0.00    -0.003 C 
ATOM     27  C   UNL     1      38.624 -25.803 -13.202  0.00  0.00    -0.005 C 
ATOM     28  C   UNL     1      38.045 -23.666 -12.065  0.00  0.00    +0.031 C 
ATOM     29  C   UNL     1      37.309 -26.658 -15.039  0.00  0.00    -0.000 C 
ATOM     30  C   UNL     1      38.391 -26.781 -14.168  0.00  0.00    -0.000 C 
ENDBRANCH  23  24
ENDBRANCH   4  23
TORSDOF 4
ENDMDL
MODEL 8
REMARK VINA RESULT:     -11.4      6.136     10.496
REMARK  Name = 73777259
REMARK  4 active torsions:
REMARK  status: ('A' for Active; 'I' for Inactive)
REMARK    1  A    between atoms: N_3  and  C_16
REMARK    2  A    between atoms: N_4  and  C_23
REMARK    3  A    between atoms: C_16  and  C_17
REMARK    4  A    between atoms: C_23  and  C_24
REMARK                            x       y       z     vdW  Elec       q    Type
REMARK                         _______ _______ _______ _____ _____    ______ ____
ROOT
ATOM      1  O   UNL     1      32.743 -22.975 -18.815  0.00  0.00    -0.270 OA
ATOM      2  N   UNL     1      35.718 -22.575 -16.121  0.00  0.00    -0.240 N 
ATOM      3  N   UNL     1      31.848 -23.403 -14.667  0.00  0.00    +0.393 N 
ATOM      4  N   UNL     1      34.968 -22.412 -18.377  0.00  0.00    -0.224 N 
ATOM      5  N   UNL     1      37.204 -21.897 -17.721  0.00  0.00    -0.214 NA
ATOM      6  C   UNL     1      34.473 -22.981 -15.691  0.00  0.00    +0.032 C 
ATOM      7  C   UNL     1      33.447 -23.110 -16.556  0.00  0.00    +0.021 C 
ATOM      8  C   UNL     1      34.268 -23.285 -14.226  0.00  0.00    +0.019 C 
ATOM      9  C   UNL     1      32.063 -23.516 -16.119  0.00  0.00    -0.044 C 
ATOM     10  C   UNL     1      32.955 -24.027 -13.934  0.00  0.00    -0.070 C 
ATOM     11  C   UNL     1      35.986 -22.284 -17.433  0.00  0.00    +0.202 C 
ATOM     12  C   UNL     1      36.914 -22.379 -15.340  0.00  0.00    +0.092 C 
ATOM     13  C   UNL     1      33.674 -22.829 -18.021  0.00  0.00    +0.250 C 
ATOM     14  C   UNL     1      37.910 -21.906 -16.408  0.00  0.00    +0.118 C 
ATOM     15  H   UNL     1      31.823 -22.413 -14.419  0.00  0.00    -0.079 HD
ENDROOT
BRANCH   3  16
ATOM     16  C   UNL     1      30.567 -23.995 -14.286  0.00  0.00    -0.049 C 
BRANCH  16  17
ATOM     17  C   UNL     1      29.469 -23.618 -15.245  0.00  0.00    -0.043 C 
ATOM     18  C   UNL     1      29.038 -24.532 -16.207  0.00  0.00    -0.006 C 
ATOM     19  C   UNL     1      28.883 -22.354 -15.171  0.00  0.00    -0.006 C 
ATOM     20  C   UNL     1      28.021 -24.182 -17.096  0.00  0.00    -0.000 C 
ATOM     21  C   UNL     1      27.866 -22.004 -16.060  0.00  0.00    -0.000 C 
ATOM     22  C   UNL     1      27.436 -22.919 -17.022  0.00  0.00    -0.000 C 
ENDBRANCH  16  17
ENDBRANCH   3  16
BRANCH   4  23
ATOM     23  C   UNL     1      35.263 -22.109 -19.774  0.00  0.00    +0.127 C 
BRANCH  23  24
ATOM     24  C   UNL     1      34.680 -20.786 -20.195  0.00  0.00    -0.006 C 
ATOM     25  C   UNL     1      35.505 -19.722 -20.559  0.00  0.00    -0.024 C 
ATOM     26  C   UNL     1      33.294 -20.634 -20.219  0.00  0.00    -0.003 C 
ATOM     27  C   UNL     1      34.944 -18.506 -20.946  0.00  0.00    -0.005 C 
ATOM     28  C   UNL     1      36.992 -19.861 -20.541  0.00  0.00    +0.031 C 
ATOM     29  C   UNL     1      32.732 -19.417 -20.607  0.00  0.00    -0.000 C 
ATOM     30  C   UNL     1      33.558 -18.353 -20.970  0.00  0.00    -0.000 C 
ENDBRANCH  23  24
ENDBRANCH   4  23
TORSDOF 4
ENDMDL
MODEL 9
REMARK VINA RESULT:     -10.9      1.563      7.915
REMARK  Name = 73777259
REMARK  4 active torsions:
REMARK  status: ('A' for Active; 'I' for Inactive)
REMARK    1  A    between atoms: N_3  and  C_16
REMARK    2  A    between atoms: N_4  and  C_23
REMARK    3  A    between atoms: C_16  and  C_17
REMARK    4  A    between atoms: C_23  and  C_24
REMARK                            x       y       z     vdW  Elec       q    Type
REMARK                         _______ _______ _______ _____ _____    ______ ____
ROOT
ATOM      1  O   UNL     1      35.041 -14.027 -21.753  0.00  0.00    -0.270 OA
ATOM      2  N   UNL     1      33.621 -15.770 -25.102  0.00  0.00    -0.240 N 
ATOM      3  N   UNL     1      35.828 -18.165 -22.425  0.00  0.00    +0.393 N 
ATOM      4  N   UNL     1      33.985 -13.791 -23.824  0.00  0.00    -0.224 N 
ATOM      5  N   UNL     1      32.911 -13.770 -25.955  0.00  0.00    -0.214 NA
ATOM      6  C   UNL     1      34.226 -16.552 -24.142  0.00  0.00    +0.032 C 
ATOM      7  C   UNL     1      34.729 -16.007 -23.017  0.00  0.00    +0.021 C 
ATOM      8  C   UNL     1      34.317 -18.043 -24.365  0.00  0.00    +0.019 C 
ATOM      9  C   UNL     1      35.430 -16.825 -21.962  0.00  0.00    -0.044 C 
ATOM     10  C   UNL     1      34.709 -18.827 -23.104  0.00  0.00    -0.070 C 
ATOM     11  C   UNL     1      33.495 -14.411 -24.973  0.00  0.00    +0.202 C 
ATOM     12  C   UNL     1      33.040 -16.181 -26.356  0.00  0.00    +0.092 C 
ATOM     13  C   UNL     1      34.607 -14.520 -22.795  0.00  0.00    +0.250 C 
ATOM     14  C   UNL     1      32.578 -14.839 -26.941  0.00  0.00    +0.118 C 
ATOM     15  H   UNL     1      36.589 -18.063 -23.096  0.00  0.00    -0.079 HD
ENDROOT
BRANCH   3  16
ATOM     16  C   UNL     1      36.317 -18.973 -21.309  0.00  0.00    -0.049 C 
BRANCH  16  17
ATOM     17  C   UNL     1      35.227 -19.823 -20.714  0.00  0.00    -0.043 C 
ATOM     18  C   UNL     1      35.548 -21.010 -20.055  0.00  0.00    -0.006 C 
ATOM     19  C   UNL     1      33.894 -19.424 -20.821  0.00  0.00    -0.006 C 
ATOM     20  C   UNL     1      34.538 -21.798 -19.504  0.00  0.00    -0.000 C 
ATOM     21  C   UNL     1      32.883 -20.212 -20.270  0.00  0.00    -0.000 C 
ATOM     22  C   UNL     1      33.206 -21.399 -19.612  0.00  0.00    -0.000 C 
ENDBRANCH  16  17
ENDBRANCH   3  16
BRANCH   4  23
ATOM     23  C   UNL     1      33.839 -12.346 -23.689  0.00  0.00    +0.127 C 
BRANCH  23  24
ATOM     24  C   UNL     1      32.767 -11.980 -22.697  0.00  0.00    -0.006 C 
ATOM     25  C   UNL     1      32.221 -10.697 -22.672  0.00  0.00    -0.024 C 
ATOM     26  C   UNL     1      32.320 -12.946 -21.797  0.00  0.00    -0.003 C 
ATOM     27  C   UNL     1      31.229 -10.380 -21.745  0.00  0.00    -0.005 C 
ATOM     28  C   UNL     1      32.684  -9.646 -23.626  0.00  0.00    +0.031 C 
ATOM     29  C   UNL     1      31.327 -12.629 -20.870  0.00  0.00    -0.000 C 
ATOM     30  C   UNL     1      30.782 -11.346 -20.844  0.00  0.00    -0.000 C 
ENDBRANCH  23  24
ENDBRANCH   4  23
TORSDOF 4
ENDMDL
