MODEL 1
REMARK VINA RESULT:      -7.8      0.000      0.000
REMARK  Name = 5902
REMARK  12 active torsions:
REMARK  status: ('A' for Active; 'I' for Inactive)
REMARK    1  A    between atoms: C_1  and  C_2
REMARK    2  A    between atoms: C_1  and  N_8
REMARK    3  A    between atoms: C_1  and  C_20
REMARK    4  A    between atoms: N_8  and  C_11
REMARK    5  A    between atoms: C_11  and  C_12
REMARK    6  A    between atoms: C_12  and  N_13
REMARK    7  A    between atoms: N_13  and  C_15
REMARK    8  A    between atoms: N_13  and  C_17
REMARK    9  A    between atoms: C_20  and  O_21
REMARK   10  A    between atoms: O_21  and  C_22
REMARK   11  A    between atoms: C_22  and  C_23
REMARK   12  A    between atoms: C_23  and  C_24
REMARK                            x       y       z     vdW  Elec       q    Type
REMARK                         _______ _______ _______ _____ _____    ______ ____
ROOT
ATOM      1  C   UNL     1      33.002 -13.033 -22.847  0.00  0.00    +0.063 C 
ENDROOT
BRANCH   1   2
ATOM      2  C   UNL     1      33.166 -13.133 -24.349  0.00  0.00    -0.032 C 
ATOM      3  C   UNL     1      33.730 -12.073 -25.061  0.00  0.00    -0.006 C 
ATOM      4  C   UNL     1      32.753 -14.283 -25.021  0.00  0.00    -0.006 C 
ATOM      5  C   UNL     1      33.881 -12.165 -26.444  0.00  0.00    -0.000 C 
ATOM      6  C   UNL     1      32.905 -14.374 -26.405  0.00  0.00    -0.000 C 
ATOM      7  C   UNL     1      33.469 -13.315 -27.116  0.00  0.00    -0.000 C 
ENDBRANCH   1   2
BRANCH   1   8
ATOM      8  N   UNL     1      31.686 -12.500 -22.487  0.00  0.00    +0.393 N 
ATOM      9  H   UNL     1      31.172 -12.271 -23.338  0.00  0.00    -0.083 HD
ATOM     10  H   UNL     1      31.181 -13.206 -21.950  0.00  0.00    -0.083 HD
BRANCH   8  11
ATOM     11  C   UNL     1      31.822 -11.303 -21.675  0.00  0.00    -0.104 C 
BRANCH  11  12
ATOM     12  C   UNL     1      31.680 -10.057 -22.544  0.00  0.00    -0.101 C 
BRANCH  12  13
ATOM     13  N   UNL     1      32.757  -9.116 -22.255  0.00  0.00    +0.385 N 
ATOM     14  H   UNL     1      33.344  -9.519 -21.525  0.00  0.00    -0.080 HD
BRANCH  13  15
ATOM     15  C   UNL     1      32.215  -7.846 -21.770  0.00  0.00    -0.078 C 
ATOM     16  C   UNL     1      32.324  -7.746 -20.257  0.00  0.00    -0.025 C 
ENDBRANCH  13  15
BRANCH  13  17
ATOM     17  C   UNL     1      33.580  -8.897 -23.445  0.00  0.00    -0.078 C 
ATOM     18  C   UNL     1      34.483  -7.687 -23.274  0.00  0.00    -0.025 C 
ENDBRANCH  13  17
ENDBRANCH  12  13
ENDBRANCH  11  12
ENDBRANCH   8  11
ENDBRANCH   1   8
BRANCH   1  20
ATOM     19  O   UNL     1      32.256 -15.064 -21.716  0.00  0.00    -0.252 OA
ATOM     20  C   UNL     1      33.169 -14.377 -22.157  0.00  0.00    +0.301 C 
BRANCH  20  21
ATOM     21  O   UNL     1      34.498 -14.716 -22.120  0.00  0.00    -0.450 OA
BRANCH  21  22
ATOM     22  C   UNL     1      34.783 -16.110 -22.097  0.00  0.00    +0.208 C 
BRANCH  22  23
ATOM     23  C   UNL     1      35.021 -16.584 -23.526  0.00  0.00    +0.047 C 
BRANCH  23  24
ATOM     24  C   UNL     1      35.189 -18.106 -23.653  0.00  0.00    +0.004 C 
ATOM     25  C   UNL     1      34.705 -18.791 -22.374  0.00  0.00    +0.000 C 
ATOM     26  C   UNL     1      34.441 -18.675 -24.860  0.00  0.00    +0.000 C 
ENDBRANCH  23  24
ENDBRANCH  22  23
ENDBRANCH  21  22
ENDBRANCH  20  21
ENDBRANCH   1  20
TORSDOF 12
ENDMDL
MODEL 2
REMARK VINA RESULT:      -7.6      1.766      2.771
REMARK  Name = 5902
REMARK  12 active torsions:
REMARK  status: ('A' for Active; 'I' for Inactive)
REMARK    1  A    between atoms: C_1  and  C_2
REMARK    2  A    between atoms: C_1  and  N_8
REMARK    3  A    between atoms: C_1  and  C_20
REMARK    4  A    between atoms: N_8  and  C_11
REMARK    5  A    between atoms: C_11  and  C_12
REMARK    6  A    between atoms: C_12  and  N_13
REMARK    7  A    between atoms: N_13  and  C_15
REMARK    8  A    between atoms: N_13  and  C_17
REMARK    9  A    between atoms: C_20  and  O_21
REMARK   10  A    between atoms: O_21  and  C_22
REMARK   11  A    between atoms: C_22  and  C_23
REMARK   12  A    between atoms: C_23  and  C_24
REMARK                            x       y       z     vdW  Elec       q    Type
REMARK                         _______ _______ _______ _____ _____    ______ ____
ROOT
ATOM      1  C   UNL     1      33.813 -14.012 -22.828  0.00  0.00    +0.063 C 
ENDROOT
BRANCH   1   2
ATOM      2  C   UNL     1      33.610 -13.704 -24.296  0.00  0.00    -0.032 C 
ATOM      3  C   UNL     1      33.068 -14.671 -25.144  0.00  0.00    -0.006 C 
ATOM      4  C   UNL     1      33.965 -12.453 -24.802  0.00  0.00    -0.006 C 
ATOM      5  C   UNL     1      32.882 -14.387 -26.496  0.00  0.00    -0.000 C 
ATOM      6  C   UNL     1      33.778 -12.170 -26.155  0.00  0.00    -0.000 C 
ATOM      7  C   UNL     1      33.236 -13.137 -27.003  0.00  0.00    -0.000 C 
ENDBRANCH   1   2
BRANCH   1   8
ATOM      8  N   UNL     1      32.538 -14.275 -22.156  0.00  0.00    +0.393 N 
ATOM      9  H   UNL     1      31.806 -14.390 -22.858  0.00  0.00    -0.083 HD
ATOM     10  H   UNL     1      32.629 -15.126 -21.600  0.00  0.00    -0.083 HD
BRANCH   8  11
ATOM     11  C   UNL     1      32.187 -13.175 -21.274  0.00  0.00    -0.104 C 
BRANCH  11  12
ATOM     12  C   UNL     1      31.568 -12.034 -22.075  0.00  0.00    -0.101 C 
BRANCH  12  13
ATOM     13  N   UNL     1      31.118 -10.975 -21.178  0.00  0.00    +0.385 N 
ATOM     14  H   UNL     1      30.110 -10.869 -21.290  0.00  0.00    -0.080 HD
BRANCH  13  15
ATOM     15  C   UNL     1      31.761  -9.705 -21.518  0.00  0.00    -0.078 C 
ATOM     16  C   UNL     1      32.256  -9.709 -22.955  0.00  0.00    -0.025 C 
ENDBRANCH  13  15
BRANCH  13  17
ATOM     17  C   UNL     1      31.397 -11.329 -19.785  0.00  0.00    -0.078 C 
ATOM     18  C   UNL     1      31.988 -10.153 -19.027  0.00  0.00    -0.025 C 
ENDBRANCH  13  17
ENDBRANCH  12  13
ENDBRANCH  11  12
ENDBRANCH   8  11
ENDBRANCH   1   8
BRANCH   1  20
ATOM     19  O   UNL     1      35.383 -15.766 -23.477  0.00  0.00    -0.252 OA
ATOM     20  C   UNL     1      34.717 -15.215 -22.609  0.00  0.00    +0.301 C 
BRANCH  20  21
ATOM     21  O   UNL     1      34.690 -15.579 -21.287  0.00  0.00    -0.450 OA
BRANCH  21  22
ATOM     22  C   UNL     1      35.014 -16.936 -21.009  0.00  0.00    +0.208 C 
BRANCH  22  23
ATOM     23  C   UNL     1      33.769 -17.790 -21.224  0.00  0.00    +0.047 C 
BRANCH  23  24
ATOM     24  C   UNL     1      34.065 -19.290 -21.371  0.00  0.00    +0.004 C 
ATOM     25  C   UNL     1      35.521 -19.572 -20.992  0.00  0.00    +0.000 C 
ATOM     26  C   UNL     1      33.133 -20.154 -20.521  0.00  0.00    +0.000 C 
ENDBRANCH  23  24
ENDBRANCH  22  23
ENDBRANCH  21  22
ENDBRANCH  20  21
ENDBRANCH   1  20
TORSDOF 12
ENDMDL
MODEL 3
REMARK VINA RESULT:      -7.6      8.558     12.809
REMARK  Name = 5902
REMARK  12 active torsions:
REMARK  status: ('A' for Active; 'I' for Inactive)
REMARK    1  A    between atoms: C_1  and  C_2
REMARK    2  A    between atoms: C_1  and  N_8
REMARK    3  A    between atoms: C_1  and  C_20
REMARK    4  A    between atoms: N_8  and  C_11
REMARK    5  A    between atoms: C_11  and  C_12
REMARK    6  A    between atoms: C_12  and  N_13
REMARK    7  A    between atoms: N_13  and  C_15
REMARK    8  A    between atoms: N_13  and  C_17
REMARK    9  A    between atoms: C_20  and  O_21
REMARK   10  A    between atoms: O_21  and  C_22
REMARK   11  A    between atoms: C_22  and  C_23
REMARK   12  A    between atoms: C_23  and  C_24
REMARK                            x       y       z     vdW  Elec       q    Type
REMARK                         _______ _______ _______ _____ _____    ______ ____
ROOT
ATOM      1  C   UNL     1      35.149 -22.380 -18.470  0.00  0.00    +0.063 C 
ENDROOT
BRANCH   1   2
ATOM      2  C   UNL     1      34.710 -21.329 -19.468  0.00  0.00    -0.032 C 
ATOM      3  C   UNL     1      33.354 -21.048 -19.634  0.00  0.00    -0.006 C 
ATOM      4  C   UNL     1      35.662 -20.643 -20.222  0.00  0.00    -0.006 C 
ATOM      5  C   UNL     1      32.950 -20.080 -20.553  0.00  0.00    -0.000 C 
ATOM      6  C   UNL     1      35.257 -19.675 -21.141  0.00  0.00    -0.000 C 
ATOM      7  C   UNL     1      33.902 -19.393 -21.307  0.00  0.00    -0.000 C 
ENDBRANCH   1   2
BRANCH   1   8
ATOM      8  N   UNL     1      35.675 -21.768 -17.247  0.00  0.00    +0.393 N 
ATOM      9  H   UNL     1      35.729 -20.758 -17.373  0.00  0.00    -0.083 HD
ATOM     10  H   UNL     1      35.049 -21.993 -16.472  0.00  0.00    -0.083 HD
BRANCH   8  11
ATOM     11  C   UNL     1      36.999 -22.284 -16.944  0.00  0.00    -0.104 C 
BRANCH  11  12
ATOM     12  C   UNL     1      37.072 -22.728 -15.486  0.00  0.00    -0.101 C 
BRANCH  12  13
ATOM     13  N   UNL     1      37.247 -24.174 -15.408  0.00  0.00    +0.385 N 
ATOM     14  H   UNL     1      37.575 -24.505 -16.315  0.00  0.00    -0.080 HD
BRANCH  13  15
ATOM     15  C   UNL     1      35.974 -24.831 -15.106  0.00  0.00    -0.078 C 
ATOM     16  C   UNL     1      35.291 -24.181 -13.914  0.00  0.00    -0.025 C 
ENDBRANCH  13  15
BRANCH  13  17
ATOM     17  C   UNL     1      38.248 -24.517 -14.398  0.00  0.00    -0.078 C 
ATOM     18  C   UNL     1      38.869 -25.875 -14.679  0.00  0.00    -0.025 C 
ENDBRANCH  13  17
ENDBRANCH  12  13
ENDBRANCH  11  12
ENDBRANCH   8  11
ENDBRANCH   1   8
BRANCH   1  20
ATOM     19  O   UNL     1      33.576 -24.223 -18.772  0.00  0.00    -0.252 OA
ATOM     20  C   UNL     1      34.015 -23.314 -18.078  0.00  0.00    +0.301 C 
BRANCH  20  21
ATOM     21  O   UNL     1      33.570 -22.998 -16.820  0.00  0.00    -0.450 OA
BRANCH  21  22
ATOM     22  C   UNL     1      32.212 -23.319 -16.542  0.00  0.00    +0.208 C 
BRANCH  22  23
ATOM     23  C   UNL     1      31.940 -23.059 -15.065  0.00  0.00    +0.047 C 
BRANCH  23  24
ATOM     24  C   UNL     1      30.561 -23.547 -14.594  0.00  0.00    +0.004 C 
ATOM     25  C   UNL     1      29.460 -22.823 -15.370  0.00  0.00    +0.000 C 
ATOM     26  C   UNL     1      30.395 -25.060 -14.750  0.00  0.00    +0.000 C 
ENDBRANCH  23  24
ENDBRANCH  22  23
ENDBRANCH  21  22
ENDBRANCH  20  21
ENDBRANCH   1  20
TORSDOF 12
ENDMDL
MODEL 4
REMARK VINA RESULT:      -7.5      1.862      3.555
REMARK  Name = 5902
REMARK  12 active torsions:
REMARK  status: ('A' for Active; 'I' for Inactive)
REMARK    1  A    between atoms: C_1  and  C_2
REMARK    2  A    between atoms: C_1  and  N_8
REMARK    3  A    between atoms: C_1  and  C_20
REMARK    4  A    between atoms: N_8  and  C_11
REMARK    5  A    between atoms: C_11  and  C_12
REMARK    6  A    between atoms: C_12  and  N_13
REMARK    7  A    between atoms: N_13  and  C_15
REMARK    8  A    between atoms: N_13  and  C_17
REMARK    9  A    between atoms: C_20  and  O_21
REMARK   10  A    between atoms: O_21  and  C_22
REMARK   11  A    between atoms: C_22  and  C_23
REMARK   12  A    between atoms: C_23  and  C_24
REMARK                            x       y       z     vdW  Elec       q    Type
REMARK                         _______ _______ _______ _____ _____    ______ ____
ROOT
ATOM      1  C   UNL     1      33.193 -13.099 -23.980  0.00  0.00    +0.063 C 
ENDROOT
BRANCH   1   2
ATOM      2  C   UNL     1      33.348 -13.870 -22.686  0.00  0.00    -0.032 C 
ATOM      3  C   UNL     1      32.262 -14.005 -21.820  0.00  0.00    -0.006 C 
ATOM      4  C   UNL     1      34.577 -14.444 -22.359  0.00  0.00    -0.006 C 
ATOM      5  C   UNL     1      32.405 -14.714 -20.628  0.00  0.00    -0.000 C 
ATOM      6  C   UNL     1      34.719 -15.154 -21.166  0.00  0.00    -0.000 C 
ATOM      7  C   UNL     1      33.634 -15.290 -20.301  0.00  0.00    -0.000 C 
ENDBRANCH   1   2
BRANCH   1   8
ATOM      8  N   UNL     1      34.253 -12.101 -24.138  0.00  0.00    +0.393 N 
ATOM      9  H   UNL     1      34.755 -12.002 -23.256  0.00  0.00    -0.083 HD
ATOM     10  H   UNL     1      34.890 -12.412 -24.873  0.00  0.00    -0.083 HD
BRANCH   8  11
ATOM     11  C   UNL     1      33.694 -10.814 -24.517  0.00  0.00    -0.104 C 
BRANCH  11  12
ATOM     12  C   UNL     1      33.013 -10.162 -23.317  0.00  0.00    -0.101 C 
BRANCH  12  13
ATOM     13  N   UNL     1      32.762  -8.750 -23.587  0.00  0.00    +0.385 N 
ATOM     14  H   UNL     1      33.022  -8.560 -24.555  0.00  0.00    -0.080 HD
BRANCH  13  15
ATOM     15  C   UNL     1      33.578  -7.907 -22.712  0.00  0.00    -0.078 C 
ATOM     16  C   UNL     1      34.868  -7.491 -23.398  0.00  0.00    -0.025 C 
ENDBRANCH  13  15
BRANCH  13  17
ATOM     17  C   UNL     1      31.343  -8.439 -23.417  0.00  0.00    -0.078 C 
ATOM     18  C   UNL     1      30.979  -7.138 -24.112  0.00  0.00    -0.025 C 
ENDBRANCH  13  17
ENDBRANCH  12  13
ENDBRANCH  11  12
ENDBRANCH   8  11
ENDBRANCH   1   8
BRANCH   1  20
ATOM     19  O   UNL     1      33.292 -13.627 -26.362  0.00  0.00    -0.252 OA
ATOM     20  C   UNL     1      33.216 -14.007 -25.199  0.00  0.00    +0.301 C 
BRANCH  20  21
ATOM     21  O   UNL     1      33.158 -15.318 -24.801  0.00  0.00    -0.450 OA
BRANCH  21  22
ATOM     22  C   UNL     1      33.755 -16.262 -25.682  0.00  0.00    +0.208 C 
BRANCH  22  23
ATOM     23  C   UNL     1      34.983 -16.857 -25.003  0.00  0.00    +0.047 C 
BRANCH  23  24
ATOM     24  C   UNL     1      34.658 -17.988 -24.016  0.00  0.00    +0.004 C 
ATOM     25  C   UNL     1      34.494 -19.307 -24.772  0.00  0.00    +0.000 C 
ATOM     26  C   UNL     1      35.727 -18.142 -22.933  0.00  0.00    +0.000 C 
ENDBRANCH  23  24
ENDBRANCH  22  23
ENDBRANCH  21  22
ENDBRANCH  20  21
ENDBRANCH   1  20
TORSDOF 12
ENDMDL
MODEL 5
REMARK VINA RESULT:      -7.4      9.110     13.756
REMARK  Name = 5902
REMARK  12 active torsions:
REMARK  status: ('A' for Active; 'I' for Inactive)
REMARK    1  A    between atoms: C_1  and  C_2
REMARK    2  A    between atoms: C_1  and  N_8
REMARK    3  A    between atoms: C_1  and  C_20
REMARK    4  A    between atoms: N_8  and  C_11
REMARK    5  A    between atoms: C_11  and  C_12
REMARK    6  A    between atoms: C_12  and  N_13
REMARK    7  A    between atoms: N_13  and  C_15
REMARK    8  A    between atoms: N_13  and  C_17
REMARK    9  A    between atoms: C_20  and  O_21
REMARK   10  A    between atoms: O_21  and  C_22
REMARK   11  A    between atoms: C_22  and  C_23
REMARK   12  A    between atoms: C_23  and  C_24
REMARK                            x       y       z     vdW  Elec       q    Type
REMARK                         _______ _______ _______ _____ _____    ______ ____
ROOT
ATOM      1  C   UNL     1      33.577 -23.025 -16.392  0.00  0.00    +0.063 C 
ENDROOT
BRANCH   1   2
ATOM      2  C   UNL     1      32.393 -23.555 -15.611  0.00  0.00    -0.032 C 
ATOM      3  C   UNL     1      31.094 -23.264 -16.030  0.00  0.00    -0.006 C 
ATOM      4  C   UNL     1      32.600 -24.335 -14.473  0.00  0.00    -0.006 C 
ATOM      5  C   UNL     1      30.004 -23.752 -15.311  0.00  0.00    -0.000 C 
ATOM      6  C   UNL     1      31.509 -24.822 -13.754  0.00  0.00    -0.000 C 
ATOM      7  C   UNL     1      30.210 -24.532 -14.173  0.00  0.00    -0.000 C 
ENDBRANCH   1   2
BRANCH   1   8
ATOM      8  N   UNL     1      34.826 -23.658 -15.963  0.00  0.00    +0.393 N 
ATOM      9  H   UNL     1      34.723 -23.987 -15.003  0.00  0.00    -0.083 HD
ATOM     10  H   UNL     1      35.028 -24.442 -16.585  0.00  0.00    -0.083 HD
BRANCH   8  11
ATOM     11  C   UNL     1      35.928 -22.713 -16.029  0.00  0.00    -0.104 C 
BRANCH  11  12
ATOM     12  C   UNL     1      37.194 -23.338 -15.447  0.00  0.00    -0.101 C 
BRANCH  12  13
ATOM     13  N   UNL     1      36.852 -24.236 -14.350  0.00  0.00    +0.385 N 
ATOM     14  H   UNL     1      35.896 -24.562 -14.490  0.00  0.00    -0.080 HD
BRANCH  13  15
ATOM     15  C   UNL     1      36.920 -23.532 -13.068  0.00  0.00    -0.078 C 
ATOM     16  C   UNL     1      35.636 -23.711 -12.275  0.00  0.00    -0.025 C 
ENDBRANCH  13  15
BRANCH  13  17
ATOM     17  C   UNL     1      37.743 -25.397 -14.341  0.00  0.00    -0.078 C 
ATOM     18  C   UNL     1      38.946 -25.160 -13.445  0.00  0.00    -0.025 C 
ENDBRANCH  13  17
ENDBRANCH  12  13
ENDBRANCH  11  12
ENDBRANCH   8  11
ENDBRANCH   1   8
BRANCH   1  20
ATOM     19  O   UNL     1      33.582 -24.316 -18.464  0.00  0.00    -0.252 OA
ATOM     20  C   UNL     1      33.427 -23.246 -17.889  0.00  0.00    +0.301 C 
BRANCH  20  21
ATOM     21  O   UNL     1      33.072 -22.069 -18.497  0.00  0.00    -0.450 OA
BRANCH  21  22
ATOM     22  C   UNL     1      33.939 -21.618 -19.531  0.00  0.00    +0.208 C 
BRANCH  22  23
ATOM     23  C   UNL     1      33.286 -20.433 -20.234  0.00  0.00    +0.047 C 
BRANCH  23  24
ATOM     24  C   UNL     1      34.234 -19.670 -21.172  0.00  0.00    +0.004 C 
ATOM     25  C   UNL     1      33.883 -18.181 -21.167  0.00  0.00    +0.000 C 
ATOM     26  C   UNL     1      35.704 -19.856 -20.791  0.00  0.00    +0.000 C 
ENDBRANCH  23  24
ENDBRANCH  22  23
ENDBRANCH  21  22
ENDBRANCH  20  21
ENDBRANCH   1  20
TORSDOF 12
ENDMDL
MODEL 6
REMARK VINA RESULT:      -7.4      2.015      7.045
REMARK  Name = 5902
REMARK  12 active torsions:
REMARK  status: ('A' for Active; 'I' for Inactive)
REMARK    1  A    between atoms: C_1  and  C_2
REMARK    2  A    between atoms: C_1  and  N_8
REMARK    3  A    between atoms: C_1  and  C_20
REMARK    4  A    between atoms: N_8  and  C_11
REMARK    5  A    between atoms: C_11  and  C_12
REMARK    6  A    between atoms: C_12  and  N_13
REMARK    7  A    between atoms: N_13  and  C_15
REMARK    8  A    between atoms: N_13  and  C_17
REMARK    9  A    between atoms: C_20  and  O_21
REMARK   10  A    between atoms: O_21  and  C_22
REMARK   11  A    between atoms: C_22  and  C_23
REMARK   12  A    between atoms: C_23  and  C_24
REMARK                            x       y       z     vdW  Elec       q    Type
REMARK                         _______ _______ _______ _____ _____    ______ ____
ROOT
ATOM      1  C   UNL     1      33.102 -14.208 -22.717  0.00  0.00    +0.063 C 
ENDROOT
BRANCH   1   2
ATOM      2  C   UNL     1      33.297 -13.527 -24.056  0.00  0.00    -0.032 C 
ATOM      3  C   UNL     1      33.839 -12.242 -24.112  0.00  0.00    -0.006 C 
ATOM      4  C   UNL     1      32.937 -14.184 -25.232  0.00  0.00    -0.006 C 
ATOM      5  C   UNL     1      34.019 -11.615 -25.344  0.00  0.00    -0.000 C 
ATOM      6  C   UNL     1      33.117 -13.556 -26.464  0.00  0.00    -0.000 C 
ATOM      7  C   UNL     1      33.659 -12.272 -26.521  0.00  0.00    -0.000 C 
ENDBRANCH   1   2
BRANCH   1   8
ATOM      8  N   UNL     1      34.384 -14.572 -22.110  0.00  0.00    +0.393 N 
ATOM      9  H   UNL     1      35.077 -13.857 -22.335  0.00  0.00    -0.083 HD
ATOM     10  H   UNL     1      34.262 -14.639 -21.099  0.00  0.00    -0.083 HD
BRANCH   8  11
ATOM     11  C   UNL     1      34.843 -15.856 -22.613  0.00  0.00    -0.104 C 
BRANCH  11  12
ATOM     12  C   UNL     1      34.803 -16.902 -21.502  0.00  0.00    -0.101 C 
BRANCH  12  13
ATOM     13  N   UNL     1      34.474 -18.211 -22.054  0.00  0.00    +0.385 N 
ATOM     14  H   UNL     1      33.529 -18.168 -22.436  0.00  0.00    -0.080 HD
BRANCH  13  15
ATOM     15  C   UNL     1      34.507 -19.234 -21.008  0.00  0.00    -0.078 C 
ATOM     16  C   UNL     1      33.126 -19.825 -20.775  0.00  0.00    -0.025 C 
ENDBRANCH  13  15
BRANCH  13  17
ATOM     17  C   UNL     1      35.397 -18.559 -23.136  0.00  0.00    -0.078 C 
ATOM     18  C   UNL     1      34.647 -19.074 -24.353  0.00  0.00    -0.025 C 
ENDBRANCH  13  17
ENDBRANCH  12  13
ENDBRANCH  11  12
ENDBRANCH   8  11
ENDBRANCH   1   8
BRANCH   1  20
ATOM     19  O   UNL     1      32.457 -13.386 -20.510  0.00  0.00    -0.252 OA
ATOM     20  C   UNL     1      32.346 -13.333 -21.729  0.00  0.00    +0.301 C 
BRANCH  20  21
ATOM     21  O   UNL     1      31.535 -12.461 -22.410  0.00  0.00    -0.450 OA
BRANCH  21  22
ATOM     22  C   UNL     1      30.892 -11.467 -21.621  0.00  0.00    +0.208 C 
BRANCH  22  23
ATOM     23  C   UNL     1      31.753 -10.209 -21.623  0.00  0.00    +0.047 C 
BRANCH  23  24
ATOM     24  C   UNL     1      32.162  -9.737 -20.218  0.00  0.00    +0.004 C 
ATOM     25  C   UNL     1      32.124  -8.209 -20.152  0.00  0.00    +0.000 C 
ATOM     26  C   UNL     1      31.269 -10.324 -19.124  0.00  0.00    +0.000 C 
ENDBRANCH  23  24
ENDBRANCH  22  23
ENDBRANCH  21  22
ENDBRANCH  20  21
ENDBRANCH   1  20
TORSDOF 12
ENDMDL
MODEL 7
REMARK VINA RESULT:      -7.4      1.992      7.097
REMARK  Name = 5902
REMARK  12 active torsions:
REMARK  status: ('A' for Active; 'I' for Inactive)
REMARK    1  A    between atoms: C_1  and  C_2
REMARK    2  A    between atoms: C_1  and  N_8
REMARK    3  A    between atoms: C_1  and  C_20
REMARK    4  A    between atoms: N_8  and  C_11
REMARK    5  A    between atoms: C_11  and  C_12
REMARK    6  A    between atoms: C_12  and  N_13
REMARK    7  A    between atoms: N_13  and  C_15
REMARK    8  A    between atoms: N_13  and  C_17
REMARK    9  A    between atoms: C_20  and  O_21
REMARK   10  A    between atoms: O_21  and  C_22
REMARK   11  A    between atoms: C_22  and  C_23
REMARK   12  A    between atoms: C_23  and  C_24
REMARK                            x       y       z     vdW  Elec       q    Type
REMARK                         _______ _______ _______ _____ _____    ______ ____
ROOT
ATOM      1  C   UNL     1      33.184 -14.206 -22.765  0.00  0.00    +0.063 C 
ENDROOT
BRANCH   1   2
ATOM      2  C   UNL     1      33.308 -13.631 -24.160  0.00  0.00    -0.032 C 
ATOM      3  C   UNL     1      32.911 -14.388 -25.264  0.00  0.00    -0.006 C 
ATOM      4  C   UNL     1      33.820 -12.347 -24.343  0.00  0.00    -0.006 C 
ATOM      5  C   UNL     1      33.025 -13.859 -26.549  0.00  0.00    -0.000 C 
ATOM      6  C   UNL     1      33.934 -11.819 -25.629  0.00  0.00    -0.000 C 
ATOM      7  C   UNL     1      33.536 -12.574 -26.732  0.00  0.00    -0.000 C 
ENDBRANCH   1   2
BRANCH   1   8
ATOM      8  N   UNL     1      34.500 -14.462 -22.173  0.00  0.00    +0.393 N 
ATOM      9  H   UNL     1      35.223 -14.255 -22.862  0.00  0.00    -0.083 HD
ATOM     10  H   UNL     1      34.613 -13.866 -21.353  0.00  0.00    -0.083 HD
BRANCH   8  11
ATOM     11  C   UNL     1      34.615 -15.851 -21.762  0.00  0.00    -0.104 C 
BRANCH  11  12
ATOM     12  C   UNL     1      35.198 -16.690 -22.895  0.00  0.00    -0.101 C 
BRANCH  12  13
ATOM     13  N   UNL     1      35.198 -18.102 -22.527  0.00  0.00    +0.385 N 
ATOM     14  H   UNL     1      36.154 -18.372 -22.295  0.00  0.00    -0.080 HD
BRANCH  13  15
ATOM     15  C   UNL     1      34.742 -18.925 -23.648  0.00  0.00    -0.078 C 
ATOM     16  C   UNL     1      34.486 -18.077 -24.883  0.00  0.00    -0.025 C 
ENDBRANCH  13  15
BRANCH  13  17
ATOM     17  C   UNL     1      34.353 -18.327 -21.353  0.00  0.00    -0.078 C 
ATOM     18  C   UNL     1      34.151 -19.811 -21.099  0.00  0.00    -0.025 C 
ENDBRANCH  13  17
ENDBRANCH  12  13
ENDBRANCH  11  12
ENDBRANCH   8  11
ENDBRANCH   1   8
BRANCH   1  20
ATOM     19  O   UNL     1      32.431 -13.354 -20.604  0.00  0.00    -0.252 OA
ATOM     20  C   UNL     1      32.419 -13.285 -21.827  0.00  0.00    +0.301 C 
BRANCH  20  21
ATOM     21  O   UNL     1      31.728 -12.352 -22.557  0.00  0.00    -0.450 OA
BRANCH  21  22
ATOM     22  C   UNL     1      30.913 -11.458 -21.809  0.00  0.00    +0.208 C 
BRANCH  22  23
ATOM     23  C   UNL     1      31.604 -10.100 -21.750  0.00  0.00    +0.047 C 
BRANCH  23  24
ATOM     24  C   UNL     1      32.130  -9.734 -20.353  0.00  0.00    +0.004 C 
ATOM     25  C   UNL     1      32.221  -8.213 -20.214  0.00  0.00    +0.000 C 
ATOM     26  C   UNL     1      31.256 -10.303 -19.234  0.00  0.00    +0.000 C 
ENDBRANCH  23  24
ENDBRANCH  22  23
ENDBRANCH  21  22
ENDBRANCH  20  21
ENDBRANCH   1  20
TORSDOF 12
ENDMDL
MODEL 8
REMARK VINA RESULT:      -7.4      1.946      3.704
REMARK  Name = 5902
REMARK  12 active torsions:
REMARK  status: ('A' for Active; 'I' for Inactive)
REMARK    1  A    between atoms: C_1  and  C_2
REMARK    2  A    between atoms: C_1  and  N_8
REMARK    3  A    between atoms: C_1  and  C_20
REMARK    4  A    between atoms: N_8  and  C_11
REMARK    5  A    between atoms: C_11  and  C_12
REMARK    6  A    between atoms: C_12  and  N_13
REMARK    7  A    between atoms: N_13  and  C_15
REMARK    8  A    between atoms: N_13  and  C_17
REMARK    9  A    between atoms: C_20  and  O_21
REMARK   10  A    between atoms: O_21  and  C_22
REMARK   11  A    between atoms: C_22  and  C_23
REMARK   12  A    between atoms: C_23  and  C_24
REMARK                            x       y       z     vdW  Elec       q    Type
REMARK                         _______ _______ _______ _____ _____    ______ ____
ROOT
ATOM      1  C   UNL     1      33.217 -14.156 -24.314  0.00  0.00    +0.063 C 
ENDROOT
BRANCH   1   2
ATOM      2  C   UNL     1      33.398 -14.533 -22.859  0.00  0.00    -0.032 C 
ATOM      3  C   UNL     1      32.286 -14.636 -22.022  0.00  0.00    -0.006 C 
ATOM      4  C   UNL     1      34.676 -14.776 -22.355  0.00  0.00    -0.006 C 
ATOM      5  C   UNL     1      32.453 -14.983 -20.682  0.00  0.00    -0.000 C 
ATOM      6  C   UNL     1      34.842 -15.122 -21.014  0.00  0.00    -0.000 C 
ATOM      7  C   UNL     1      33.731 -15.226 -20.177  0.00  0.00    -0.000 C 
ENDBRANCH   1   2
BRANCH   1   8
ATOM      8  N   UNL     1      34.030 -12.991 -24.670  0.00  0.00    +0.393 N 
ATOM      9  H   UNL     1      34.984 -13.134 -24.337  0.00  0.00    -0.083 HD
ATOM     10  H   UNL     1      34.024 -12.884 -25.685  0.00  0.00    -0.083 HD
BRANCH   8  11
ATOM     11  C   UNL     1      33.489 -11.784 -24.068  0.00  0.00    -0.104 C 
BRANCH  11  12
ATOM     12  C   UNL     1      34.281 -10.564 -24.530  0.00  0.00    -0.101 C 
BRANCH  12  13
ATOM     13  N   UNL     1      33.644  -9.341 -24.053  0.00  0.00    +0.385 N 
ATOM     14  H   UNL     1      33.114  -8.936 -24.824  0.00  0.00    -0.080 HD
BRANCH  13  15
ATOM     15  C   UNL     1      34.652  -8.372 -23.620  0.00  0.00    -0.078 C 
ATOM     16  C   UNL     1      34.507  -7.058 -24.370  0.00  0.00    -0.025 C 
ENDBRANCH  13  15
BRANCH  13  17
ATOM     17  C   UNL     1      32.719  -9.637 -22.958  0.00  0.00    -0.078 C 
ATOM     18  C   UNL     1      31.435  -8.837 -23.093  0.00  0.00    -0.025 C 
ENDBRANCH  13  17
ENDBRANCH  12  13
ENDBRANCH  11  12
ENDBRANCH   8  11
ENDBRANCH   1   8
BRANCH   1  20
ATOM     19  O   UNL     1      33.659 -15.204 -26.475  0.00  0.00    -0.252 OA
ATOM     20  C   UNL     1      33.585 -15.292 -25.255  0.00  0.00    +0.301 C 
BRANCH  20  21
ATOM     21  O   UNL     1      33.843 -16.427 -24.530  0.00  0.00    -0.450 OA
BRANCH  21  22
ATOM     22  C   UNL     1      34.625 -17.419 -25.187  0.00  0.00    +0.208 C 
BRANCH  22  23
ATOM     23  C   UNL     1      34.679 -18.661 -24.304  0.00  0.00    +0.047 C 
BRANCH  23  24
ATOM     24  C   UNL     1      34.851 -18.351 -22.809  0.00  0.00    +0.004 C 
ATOM     25  C   UNL     1      34.120 -19.403 -21.973  0.00  0.00    +0.000 C 
ATOM     26  C   UNL     1      36.321 -18.289 -22.392  0.00  0.00    +0.000 C 
ENDBRANCH  23  24
ENDBRANCH  22  23
ENDBRANCH  21  22
ENDBRANCH  20  21
ENDBRANCH   1  20
TORSDOF 12
ENDMDL
MODEL 9
REMARK VINA RESULT:      -7.4      9.822     14.359
REMARK  Name = 5902
REMARK  12 active torsions:
REMARK  status: ('A' for Active; 'I' for Inactive)
REMARK    1  A    between atoms: C_1  and  C_2
REMARK    2  A    between atoms: C_1  and  N_8
REMARK    3  A    between atoms: C_1  and  C_20
REMARK    4  A    between atoms: N_8  and  C_11
REMARK    5  A    between atoms: C_11  and  C_12
REMARK    6  A    between atoms: C_12  and  N_13
REMARK    7  A    between atoms: N_13  and  C_15
REMARK    8  A    between atoms: N_13  and  C_17
REMARK    9  A    between atoms: C_20  and  O_21
REMARK   10  A    between atoms: O_21  and  C_22
REMARK   11  A    between atoms: C_22  and  C_23
REMARK   12  A    between atoms: C_23  and  C_24
REMARK                            x       y       z     vdW  Elec       q    Type
REMARK                         _______ _______ _______ _____ _____    ______ ____
ROOT
ATOM      1  C   UNL     1      34.886 -24.175 -14.852  0.00  0.00    +0.063 C 
ENDROOT
BRANCH   1   2
ATOM      2  C   UNL     1      36.200 -24.656 -14.275  0.00  0.00    -0.032 C 
ATOM      3  C   UNL     1      36.740 -24.029 -13.151  0.00  0.00    -0.006 C 
ATOM      4  C   UNL     1      36.871 -25.727 -14.866  0.00  0.00    -0.006 C 
ATOM      5  C   UNL     1      37.951 -24.472 -12.620  0.00  0.00    -0.000 C 
ATOM      6  C   UNL     1      38.082 -26.170 -14.333  0.00  0.00    -0.000 C 
ATOM      7  C   UNL     1      38.622 -25.543 -13.211  0.00  0.00    -0.000 C 
ENDBRANCH   1   2
BRANCH   1   8
ATOM      8  N   UNL     1      34.144 -23.360 -13.886  0.00  0.00    +0.393 N 
ATOM      9  H   UNL     1      34.599 -23.424 -12.974  0.00  0.00    -0.083 HD
ATOM     10  H   UNL     1      34.138 -22.392 -14.209  0.00  0.00    -0.083 HD
BRANCH   8  11
ATOM     11  C   UNL     1      32.772 -23.824 -13.769  0.00  0.00    -0.104 C 
BRANCH  11  12
ATOM     12  C   UNL     1      31.819 -22.818 -14.408  0.00  0.00    -0.101 C 
BRANCH  12  13
ATOM     13  N   UNL     1      30.453 -23.328 -14.374  0.00  0.00    +0.385 N 
ATOM     14  H   UNL     1      29.923 -22.775 -13.699  0.00  0.00    -0.080 HD
BRANCH  13  15
ATOM     15  C   UNL     1      30.436 -24.727 -13.944  0.00  0.00    -0.078 C 
ATOM     16  C   UNL     1      29.884 -25.629 -15.036  0.00  0.00    -0.025 C 
ENDBRANCH  13  15
BRANCH  13  17
ATOM     17  C   UNL     1      29.820 -23.190 -15.686  0.00  0.00    -0.078 C 
ATOM     18  C   UNL     1      28.555 -22.354 -15.601  0.00  0.00    -0.025 C 
ENDBRANCH  13  17
ENDBRANCH  12  13
ENDBRANCH  11  12
ENDBRANCH   8  11
ENDBRANCH   1   8
BRANCH   1  20
ATOM     19  O   UNL     1      35.820 -22.382 -16.221  0.00  0.00    -0.252 OA
ATOM     20  C   UNL     1      35.076 -23.349 -16.114  0.00  0.00    +0.301 C 
BRANCH  20  21
ATOM     21  O   UNL     1      34.304 -23.864 -17.124  0.00  0.00    -0.450 OA
BRANCH  21  22
ATOM     22  C   UNL     1      33.426 -22.945 -17.764  0.00  0.00    +0.208 C 
BRANCH  22  23
ATOM     23  C   UNL     1      33.936 -22.685 -19.177  0.00  0.00    +0.047 C 
BRANCH  23  24
ATOM     24  C   UNL     1      34.277 -21.211 -19.450  0.00  0.00    +0.004 C 
ATOM     25  C   UNL     1      35.659 -21.109 -20.097  0.00  0.00    +0.000 C 
ATOM     26  C   UNL     1      33.237 -20.528 -20.339  0.00  0.00    +0.000 C 
ENDBRANCH  23  24
ENDBRANCH  22  23
ENDBRANCH  21  22
ENDBRANCH  20  21
ENDBRANCH   1  20
TORSDOF 12
ENDMDL
