MODEL 1
REMARK VINA RESULT:      -7.7      0.000      0.000
REMARK  Name = 449381
REMARK  8 active torsions:
REMARK  status: ('A' for Active; 'I' for Inactive)
REMARK    1  A    between atoms: C_1  and  N_8
REMARK    2  A    between atoms: C_2  and  N_12
REMARK    3  A    between atoms: C_3  and  O_20
REMARK    4  A    between atoms: C_6  and  C_17
REMARK    5  A    between atoms: C_17  and  O_18
REMARK    6  A    between atoms: O_20  and  C_21
REMARK    7  A    between atoms: C_21  and  C_22
REMARK    8  A    between atoms: C_21  and  C_24
REMARK                            x       y       z     vdW  Elec       q    Type
REMARK                         _______ _______ _______ _____ _____    ______ ____
ROOT
ATOM      1  C   UNL     1      34.136 -23.527 -15.513  0.00  0.00    +0.083 C 
ATOM      2  C   UNL     1      33.176 -24.409 -14.692  0.00  0.00    -0.040 C 
ATOM      3  C   UNL     1      33.606 -23.314 -16.945  0.00  0.00    +0.153 C 
ATOM      4  C   UNL     1      31.774 -23.780 -14.631  0.00  0.00    +0.013 C 
ATOM      5  C   UNL     1      32.122 -23.084 -17.013  0.00  0.00    +0.006 C 
ATOM      6  C   UNL     1      31.309 -23.285 -15.967  0.00  0.00    +0.049 C 
ENDROOT
BRANCH   1   8
ATOM      7  O   UNL     1      36.354 -23.027 -13.707  0.00  0.00    -0.275 OA
ATOM      8  N   UNL     1      35.462 -24.111 -15.564  0.00  0.00    -0.305 N 
ATOM      9  C   UNL     1      36.455 -23.806 -14.651  0.00  0.00    +0.223 C 
ATOM     10  C   UNL     1      37.724 -24.569 -14.919  0.00  0.00    +0.095 C 
ATOM     11  H   UNL     1      35.665 -24.754 -16.281  0.00  0.00    +0.149 HD
ENDBRANCH   1   8
BRANCH   2  12
ATOM     12  N   UNL     1      33.668 -24.601 -13.325  0.00  0.00    +0.383 N 
ATOM     13  H   UNL     1      34.011 -25.557 -13.218  0.00  0.00    -0.089 HD
ATOM     14  H   UNL     1      32.911 -24.436 -12.664  0.00  0.00    -0.089 HD
ATOM     15  H   UNL     1      34.428 -23.947 -13.142  0.00  0.00    -0.089 HD
ENDBRANCH   2  12
BRANCH   6  17
ATOM     16  O   UNL     1      29.415 -22.351 -17.059  0.00  0.00    -0.245 OA
ATOM     17  C   UNL     1      29.880 -23.021 -16.154  0.00  0.00    +0.334 C 
BRANCH  17  18
ATOM     18  O   UNL     1      29.176 -23.632 -15.179  0.00  0.00    -0.477 OA
ATOM     19  H   UNL     1      28.636 -24.370 -15.382  0.00  0.00    +0.295 HD
ENDBRANCH  17  18
ENDBRANCH   6  17
BRANCH   3  20
ATOM     20  O   UNL     1      34.277 -22.180 -17.498  0.00  0.00    -0.353 OA
BRANCH  20  21
ATOM     21  C   UNL     1      34.421 -22.302 -18.904  0.00  0.00    +0.116 C 
BRANCH  21  22
ATOM     22  C   UNL     1      35.825 -21.824 -19.292  0.00  0.00    +0.030 C 
ATOM     23  C   UNL     1      36.732 -21.650 -18.080  0.00  0.00    +0.003 C 
ENDBRANCH  21  22
BRANCH  21  24
ATOM     24  C   UNL     1      33.349 -21.467 -19.613  0.00  0.00    +0.030 C 
ATOM     25  C   UNL     1      33.931 -20.298 -20.396  0.00  0.00    +0.003 C 
ENDBRANCH  21  24
ENDBRANCH  20  21
ENDBRANCH   3  20
TORSDOF 8
ENDMDL
MODEL 2
REMARK VINA RESULT:      -7.7      2.256      5.625
REMARK  Name = 449381
REMARK  8 active torsions:
REMARK  status: ('A' for Active; 'I' for Inactive)
REMARK    1  A    between atoms: C_1  and  N_8
REMARK    2  A    between atoms: C_2  and  N_12
REMARK    3  A    between atoms: C_3  and  O_20
REMARK    4  A    between atoms: C_6  and  C_17
REMARK    5  A    between atoms: C_17  and  O_18
REMARK    6  A    between atoms: O_20  and  C_21
REMARK    7  A    between atoms: C_21  and  C_22
REMARK    8  A    between atoms: C_21  and  C_24
REMARK                            x       y       z     vdW  Elec       q    Type
REMARK                         _______ _______ _______ _____ _____    ______ ____
ROOT
ATOM      1  C   UNL     1      35.436 -24.020 -14.339  0.00  0.00    +0.083 C 
ATOM      2  C   UNL     1      36.207 -24.270 -13.029  0.00  0.00    -0.040 C 
ATOM      3  C   UNL     1      36.321 -23.297 -15.374  0.00  0.00    +0.153 C 
ATOM      4  C   UNL     1      37.474 -25.102 -13.291  0.00  0.00    +0.013 C 
ATOM      5  C   UNL     1      37.739 -23.796 -15.413  0.00  0.00    +0.006 C 
ATOM      6  C   UNL     1      38.244 -24.614 -14.480  0.00  0.00    +0.049 C 
ENDROOT
BRANCH   1   8
ATOM      7  O   UNL     1      32.723 -25.015 -14.056  0.00  0.00    -0.275 OA
ATOM      8  N   UNL     1      34.235 -23.246 -14.095  0.00  0.00    -0.305 N 
ATOM      9  C   UNL     1      32.982 -23.818 -13.975  0.00  0.00    +0.223 C 
ATOM     10  C   UNL     1      31.916 -22.791 -13.701  0.00  0.00    +0.095 C 
ATOM     11  H   UNL     1      34.315 -22.268 -14.011  0.00  0.00    +0.149 HD
ENDBRANCH   1   8
BRANCH   2  12
ATOM     12  N   UNL     1      35.375 -24.971 -12.048  0.00  0.00    +0.383 N 
ATOM     13  H   UNL     1      35.939 -25.211 -11.232  0.00  0.00    -0.089 HD
ATOM     14  H   UNL     1      35.001 -25.823 -12.465  0.00  0.00    -0.089 HD
ATOM     15  H   UNL     1      34.605 -24.367 -11.761  0.00  0.00    -0.089 HD
ENDBRANCH   2  12
BRANCH   6  17
ATOM     16  O   UNL     1      40.539 -24.729 -13.869  0.00  0.00    -0.245 OA
ATOM     17  C   UNL     1      39.639 -25.038 -14.629  0.00  0.00    +0.334 C 
BRANCH  17  18
ATOM     18  O   UNL     1      39.761 -25.814 -15.726  0.00  0.00    -0.477 OA
ATOM     19  H   UNL     1      39.520 -25.478 -16.567  0.00  0.00    +0.295 HD
ENDBRANCH  17  18
ENDBRANCH   6  17
BRANCH   3  20
ATOM     20  O   UNL     1      35.730 -23.478 -16.662  0.00  0.00    -0.353 OA
BRANCH  20  21
ATOM     21  C   UNL     1      35.434 -22.233 -17.273  0.00  0.00    +0.116 C 
BRANCH  21  22
ATOM     22  C   UNL     1      34.271 -22.435 -18.251  0.00  0.00    +0.030 C 
ATOM     23  C   UNL     1      33.077 -23.117 -17.595  0.00  0.00    +0.003 C 
ENDBRANCH  21  22
BRANCH  21  24
ATOM     24  C   UNL     1      36.673 -21.704 -18.006  0.00  0.00    +0.030 C 
ATOM     25  C   UNL     1      36.384 -21.314 -19.449  0.00  0.00    +0.003 C 
ENDBRANCH  21  24
ENDBRANCH  20  21
ENDBRANCH   3  20
TORSDOF 8
ENDMDL
MODEL 3
REMARK VINA RESULT:      -7.5      1.527      4.907
REMARK  Name = 449381
REMARK  8 active torsions:
REMARK  status: ('A' for Active; 'I' for Inactive)
REMARK    1  A    between atoms: C_1  and  N_8
REMARK    2  A    between atoms: C_2  and  N_12
REMARK    3  A    between atoms: C_3  and  O_20
REMARK    4  A    between atoms: C_6  and  C_17
REMARK    5  A    between atoms: C_17  and  O_18
REMARK    6  A    between atoms: O_20  and  C_21
REMARK    7  A    between atoms: C_21  and  C_22
REMARK    8  A    between atoms: C_21  and  C_24
REMARK                            x       y       z     vdW  Elec       q    Type
REMARK                         _______ _______ _______ _____ _____    ______ ____
ROOT
ATOM      1  C   UNL     1      33.308 -23.770 -15.743  0.00  0.00    +0.083 C 
ATOM      2  C   UNL     1      33.708 -24.012 -14.276  0.00  0.00    -0.040 C 
ATOM      3  C   UNL     1      34.386 -22.954 -16.486  0.00  0.00    +0.153 C 
ATOM      4  C   UNL     1      35.056 -24.748 -14.192  0.00  0.00    +0.013 C 
ATOM      5  C   UNL     1      35.793 -23.356 -16.141  0.00  0.00    +0.006 C 
ATOM      6  C   UNL     1      36.083 -24.170 -15.117  0.00  0.00    +0.049 C 
ENDROOT
BRANCH   1   8
ATOM      7  O   UNL     1      30.668 -24.971 -15.878  0.00  0.00    -0.275 OA
ATOM      8  N   UNL     1      32.032 -23.086 -15.827  0.00  0.00    -0.305 N 
ATOM      9  C   UNL     1      30.823 -23.753 -15.887  0.00  0.00    +0.223 C 
ATOM     10  C   UNL     1      29.655 -22.804 -15.944  0.00  0.00    +0.095 C 
ATOM     11  H   UNL     1      32.027 -22.102 -15.842  0.00  0.00    +0.149 HD
ENDBRANCH   1   8
BRANCH   2  12
ATOM     12  N   UNL     1      32.694 -24.800 -13.571  0.00  0.00    +0.383 N 
ATOM     13  H   UNL     1      31.847 -24.849 -14.137  0.00  0.00    -0.089 HD
ATOM     14  H   UNL     1      32.481 -24.360 -12.677  0.00  0.00    -0.089 HD
ATOM     15  H   UNL     1      33.048 -25.743 -13.409  0.00  0.00    -0.089 HD
ENDBRANCH   2  12
BRANCH   6  17
ATOM     16  O   UNL     1      38.281 -23.771 -14.301  0.00  0.00    -0.245 OA
ATOM     17  C   UNL     1      37.493 -24.494 -14.885  0.00  0.00    +0.334 C 
BRANCH  17  18
ATOM     18  O   UNL     1      37.772 -25.705 -15.411  0.00  0.00    -0.477 OA
ATOM     19  H   UNL     1      37.293 -26.014 -16.155  0.00  0.00    +0.295 HD
ENDBRANCH  17  18
ENDBRANCH   6  17
BRANCH   3  20
ATOM     20  O   UNL     1      34.183 -23.131 -17.889  0.00  0.00    -0.353 OA
BRANCH  20  21
ATOM     21  C   UNL     1      34.325 -21.905 -18.588  0.00  0.00    +0.116 C 
BRANCH  21  22
ATOM     22  C   UNL     1      32.987 -21.567 -19.256  0.00  0.00    +0.030 C 
ATOM     23  C   UNL     1      33.120 -20.454 -20.286  0.00  0.00    +0.003 C 
ENDBRANCH  21  22
BRANCH  21  24
ATOM     24  C   UNL     1      35.438 -22.029 -19.636  0.00  0.00    +0.030 C 
ATOM     25  C   UNL     1      36.687 -21.240 -19.268  0.00  0.00    +0.003 C 
ENDBRANCH  21  24
ENDBRANCH  20  21
ENDBRANCH   3  20
TORSDOF 8
ENDMDL
MODEL 4
REMARK VINA RESULT:      -7.5      2.334      5.646
REMARK  Name = 449381
REMARK  8 active torsions:
REMARK  status: ('A' for Active; 'I' for Inactive)
REMARK    1  A    between atoms: C_1  and  N_8
REMARK    2  A    between atoms: C_2  and  N_12
REMARK    3  A    between atoms: C_3  and  O_20
REMARK    4  A    between atoms: C_6  and  C_17
REMARK    5  A    between atoms: C_17  and  O_18
REMARK    6  A    between atoms: O_20  and  C_21
REMARK    7  A    between atoms: C_21  and  C_22
REMARK    8  A    between atoms: C_21  and  C_24
REMARK                            x       y       z     vdW  Elec       q    Type
REMARK                         _______ _______ _______ _____ _____    ______ ____
ROOT
ATOM      1  C   UNL     1      35.753 -23.094 -15.666  0.00  0.00    +0.083 C 
ATOM      2  C   UNL     1      37.049 -23.884 -15.404  0.00  0.00    -0.040 C 
ATOM      3  C   UNL     1      34.527 -23.834 -15.095  0.00  0.00    +0.153 C 
ATOM      4  C   UNL     1      37.249 -24.122 -13.898  0.00  0.00    +0.013 C 
ATOM      5  C   UNL     1      34.772 -24.464 -13.752  0.00  0.00    +0.006 C 
ATOM      6  C   UNL     1      35.995 -24.580 -13.218  0.00  0.00    +0.049 C 
ENDROOT
BRANCH   1   8
ATOM      7  O   UNL     1      36.915 -20.970 -17.269  0.00  0.00    -0.275 OA
ATOM      8  N   UNL     1      35.566 -22.858 -17.084  0.00  0.00    -0.305 N 
ATOM      9  C   UNL     1      36.168 -21.812 -17.759  0.00  0.00    +0.223 C 
ATOM     10  C   UNL     1      35.824 -21.812 -19.225  0.00  0.00    +0.095 C 
ATOM     11  H   UNL     1      34.984 -23.470 -17.589  0.00  0.00    +0.149 HD
ENDBRANCH   1   8
BRANCH   2  12
ATOM     12  N   UNL     1      38.219 -23.177 -15.932  0.00  0.00    +0.383 N 
ATOM     13  H   UNL     1      38.372 -23.449 -16.903  0.00  0.00    -0.089 HD
ATOM     14  H   UNL     1      39.040 -23.416 -15.378  0.00  0.00    -0.089 HD
ATOM     15  H   UNL     1      38.058 -22.171 -15.884  0.00  0.00    -0.089 HD
ENDBRANCH   2  12
BRANCH   6  17
ATOM     16  O   UNL     1      35.421 -24.915 -10.936  0.00  0.00    -0.245 OA
ATOM     17  C   UNL     1      36.106 -25.208 -11.900  0.00  0.00    +0.334 C 
BRANCH  17  18
ATOM     18  O   UNL     1      37.073 -26.149 -11.926  0.00  0.00    -0.477 OA
ATOM     19  H   UNL     1      37.940 -25.938 -11.640  0.00  0.00    +0.295 HD
ENDBRANCH  17  18
ENDBRANCH   6  17
BRANCH   3  20
ATOM     20  O   UNL     1      33.459 -22.891 -14.977  0.00  0.00    -0.353 OA
BRANCH  20  21
ATOM     21  C   UNL     1      32.201 -23.510 -15.192  0.00  0.00    +0.116 C 
BRANCH  21  22
ATOM     22  C   UNL     1      31.630 -23.000 -16.521  0.00  0.00    +0.030 C 
ATOM     23  C   UNL     1      30.116 -22.839 -16.475  0.00  0.00    +0.003 C 
ENDBRANCH  21  22
BRANCH  21  24
ATOM     24  C   UNL     1      31.253 -23.180 -14.033  0.00  0.00    +0.030 C 
ATOM     25  C   UNL     1      30.741 -24.422 -13.317  0.00  0.00    +0.003 C 
ENDBRANCH  21  24
ENDBRANCH  20  21
ENDBRANCH   3  20
TORSDOF 8
ENDMDL
MODEL 5
REMARK VINA RESULT:      -7.5      9.649     11.843
REMARK  Name = 449381
REMARK  8 active torsions:
REMARK  status: ('A' for Active; 'I' for Inactive)
REMARK    1  A    between atoms: C_1  and  N_8
REMARK    2  A    between atoms: C_2  and  N_12
REMARK    3  A    between atoms: C_3  and  O_20
REMARK    4  A    between atoms: C_6  and  C_17
REMARK    5  A    between atoms: C_17  and  O_18
REMARK    6  A    between atoms: O_20  and  C_21
REMARK    7  A    between atoms: C_21  and  C_22
REMARK    8  A    between atoms: C_21  and  C_24
REMARK                            x       y       z     vdW  Elec       q    Type
REMARK                         _______ _______ _______ _____ _____    ______ ____
ROOT
ATOM      1  C   UNL     1      33.602 -14.798 -22.812  0.00  0.00    +0.083 C 
ATOM      2  C   UNL     1      32.653 -15.270 -21.695  0.00  0.00    -0.040 C 
ATOM      3  C   UNL     1      33.023 -13.576 -23.553  0.00  0.00    +0.153 C 
ATOM      4  C   UNL     1      32.390 -14.138 -20.688  0.00  0.00    +0.013 C 
ATOM      5  C   UNL     1      32.364 -12.575 -22.646  0.00  0.00    +0.006 C 
ATOM      6  C   UNL     1      32.094 -12.831 -21.359  0.00  0.00    +0.049 C 
ENDROOT
BRANCH   1   8
ATOM      7  O   UNL     1      35.642 -16.857 -22.631  0.00  0.00    -0.275 OA
ATOM      8  N   UNL     1      33.863 -15.866 -23.758  0.00  0.00    -0.305 N 
ATOM      9  C   UNL     1      34.864 -16.802 -23.579  0.00  0.00    +0.223 C 
ATOM     10  C   UNL     1      34.901 -17.811 -24.696  0.00  0.00    +0.095 C 
ATOM     11  H   UNL     1      33.301 -15.927 -24.564  0.00  0.00    +0.149 HD
ENDBRANCH   1   8
BRANCH   2  12
ATOM     12  N   UNL     1      33.207 -16.421 -20.978  0.00  0.00    +0.383 N 
ATOM     13  H   UNL     1      32.698 -16.555 -20.103  0.00  0.00    -0.089 HD
ATOM     14  H   UNL     1      34.192 -16.255 -20.775  0.00  0.00    -0.089 HD
ATOM     15  H   UNL     1      33.115 -17.258 -21.554  0.00  0.00    -0.089 HD
ENDBRANCH   2  12
BRANCH   6  17
ATOM     16  O   UNL     1      31.874 -11.354 -19.509  0.00  0.00    -0.245 OA
ATOM     17  C   UNL     1      31.454 -11.773 -20.574  0.00  0.00    +0.334 C 
BRANCH  17  18
ATOM     18  O   UNL     1      30.345 -11.344 -21.211  0.00  0.00    -0.477 OA
ATOM     19  H   UNL     1      29.670 -11.952 -21.439  0.00  0.00    +0.295 HD
ENDBRANCH  17  18
ENDBRANCH   6  17
BRANCH   3  20
ATOM     20  O   UNL     1      34.093 -12.936 -24.251  0.00  0.00    -0.353 OA
BRANCH  20  21
ATOM     21  C   UNL     1      33.620 -11.861 -25.046  0.00  0.00    +0.116 C 
BRANCH  21  22
ATOM     22  C   UNL     1      33.795 -12.234 -26.523  0.00  0.00    +0.030 C 
ATOM     23  C   UNL     1      33.112 -13.550 -26.871  0.00  0.00    +0.003 C 
ENDBRANCH  21  22
BRANCH  21  24
ATOM     24  C   UNL     1      34.399 -10.583 -24.713  0.00  0.00    +0.030 C 
ATOM     25  C   UNL     1      35.478 -10.265 -25.740  0.00  0.00    +0.003 C 
ENDBRANCH  21  24
ENDBRANCH  20  21
ENDBRANCH   3  20
TORSDOF 8
ENDMDL
MODEL 6
REMARK VINA RESULT:      -7.4      2.083      4.504
REMARK  Name = 449381
REMARK  8 active torsions:
REMARK  status: ('A' for Active; 'I' for Inactive)
REMARK    1  A    between atoms: C_1  and  N_8
REMARK    2  A    between atoms: C_2  and  N_12
REMARK    3  A    between atoms: C_3  and  O_20
REMARK    4  A    between atoms: C_6  and  C_17
REMARK    5  A    between atoms: C_17  and  O_18
REMARK    6  A    between atoms: O_20  and  C_21
REMARK    7  A    between atoms: C_21  and  C_22
REMARK    8  A    between atoms: C_21  and  C_24
REMARK                            x       y       z     vdW  Elec       q    Type
REMARK                         _______ _______ _______ _____ _____    ______ ____
ROOT
ATOM      1  C   UNL     1      33.799 -23.353 -16.719  0.00  0.00    +0.083 C 
ATOM      2  C   UNL     1      32.407 -22.693 -16.691  0.00  0.00    -0.040 C 
ATOM      3  C   UNL     1      34.269 -23.721 -15.297  0.00  0.00    +0.153 C 
ATOM      4  C   UNL     1      31.375 -23.625 -16.035  0.00  0.00    +0.013 C 
ATOM      5  C   UNL     1      33.180 -24.286 -14.428  0.00  0.00    +0.006 C 
ATOM      6  C   UNL     1      31.885 -24.248 -14.771  0.00  0.00    +0.049 C 
ENDROOT
BRANCH   1   8
ATOM      7  O   UNL     1      34.433 -23.164 -19.546  0.00  0.00    -0.275 OA
ATOM      8  N   UNL     1      34.774 -22.483 -17.346  0.00  0.00    -0.305 N 
ATOM      9  C   UNL     1      35.002 -22.468 -18.710  0.00  0.00    +0.223 C 
ATOM     10  C   UNL     1      36.047 -21.456 -19.098  0.00  0.00    +0.095 C 
ATOM     11  H   UNL     1      35.297 -21.875 -16.776  0.00  0.00    +0.149 HD
ENDBRANCH   1   8
BRANCH   2  12
ATOM     12  N   UNL     1      31.951 -22.357 -18.041  0.00  0.00    +0.383 N 
ATOM     13  H   UNL     1      31.914 -21.342 -18.145  0.00  0.00    -0.089 HD
ATOM     14  H   UNL     1      31.023 -22.748 -18.195  0.00  0.00    -0.089 HD
ATOM     15  H   UNL     1      32.600 -22.743 -18.726  0.00  0.00    -0.089 HD
ENDBRANCH   2  12
BRANCH   6  17
ATOM     16  O   UNL     1      30.737 -24.456 -12.700  0.00  0.00    -0.245 OA
ATOM     17  C   UNL     1      30.917 -24.837 -13.843  0.00  0.00    +0.334 C 
BRANCH  17  18
ATOM     18  O   UNL     1      30.267 -25.852 -14.450  0.00  0.00    -0.477 OA
ATOM     19  H   UNL     1      29.672 -26.387 -13.963  0.00  0.00    +0.295 HD
ENDBRANCH  17  18
ENDBRANCH   6  17
BRANCH   3  20
ATOM     20  O   UNL     1      35.316 -24.686 -15.414  0.00  0.00    -0.353 OA
BRANCH  20  21
ATOM     21  C   UNL     1      36.250 -24.563 -14.354  0.00  0.00    +0.116 C 
BRANCH  21  22
ATOM     22  C   UNL     1      36.960 -23.211 -14.485  0.00  0.00    +0.030 C 
ATOM     23  C   UNL     1      37.818 -23.128 -15.742  0.00  0.00    +0.003 C 
ENDBRANCH  21  22
BRANCH  21  24
ATOM     24  C   UNL     1      37.261 -25.714 -14.414  0.00  0.00    +0.030 C 
ATOM     25  C   UNL     1      36.825 -26.836 -15.347  0.00  0.00    +0.003 C 
ENDBRANCH  21  24
ENDBRANCH  20  21
ENDBRANCH   3  20
TORSDOF 8
ENDMDL
MODEL 7
REMARK VINA RESULT:      -7.1      9.828     12.538
REMARK  Name = 449381
REMARK  8 active torsions:
REMARK  status: ('A' for Active; 'I' for Inactive)
REMARK    1  A    between atoms: C_1  and  N_8
REMARK    2  A    between atoms: C_2  and  N_12
REMARK    3  A    between atoms: C_3  and  O_20
REMARK    4  A    between atoms: C_6  and  C_17
REMARK    5  A    between atoms: C_17  and  O_18
REMARK    6  A    between atoms: O_20  and  C_21
REMARK    7  A    between atoms: C_21  and  C_22
REMARK    8  A    between atoms: C_21  and  C_24
REMARK                            x       y       z     vdW  Elec       q    Type
REMARK                         _______ _______ _______ _____ _____    ______ ____
ROOT
ATOM      1  C   UNL     1      32.592 -13.568 -21.711  0.00  0.00    +0.083 C 
ATOM      2  C   UNL     1      33.130 -14.884 -21.117  0.00  0.00    -0.040 C 
ATOM      3  C   UNL     1      33.533 -13.029 -22.808  0.00  0.00    +0.153 C 
ATOM      4  C   UNL     1      33.302 -15.948 -22.214  0.00  0.00    +0.013 C 
ATOM      5  C   UNL     1      34.086 -14.097 -23.709  0.00  0.00    +0.006 C 
ATOM      6  C   UNL     1      33.969 -15.405 -23.440  0.00  0.00    +0.049 C 
ENDROOT
BRANCH   1   8
ATOM      7  O   UNL     1      30.500 -11.563 -21.537  0.00  0.00    -0.275 OA
ATOM      8  N   UNL     1      32.418 -12.565 -20.680  0.00  0.00    -0.305 N 
ATOM      9  C   UNL     1      31.381 -11.650 -20.687  0.00  0.00    +0.223 C 
ATOM     10  C   UNL     1      31.421 -10.739 -19.489  0.00  0.00    +0.095 C 
ATOM     11  H   UNL     1      33.066 -12.534 -19.940  0.00  0.00    +0.149 HD
ENDBRANCH   1   8
BRANCH   2  12
ATOM     12  N   UNL     1      32.231 -15.408 -20.086  0.00  0.00    +0.383 N 
ATOM     13  H   UNL     1      31.623 -16.119 -20.494  0.00  0.00    -0.089 HD
ATOM     14  H   UNL     1      31.663 -14.649 -19.712  0.00  0.00    -0.089 HD
ATOM     15  H   UNL     1      32.781 -15.823 -19.334  0.00  0.00    -0.089 HD
ENDBRANCH   2  12
BRANCH   6  17
ATOM     16  O   UNL     1      34.110 -16.549 -25.520  0.00  0.00    -0.245 OA
ATOM     17  C   UNL     1      34.545 -16.351 -24.399  0.00  0.00    +0.334 C 
BRANCH  17  18
ATOM     18  O   UNL     1      35.617 -16.957 -23.848  0.00  0.00    -0.477 OA
ATOM     19  H   UNL     1      36.168 -16.486 -23.254  0.00  0.00    +0.295 HD
ENDBRANCH  17  18
ENDBRANCH   6  17
BRANCH   3  20
ATOM     20  O   UNL     1      32.798 -12.091 -23.596  0.00  0.00    -0.353 OA
BRANCH  20  21
ATOM     21  C   UNL     1      33.567 -10.929 -23.863  0.00  0.00    +0.116 C 
BRANCH  21  22
ATOM     22  C   UNL     1      32.661  -9.701 -23.705  0.00  0.00    +0.030 C 
ATOM     23  C   UNL     1      33.153  -8.757 -22.616  0.00  0.00    +0.003 C 
ENDBRANCH  21  22
BRANCH  21  24
ATOM     24  C   UNL     1      34.144 -10.999 -25.282  0.00  0.00    +0.030 C 
ATOM     25  C   UNL     1      35.436 -10.208 -25.434  0.00  0.00    +0.003 C 
ENDBRANCH  21  24
ENDBRANCH  20  21
ENDBRANCH   3  20
TORSDOF 8
ENDMDL
MODEL 8
REMARK VINA RESULT:      -6.9      2.521      5.375
REMARK  Name = 449381
REMARK  8 active torsions:
REMARK  status: ('A' for Active; 'I' for Inactive)
REMARK    1  A    between atoms: C_1  and  N_8
REMARK    2  A    between atoms: C_2  and  N_12
REMARK    3  A    between atoms: C_3  and  O_20
REMARK    4  A    between atoms: C_6  and  C_17
REMARK    5  A    between atoms: C_17  and  O_18
REMARK    6  A    between atoms: O_20  and  C_21
REMARK    7  A    between atoms: C_21  and  C_22
REMARK    8  A    between atoms: C_21  and  C_24
REMARK                            x       y       z     vdW  Elec       q    Type
REMARK                         _______ _______ _______ _____ _____    ______ ____
ROOT
ATOM      1  C   UNL     1      35.951 -24.338 -14.214  0.00  0.00    +0.083 C 
ATOM      2  C   UNL     1      37.349 -23.696 -14.292  0.00  0.00    -0.040 C 
ATOM      3  C   UNL     1      34.862 -23.357 -14.695  0.00  0.00    +0.153 C 
ATOM      4  C   UNL     1      37.664 -23.244 -15.728  0.00  0.00    +0.013 C 
ATOM      5  C   UNL     1      35.262 -22.554 -15.902  0.00  0.00    +0.006 C 
ATOM      6  C   UNL     1      36.519 -22.518 -16.364  0.00  0.00    +0.049 C 
ENDROOT
BRANCH   1   8
ATOM      7  O   UNL     1      36.438 -22.892 -11.744  0.00  0.00    -0.275 OA
ATOM      8  N   UNL     1      35.654 -24.775 -12.865  0.00  0.00    -0.305 N 
ATOM      9  C   UNL     1      35.926 -24.007 -11.748  0.00  0.00    +0.223 C 
ATOM     10  C   UNL     1      35.496 -24.688 -10.475  0.00  0.00    +0.095 C 
ATOM     11  H   UNL     1      35.240 -25.659 -12.738  0.00  0.00    +0.149 HD
ENDBRANCH   1   8
BRANCH   2  12
ATOM     12  N   UNL     1      38.388 -24.630 -13.851  0.00  0.00    +0.383 N 
ATOM     13  H   UNL     1      37.992 -25.286 -13.176  0.00  0.00    -0.089 HD
ATOM     14  H   UNL     1      39.149 -24.112 -13.414  0.00  0.00    -0.089 HD
ATOM     15  H   UNL     1      38.746 -25.146 -14.655  0.00  0.00    -0.089 HD
ENDBRANCH   2  12
BRANCH   6  17
ATOM     16  O   UNL     1      36.506 -22.033 -18.692  0.00  0.00    -0.245 OA
ATOM     17  C   UNL     1      36.784 -21.703 -17.553  0.00  0.00    +0.334 C 
BRANCH  17  18
ATOM     18  O   UNL     1      37.373 -20.546 -17.186  0.00  0.00    -0.477 OA
ATOM     19  H   UNL     1      38.275 -20.394 -17.390  0.00  0.00    +0.295 HD
ENDBRANCH  17  18
ENDBRANCH   6  17
BRANCH   3  20
ATOM     20  O   UNL     1      33.694 -24.116 -15.009  0.00  0.00    -0.353 OA
BRANCH  20  21
ATOM     21  C   UNL     1      32.593 -23.722 -14.206  0.00  0.00    +0.116 C 
BRANCH  21  22
ATOM     22  C   UNL     1      31.910 -24.984 -13.664  0.00  0.00    +0.030 C 
ATOM     23  C   UNL     1      30.394 -24.841 -13.608  0.00  0.00    +0.003 C 
ENDBRANCH  21  22
BRANCH  21  24
ATOM     24  C   UNL     1      31.611 -22.889 -15.038  0.00  0.00    +0.030 C 
ATOM     25  C   UNL     1      31.719 -23.167 -16.531  0.00  0.00    +0.003 C 
ENDBRANCH  21  24
ENDBRANCH  20  21
ENDBRANCH   3  20
TORSDOF 8
ENDMDL
MODEL 9
REMARK VINA RESULT:      -6.8     11.425     13.647
REMARK  Name = 449381
REMARK  8 active torsions:
REMARK  status: ('A' for Active; 'I' for Inactive)
REMARK    1  A    between atoms: C_1  and  N_8
REMARK    2  A    between atoms: C_2  and  N_12
REMARK    3  A    between atoms: C_3  and  O_20
REMARK    4  A    between atoms: C_6  and  C_17
REMARK    5  A    between atoms: C_17  and  O_18
REMARK    6  A    between atoms: O_20  and  C_21
REMARK    7  A    between atoms: C_21  and  C_22
REMARK    8  A    between atoms: C_21  and  C_24
REMARK                            x       y       z     vdW  Elec       q    Type
REMARK                         _______ _______ _______ _____ _____    ______ ____
ROOT
ATOM      1  C   UNL     1      32.607 -12.584 -22.678  0.00  0.00    +0.083 C 
ATOM      2  C   UNL     1      32.011 -13.416 -21.526  0.00  0.00    -0.040 C 
ATOM      3  C   UNL     1      31.944 -11.194 -22.759  0.00  0.00    +0.153 C 
ATOM      4  C   UNL     1      32.180 -12.688 -20.182  0.00  0.00    +0.013 C 
ATOM      5  C   UNL     1      31.696 -10.562 -21.418  0.00  0.00    +0.006 C 
ATOM      6  C   UNL     1      31.814 -11.237 -20.266  0.00  0.00    +0.049 C 
ENDROOT
BRANCH   1   8
ATOM      7  O   UNL     1      34.438 -14.496 -23.870  0.00  0.00    -0.275 OA
ATOM      8  N   UNL     1      32.460 -13.271 -23.945  0.00  0.00    -0.305 N 
ATOM      9  C   UNL     1      33.394 -14.169 -24.427  0.00  0.00    +0.223 C 
ATOM     10  C   UNL     1      32.985 -14.756 -25.752  0.00  0.00    +0.095 C 
ATOM     11  H   UNL     1      31.659 -13.091 -24.488  0.00  0.00    +0.149 HD
ENDBRANCH   1   8
BRANCH   2  12
ATOM     12  N   UNL     1      32.650 -14.731 -21.435  0.00  0.00    +0.383 N 
ATOM     13  H   UNL     1      33.230 -14.771 -20.596  0.00  0.00    -0.089 HD
ATOM     14  H   UNL     1      33.232 -14.885 -22.258  0.00  0.00    -0.089 HD
ATOM     15  H   UNL     1      31.933 -15.455 -21.386  0.00  0.00    -0.089 HD
ENDBRANCH   2  12
BRANCH   6  17
ATOM     16  O   UNL     1      31.172 -11.029 -17.987  0.00  0.00    -0.245 OA
ATOM     17  C   UNL     1      31.552 -10.511 -19.021  0.00  0.00    +0.334 C 
BRANCH  17  18
ATOM     18  O   UNL     1      31.798  -9.196 -19.204  0.00  0.00    -0.477 OA
ATOM     19  H   UNL     1      32.261  -8.907 -19.966  0.00  0.00    +0.295 HD
ENDBRANCH  17  18
ENDBRANCH   6  17
BRANCH   3  20
ATOM     20  O   UNL     1      32.800 -10.342 -23.522  0.00  0.00    -0.353 OA
BRANCH  20  21
ATOM     21  C   UNL     1      32.704  -8.994 -23.088  0.00  0.00    +0.116 C 
BRANCH  21  22
ATOM     22  C   UNL     1      31.601  -8.301 -23.896  0.00  0.00    +0.030 C 
ATOM     23  C   UNL     1      31.001  -7.114 -23.153  0.00  0.00    +0.003 C 
ENDBRANCH  21  22
BRANCH  21  24
ATOM     24  C   UNL     1      34.049  -8.286 -23.288  0.00  0.00    +0.030 C 
ATOM     25  C   UNL     1      34.964  -9.016 -24.262  0.00  0.00    +0.003 C 
ENDBRANCH  21  24
ENDBRANCH  20  21
ENDBRANCH   3  20
TORSDOF 8
ENDMDL
