MODEL 1
REMARK VINA RESULT:      -8.7      0.000      0.000
REMARK  Name = 181428
REMARK  2 active torsions:
REMARK  status: ('A' for Active; 'I' for Inactive)
REMARK    1  A    between atoms: N_2  and  N_6
REMARK    2  A    between atoms: C_3  and  C_15
REMARK                            x       y       z     vdW  Elec       q    Type
REMARK                         _______ _______ _______ _____ _____    ______ ____
ROOT
ATOM      1  O   UNL     1      32.783 -23.503 -17.125  0.00  0.00    -0.269 OA
ATOM      2  N   UNL     1      34.970 -23.343 -16.370  0.00  0.00    -0.243 N 
ATOM      3  C   UNL     1      33.926 -23.067 -17.233  0.00  0.00    +0.259 C 
ATOM      4  H   UNL     1      35.863 -22.956 -16.521  0.00  0.00    +0.170 HD
ENDROOT
BRANCH   2   6
ATOM      5  O   UNL     1      38.929 -25.974 -13.204  0.00  0.00    -0.275 OA
ATOM      6  N   UNL     1      34.738 -24.173 -15.288  0.00  0.00    -0.202 NA
ATOM      7  N   UNL     1      37.246 -24.523 -13.880  0.00  0.00    -0.277 N 
ATOM      8  C   UNL     1      35.510 -25.416 -15.395  0.00  0.00    +0.113 C 
ATOM      9  C   UNL     1      35.004 -23.486 -14.020  0.00  0.00    +0.113 C 
ATOM     10  C   UNL     1      37.007 -25.234 -15.135  0.00  0.00    +0.112 C 
ATOM     11  C   UNL     1      36.494 -23.273 -13.730  0.00  0.00    +0.112 C 
ATOM     12  C   UNL     1      38.226 -24.981 -13.000  0.00  0.00    +0.226 C 
ATOM     13  C   UNL     1      38.408 -24.197 -11.725  0.00  0.00    +0.095 C 
ENDBRANCH   2   6
BRANCH   3  15
ATOM     14  F   UNL     1      35.183 -19.754 -21.547  0.00  0.00    -0.204 F 
ATOM     15  C   UNL     1      34.260 -22.185 -18.382  0.00  0.00    +0.055 C 
ATOM     16  C   UNL     1      35.586 -21.941 -18.669  0.00  0.00    +0.007 C 
ATOM     17  C   UNL     1      33.233 -21.639 -19.123  0.00  0.00    +0.007 C 
ATOM     18  C   UNL     1      35.901 -21.113 -19.746  0.00  0.00    +0.030 C 
ATOM     19  C   UNL     1      33.547 -20.811 -20.200  0.00  0.00    +0.030 C 
ATOM     20  C   UNL     1      34.881 -20.548 -20.512  0.00  0.00    +0.140 C 
ENDBRANCH   3  15
TORSDOF 2
ENDMDL
MODEL 2
REMARK VINA RESULT:      -8.7      0.020      1.109
REMARK  Name = 181428
REMARK  2 active torsions:
REMARK  status: ('A' for Active; 'I' for Inactive)
REMARK    1  A    between atoms: N_2  and  N_6
REMARK    2  A    between atoms: C_3  and  C_15
REMARK                            x       y       z     vdW  Elec       q    Type
REMARK                         _______ _______ _______ _____ _____    ______ ____
ROOT
ATOM      1  O   UNL     1      32.787 -23.515 -17.135  0.00  0.00    -0.269 OA
ATOM      2  N   UNL     1      34.975 -23.361 -16.379  0.00  0.00    -0.243 N 
ATOM      3  C   UNL     1      33.931 -23.079 -17.240  0.00  0.00    +0.259 C 
ATOM      4  H   UNL     1      35.868 -22.974 -16.528  0.00  0.00    +0.170 HD
ENDROOT
BRANCH   2   6
ATOM      5  O   UNL     1      38.933 -25.958 -13.184  0.00  0.00    -0.275 OA
ATOM      6  N   UNL     1      34.741 -24.198 -15.303  0.00  0.00    -0.202 NA
ATOM      7  N   UNL     1      37.240 -24.524 -13.871  0.00  0.00    -0.277 N 
ATOM      8  C   UNL     1      35.529 -25.431 -15.406  0.00  0.00    +0.113 C 
ATOM      9  C   UNL     1      34.988 -23.511 -14.030  0.00  0.00    +0.113 C 
ATOM     10  C   UNL     1      37.021 -25.233 -15.131  0.00  0.00    +0.112 C 
ATOM     11  C   UNL     1      36.472 -23.283 -13.725  0.00  0.00    +0.112 C 
ATOM     12  C   UNL     1      38.217 -24.973 -12.983  0.00  0.00    +0.226 C 
ATOM     13  C   UNL     1      38.378 -24.191 -11.704  0.00  0.00    +0.095 C 
ENDBRANCH   2   6
BRANCH   3  15
ATOM     14  F   UNL     1      35.185 -19.744 -21.539  0.00  0.00    -0.204 F 
ATOM     15  C   UNL     1      34.266 -22.191 -18.385  0.00  0.00    +0.055 C 
ATOM     16  C   UNL     1      33.238 -21.649 -19.127  0.00  0.00    +0.007 C 
ATOM     17  C   UNL     1      35.592 -21.938 -18.666  0.00  0.00    +0.007 C 
ATOM     18  C   UNL     1      33.551 -20.817 -20.202  0.00  0.00    +0.030 C 
ATOM     19  C   UNL     1      35.905 -21.106 -19.740  0.00  0.00    +0.030 C 
ATOM     20  C   UNL     1      34.884 -20.545 -20.509  0.00  0.00    +0.140 C 
ENDBRANCH   3  15
TORSDOF 2
ENDMDL
MODEL 3
REMARK VINA RESULT:      -8.7      6.259     10.345
REMARK  Name = 181428
REMARK  2 active torsions:
REMARK  status: ('A' for Active; 'I' for Inactive)
REMARK    1  A    between atoms: N_2  and  N_6
REMARK    2  A    between atoms: C_3  and  C_15
REMARK                            x       y       z     vdW  Elec       q    Type
REMARK                         _______ _______ _______ _____ _____    ______ ____
ROOT
ATOM      1  O   UNL     1      36.884 -19.049 -21.178  0.00  0.00    -0.269 OA
ATOM      2  N   UNL     1      34.969 -18.449 -22.340  0.00  0.00    -0.243 N 
ATOM      3  C   UNL     1      35.676 -19.145 -21.377  0.00  0.00    +0.259 C 
ATOM      4  H   UNL     1      33.998 -18.578 -22.442  0.00  0.00    +0.170 HD
ENDROOT
BRANCH   2   6
ATOM      5  O   UNL     1      32.820 -15.626 -26.816  0.00  0.00    -0.275 OA
ATOM      6  N   UNL     1      35.650 -17.566 -23.157  0.00  0.00    -0.202 NA
ATOM      7  N   UNL     1      33.693 -16.105 -24.717  0.00  0.00    -0.277 N 
ATOM      8  C   UNL     1      35.421 -17.866 -24.575  0.00  0.00    +0.113 C 
ATOM      9  C   UNL     1      35.307 -16.174 -22.844  0.00  0.00    +0.113 C 
ATOM     10  C   UNL     1      34.022 -17.487 -25.065  0.00  0.00    +0.112 C 
ATOM     11  C   UNL     1      33.907 -15.761 -23.308  0.00  0.00    +0.112 C 
ATOM     12  C   UNL     1      33.098 -15.275 -25.666  0.00  0.00    +0.226 C 
ATOM     13  C   UNL     1      32.794 -13.863 -25.232  0.00  0.00    +0.095 C 
ENDBRANCH   2   6
BRANCH   3  15
ATOM     14  F   UNL     1      32.681 -22.698 -18.283  0.00  0.00    -0.204 F 
ATOM     15  C   UNL     1      34.878 -20.090 -20.553  0.00  0.00    +0.055 C 
ATOM     16  C   UNL     1      35.537 -21.067 -19.837  0.00  0.00    +0.007 C 
ATOM     17  C   UNL     1      33.505 -19.961 -20.533  0.00  0.00    +0.007 C 
ATOM     18  C   UNL     1      34.789 -21.956 -19.064  0.00  0.00    +0.030 C 
ATOM     19  C   UNL     1      32.757 -20.849 -19.761  0.00  0.00    +0.030 C 
ATOM     20  C   UNL     1      33.399 -21.847 -19.026  0.00  0.00    +0.140 C 
ENDBRANCH   3  15
TORSDOF 2
ENDMDL
MODEL 4
REMARK VINA RESULT:      -8.6      4.452      7.317
REMARK  Name = 181428
REMARK  2 active torsions:
REMARK  status: ('A' for Active; 'I' for Inactive)
REMARK    1  A    between atoms: N_2  and  N_6
REMARK    2  A    between atoms: C_3  and  C_15
REMARK                            x       y       z     vdW  Elec       q    Type
REMARK                         _______ _______ _______ _____ _____    ______ ____
ROOT
ATOM      1  O   UNL     1      34.562 -23.685 -11.796  0.00  0.00    -0.269 OA
ATOM      2  N   UNL     1      33.435 -24.604 -13.604  0.00  0.00    -0.243 N 
ATOM      3  C   UNL     1      34.552 -24.351 -12.829  0.00  0.00    +0.259 C 
ATOM      4  H   UNL     1      33.504 -25.148 -14.422  0.00  0.00    +0.170 HD
ENDROOT
BRANCH   2   6
ATOM      5  O   UNL     1      29.458 -22.329 -17.013  0.00  0.00    -0.275 OA
ATOM      6  N   UNL     1      32.219 -24.079 -13.209  0.00  0.00    -0.202 NA
ATOM      7  N   UNL     1      30.572 -23.772 -15.573  0.00  0.00    -0.277 N 
ATOM      8  C   UNL     1      31.984 -22.763 -13.814  0.00  0.00    +0.113 C 
ATOM      9  C   UNL     1      31.118 -25.004 -13.499  0.00  0.00    +0.113 C 
ATOM     10  C   UNL     1      31.652 -22.824 -15.307  0.00  0.00    +0.112 C 
ATOM     11  C   UNL     1      30.765 -25.101 -14.987  0.00  0.00    +0.112 C 
ATOM     12  C   UNL     1      29.537 -23.417 -16.438  0.00  0.00    +0.226 C 
ATOM     13  C   UNL     1      28.457 -24.448 -16.657  0.00  0.00    +0.095 C 
ENDBRANCH   2   6
BRANCH   3  15
ATOM     14  F   UNL     1      39.338 -26.525 -14.711  0.00  0.00    -0.204 F 
ATOM     15  C   UNL     1      35.826 -24.931 -13.331  0.00  0.00    +0.055 C 
ATOM     16  C   UNL     1      36.854 -25.148 -12.438  0.00  0.00    +0.007 C 
ATOM     17  C   UNL     1      35.938 -25.231 -14.672  0.00  0.00    +0.007 C 
ATOM     18  C   UNL     1      38.050 -25.691 -12.907  0.00  0.00    +0.030 C 
ATOM     19  C   UNL     1      37.134 -25.772 -15.142  0.00  0.00    +0.030 C 
ATOM     20  C   UNL     1      38.190 -26.003 -14.260  0.00  0.00    +0.140 C 
ENDBRANCH   3  15
TORSDOF 2
ENDMDL
MODEL 5
REMARK VINA RESULT:      -8.6      6.512      9.055
REMARK  Name = 181428
REMARK  2 active torsions:
REMARK  status: ('A' for Active; 'I' for Inactive)
REMARK    1  A    between atoms: N_2  and  N_6
REMARK    2  A    between atoms: C_3  and  C_15
REMARK                            x       y       z     vdW  Elec       q    Type
REMARK                         _______ _______ _______ _____ _____    ______ ____
ROOT
ATOM      1  O   UNL     1      34.449 -16.383 -24.937  0.00  0.00    -0.269 OA
ATOM      2  N   UNL     1      34.620 -17.018 -22.713  0.00  0.00    -0.243 N 
ATOM      3  C   UNL     1      34.266 -16.165 -23.742  0.00  0.00    +0.259 C 
ATOM      4  H   UNL     1      34.442 -16.775 -21.775  0.00  0.00    +0.170 HD
ENDROOT
BRANCH   2   6
ATOM      5  O   UNL     1      36.529 -20.913 -18.998  0.00  0.00    -0.275 OA
ATOM      6  N   UNL     1      35.228 -18.219 -23.024  0.00  0.00    -0.202 NA
ATOM      7  N   UNL     1      35.261 -19.847 -20.627  0.00  0.00    -0.277 N 
ATOM      8  C   UNL     1      36.457 -18.413 -22.245  0.00  0.00    +0.113 C 
ATOM      9  C   UNL     1      34.305 -19.346 -22.853  0.00  0.00    +0.113 C 
ATOM     10  C   UNL     1      36.205 -18.741 -20.772  0.00  0.00    +0.112 C 
ATOM     11  C   UNL     1      34.018 -19.696 -21.389  0.00  0.00    +0.112 C 
ATOM     12  C   UNL     1      35.526 -20.868 -19.715  0.00  0.00    +0.226 C 
ATOM     13  C   UNL     1      34.506 -21.977 -19.627  0.00  0.00    +0.095 C 
ENDBRANCH   2   6
BRANCH   3  15
ATOM     14  F   UNL     1      31.901 -11.355 -22.179  0.00  0.00    -0.204 F 
ATOM     15  C   UNL     1      33.637 -14.883 -23.326  0.00  0.00    +0.055 C 
ATOM     16  C   UNL     1      32.901 -14.853 -22.161  0.00  0.00    +0.007 C 
ATOM     17  C   UNL     1      33.810 -13.769 -24.119  0.00  0.00    +0.007 C 
ATOM     18  C   UNL     1      32.309 -13.651 -21.770  0.00  0.00    +0.030 C 
ATOM     19  C   UNL     1      33.218 -12.568 -23.730  0.00  0.00    +0.030 C 
ATOM     20  C   UNL     1      32.468 -12.509 -22.555  0.00  0.00    +0.140 C 
ENDBRANCH   3  15
TORSDOF 2
ENDMDL
MODEL 6
REMARK VINA RESULT:      -8.4      6.286     10.043
REMARK  Name = 181428
REMARK  2 active torsions:
REMARK  status: ('A' for Active; 'I' for Inactive)
REMARK    1  A    between atoms: N_2  and  N_6
REMARK    2  A    between atoms: C_3  and  C_15
REMARK                            x       y       z     vdW  Elec       q    Type
REMARK                         _______ _______ _______ _____ _____    ______ ____
ROOT
ATOM      1  O   UNL     1      36.649 -18.517 -21.691  0.00  0.00    -0.269 OA
ATOM      2  N   UNL     1      34.845 -17.319 -20.859  0.00  0.00    -0.243 N 
ATOM      3  C   UNL     1      35.582 -18.467 -21.084  0.00  0.00    +0.259 C 
ATOM      4  H   UNL     1      33.996 -17.356 -20.363  0.00  0.00    +0.170 HD
ENDROOT
BRANCH   2   6
ATOM      5  O   UNL     1      31.920 -13.500 -23.938  0.00  0.00    -0.275 OA
ATOM      6  N   UNL     1      35.324 -16.116 -21.343  0.00  0.00    -0.202 NA
ATOM      7  N   UNL     1      33.051 -14.529 -22.189  0.00  0.00    -0.277 N 
ATOM      8  C   UNL     1      34.994 -15.944 -22.763  0.00  0.00    +0.113 C 
ATOM      9  C   UNL     1      34.840 -14.986 -20.542  0.00  0.00    +0.113 C 
ATOM     10  C   UNL     1      33.517 -15.639 -23.018  0.00  0.00    +0.112 C 
ATOM     11  C   UNL     1      33.359 -14.659 -20.762  0.00  0.00    +0.112 C 
ATOM     12  C   UNL     1      32.264 -13.526 -22.753  0.00  0.00    +0.226 C 
ATOM     13  C   UNL     1      31.828 -12.412 -21.834  0.00  0.00    +0.095 C 
ENDBRANCH   2   6
BRANCH   3  15
ATOM     14  F   UNL     1      33.366 -23.186 -19.087  0.00  0.00    -0.204 F 
ATOM     15  C   UNL     1      34.991 -19.723 -20.552  0.00  0.00    +0.055 C 
ATOM     16  C   UNL     1      35.835 -20.710 -20.088  0.00  0.00    +0.007 C 
ATOM     17  C   UNL     1      33.619 -19.861 -20.540  0.00  0.00    +0.007 C 
ATOM     18  C   UNL     1      35.282 -21.890 -19.590  0.00  0.00    +0.030 C 
ATOM     19  C   UNL     1      33.065 -21.040 -20.042  0.00  0.00    +0.030 C 
ATOM     20  C   UNL     1      33.897 -22.055 -19.567  0.00  0.00    +0.140 C 
ENDBRANCH   3  15
TORSDOF 2
ENDMDL
MODEL 7
REMARK VINA RESULT:      -8.3     10.349     13.082
REMARK  Name = 181428
REMARK  2 active torsions:
REMARK  status: ('A' for Active; 'I' for Inactive)
REMARK    1  A    between atoms: N_2  and  N_6
REMARK    2  A    between atoms: C_3  and  C_15
REMARK                            x       y       z     vdW  Elec       q    Type
REMARK                         _______ _______ _______ _____ _____    ______ ____
ROOT
ATOM      1  O   UNL     1      31.287 -11.199 -22.470  0.00  0.00    -0.269 OA
ATOM      2  N   UNL     1      33.081 -12.464 -23.220  0.00  0.00    -0.243 N 
ATOM      3  C   UNL     1      32.428 -11.283 -22.919  0.00  0.00    +0.259 C 
ATOM      4  H   UNL     1      33.997 -12.454 -23.578  0.00  0.00    +0.170 HD
ENDROOT
BRANCH   2   6
ATOM      5  O   UNL     1      35.384 -17.686 -23.441  0.00  0.00    -0.275 OA
ATOM      6  N   UNL     1      32.422 -13.661 -23.008  0.00  0.00    -0.202 NA
ATOM      7  N   UNL     1      34.423 -15.726 -22.646  0.00  0.00    -0.277 N 
ATOM      8  C   UNL     1      32.723 -14.631 -24.067  0.00  0.00    +0.113 C 
ATOM      9  C   UNL     1      32.724 -14.209 -21.681  0.00  0.00    +0.113 C 
ATOM     10  C   UNL     1      34.136 -15.212 -23.984  0.00  0.00    +0.112 C 
ATOM     11  C   UNL     1      34.136 -14.789 -21.556  0.00  0.00    +0.112 C 
ATOM     12  C   UNL     1      35.046 -16.965 -22.499  0.00  0.00    +0.226 C 
ATOM     13  C   UNL     1      35.303 -17.428 -21.086  0.00  0.00    +0.095 C 
ENDBRANCH   2   6
BRANCH   3  15
ATOM     14  F   UNL     1      35.304  -6.612 -23.956  0.00  0.00    -0.204 F 
ATOM     15  C   UNL     1      33.193 -10.039 -23.195  0.00  0.00    +0.055 C 
ATOM     16  C   UNL     1      34.229 -10.084 -24.103  0.00  0.00    +0.007 C 
ATOM     17  C   UNL     1      32.842  -8.881 -22.533  0.00  0.00    +0.007 C 
ATOM     18  C   UNL     1      34.948  -8.917 -24.362  0.00  0.00    +0.030 C 
ATOM     19  C   UNL     1      33.561  -7.715 -22.791  0.00  0.00    +0.030 C 
ATOM     20  C   UNL     1      34.614  -7.732 -23.706  0.00  0.00    +0.140 C 
ENDBRANCH   3  15
TORSDOF 2
ENDMDL
MODEL 8
REMARK VINA RESULT:      -8.2      3.041      4.160
REMARK  Name = 181428
REMARK  2 active torsions:
REMARK  status: ('A' for Active; 'I' for Inactive)
REMARK    1  A    between atoms: N_2  and  N_6
REMARK    2  A    between atoms: C_3  and  C_15
REMARK                            x       y       z     vdW  Elec       q    Type
REMARK                         _______ _______ _______ _____ _____    ______ ____
ROOT
ATOM      1  O   UNL     1      34.209 -23.498 -19.913  0.00  0.00    -0.269 OA
ATOM      2  N   UNL     1      34.564 -22.564 -17.819  0.00  0.00    -0.243 N 
ATOM      3  C   UNL     1      34.503 -22.542 -19.201  0.00  0.00    +0.259 C 
ATOM      4  H   UNL     1      34.809 -21.755 -17.314  0.00  0.00    +0.170 HD
ENDROOT
BRANCH   2   6
ATOM      5  O   UNL     1      32.160 -23.059 -12.663  0.00  0.00    -0.275 OA
ATOM      6  N   UNL     1      34.272 -23.744 -17.160  0.00  0.00    -0.202 NA
ATOM      7  N   UNL     1      32.492 -23.117 -14.961  0.00  0.00    -0.277 N 
ATOM      8  C   UNL     1      34.749 -23.711 -15.773  0.00  0.00    +0.113 C 
ATOM      9  C   UNL     1      32.840 -24.052 -17.225  0.00  0.00    +0.113 C 
ATOM     10  C   UNL     1      33.918 -22.809 -14.858  0.00  0.00    +0.112 C 
ATOM     11  C   UNL     1      31.972 -23.160 -16.331  0.00  0.00    +0.112 C 
ATOM     12  C   UNL     1      31.719 -23.215 -13.804  0.00  0.00    +0.226 C 
ATOM     13  C   UNL     1      30.259 -23.541 -13.994  0.00  0.00    +0.095 C 
ENDBRANCH   2   6
BRANCH   3  15
ATOM     14  F   UNL     1      35.805 -17.668 -21.594  0.00  0.00    -0.204 F 
ATOM     15  C   UNL     1      34.851 -21.244 -19.837  0.00  0.00    +0.055 C 
ATOM     16  C   UNL     1      33.833 -20.443 -20.312  0.00  0.00    +0.007 C 
ATOM     17  C   UNL     1      36.178 -20.884 -19.934  0.00  0.00    +0.007 C 
ATOM     18  C   UNL     1      34.158 -19.226 -20.911  0.00  0.00    +0.030 C 
ATOM     19  C   UNL     1      36.503 -19.667 -20.532  0.00  0.00    +0.030 C 
ATOM     20  C   UNL     1      35.493 -18.838 -21.021  0.00  0.00    +0.140 C 
ENDBRANCH   3  15
TORSDOF 2
ENDMDL
MODEL 9
REMARK VINA RESULT:      -8.0      1.131      1.175
REMARK  Name = 181428
REMARK  2 active torsions:
REMARK  status: ('A' for Active; 'I' for Inactive)
REMARK    1  A    between atoms: N_2  and  N_6
REMARK    2  A    between atoms: C_3  and  C_15
REMARK                            x       y       z     vdW  Elec       q    Type
REMARK                         _______ _______ _______ _____ _____    ______ ____
ROOT
ATOM      1  O   UNL     1      33.703 -24.249 -18.617  0.00  0.00    -0.269 OA
ATOM      2  N   UNL     1      34.535 -22.963 -16.874  0.00  0.00    -0.243 N 
ATOM      3  C   UNL     1      34.120 -23.181 -18.175  0.00  0.00    +0.259 C 
ATOM      4  H   UNL     1      34.858 -22.077 -16.592  0.00  0.00    +0.170 HD
ENDROOT
BRANCH   2   6
ATOM      5  O   UNL     1      38.490 -24.268 -12.967  0.00  0.00    -0.275 OA
ATOM      6  N   UNL     1      34.485 -24.013 -15.976  0.00  0.00    -0.202 NA
ATOM      7  N   UNL     1      36.515 -23.554 -13.959  0.00  0.00    -0.277 N 
ATOM      8  C   UNL     1      35.744 -24.768 -15.968  0.00  0.00    +0.113 C 
ATOM      9  C   UNL     1      34.133 -23.549 -14.630  0.00  0.00    +0.113 C 
ATOM     10  C   UNL     1      36.898 -24.031 -15.286  0.00  0.00    +0.112 C 
ATOM     11  C   UNL     1      35.262 -22.794 -13.919  0.00  0.00    +0.112 C 
ATOM     12  C   UNL     1      37.385 -23.726 -12.883  0.00  0.00    +0.226 C 
ATOM     13  C   UNL     1      36.915 -23.212 -11.545  0.00  0.00    +0.095 C 
ENDBRANCH   2   6
BRANCH   3  15
ATOM     14  F   UNL     1      34.512 -18.785 -21.594  0.00  0.00    -0.204 F 
ATOM     15  C   UNL     1      34.224 -22.010 -19.086  0.00  0.00    +0.055 C 
ATOM     16  C   UNL     1      35.467 -21.639 -19.550  0.00  0.00    +0.007 C 
ATOM     17  C   UNL     1      33.073 -21.335 -19.435  0.00  0.00    +0.007 C 
ATOM     18  C   UNL     1      35.566 -20.539 -20.404  0.00  0.00    +0.030 C 
ATOM     19  C   UNL     1      33.171 -20.236 -20.288  0.00  0.00    +0.030 C 
ATOM     20  C   UNL     1      34.418 -19.838 -20.773  0.00  0.00    +0.140 C 
ENDBRANCH   3  15
TORSDOF 2
ENDMDL
