MODEL 1
REMARK VINA RESULT:      -8.6      0.000      0.000
REMARK  Name = 5289534
REMARK  7 active torsions:
REMARK  status: ('A' for Active; 'I' for Inactive)
REMARK    1  A    between atoms: C_3  and  O_16
REMARK    2  A    between atoms: C_5  and  C_23
REMARK    3  A    between atoms: C_6  and  N_9
REMARK    4  A    between atoms: O_16  and  P_17
REMARK    5  A    between atoms: P_17  and  O_19
REMARK    6  A    between atoms: P_17  and  O_21
REMARK    7  A    between atoms: C_23  and  O_24
REMARK                            x       y       z     vdW  Elec       q    Type
REMARK                         _______ _______ _______ _____ _____    ______ ____
ROOT
ATOM      1  F   UNL     1      35.996 -22.003 -15.196  0.00  0.00    -0.230 F 
ATOM      2  O   UNL     1      35.000 -24.652 -16.189  0.00  0.00    -0.332 OA
ATOM      3  C   UNL     1      35.690 -24.014 -14.034  0.00  0.00    +0.192 C 
ATOM      4  C   UNL     1      35.032 -22.819 -14.682  0.00  0.00    +0.238 C 
ATOM      5  C   UNL     1      36.075 -24.834 -15.251  0.00  0.00    +0.177 C 
ATOM      6  C   UNL     1      34.288 -23.450 -15.845  0.00  0.00    +0.235 C 
ENDROOT
BRANCH   6   9
ATOM      7  O   UNL     1      32.024 -22.774 -17.394  0.00  0.00    -0.252 OA
ATOM      8  O   UNL     1      29.158 -24.858 -14.447  0.00  0.00    -0.270 OA
ATOM      9  N   UNL     1      32.936 -23.804 -15.505  0.00  0.00    -0.216 N 
ATOM     10  N   UNL     1      30.598 -23.811 -15.924  0.00  0.00    -0.236 N 
ATOM     11  C   UNL     1      31.872 -23.415 -16.351  0.00  0.00    +0.315 C 
ATOM     12  C   UNL     1      32.681 -24.528 -14.348  0.00  0.00    +0.076 C 
ATOM     13  C   UNL     1      31.460 -24.899 -13.954  0.00  0.00    +0.074 C 
ATOM     14  C   UNL     1      30.293 -24.532 -14.780  0.00  0.00    +0.254 C 
ATOM     15  H   UNL     1      29.840 -23.551 -16.496  0.00  0.00    +0.159 HD
ENDBRANCH   6   9
BRANCH   3  16
ATOM     16  O   UNL     1      36.811 -23.661 -13.254  0.00  0.00    -0.270 OA
BRANCH  16  17
ATOM     17  P   UNL     1      36.690 -23.737 -11.638  0.00  0.00    +0.473 P 
ATOM     18  O   UNL     1      35.312 -24.036 -11.122  0.00  0.00    -0.227 OA
BRANCH  17  19
ATOM     19  O   UNL     1      37.327 -22.337 -11.140  0.00  0.00    -0.303 OA
ATOM     20  H   UNL     1      36.641 -21.806 -10.708  0.00  0.00    +0.222 HD
ENDBRANCH  17  19
BRANCH  17  21
ATOM     21  O   UNL     1      37.819 -24.824 -11.236  0.00  0.00    -0.303 OA
ATOM     22  H   UNL     1      37.738 -25.601 -11.811  0.00  0.00    +0.222 HD
ENDBRANCH  17  21
ENDBRANCH  16  17
ENDBRANCH   3  16
BRANCH   5  23
ATOM     23  C   UNL     1      36.253 -26.311 -14.953  0.00  0.00    +0.169 C 
BRANCH  23  24
ATOM     24  O   UNL     1      36.768 -26.954 -16.108  0.00  0.00    -0.379 OA
ATOM     25  H   UNL     1      36.803 -26.321 -16.843  0.00  0.00    +0.211 HD
ENDBRANCH  23  24
ENDBRANCH   5  23
TORSDOF 7
ENDMDL
MODEL 2
REMARK VINA RESULT:      -8.5      3.179      4.960
REMARK  Name = 5289534
REMARK  7 active torsions:
REMARK  status: ('A' for Active; 'I' for Inactive)
REMARK    1  A    between atoms: C_3  and  O_16
REMARK    2  A    between atoms: C_5  and  C_23
REMARK    3  A    between atoms: C_6  and  N_9
REMARK    4  A    between atoms: O_16  and  P_17
REMARK    5  A    between atoms: P_17  and  O_19
REMARK    6  A    between atoms: P_17  and  O_21
REMARK    7  A    between atoms: C_23  and  O_24
REMARK                            x       y       z     vdW  Elec       q    Type
REMARK                         _______ _______ _______ _____ _____    ______ ____
ROOT
ATOM      1  F   UNL     1      36.376 -26.508 -14.412  0.00  0.00    -0.230 F 
ATOM      2  O   UNL     1      35.976 -23.611 -13.746  0.00  0.00    -0.332 OA
ATOM      3  C   UNL     1      37.954 -24.787 -14.225  0.00  0.00    +0.192 C 
ATOM      4  C   UNL     1      36.843 -25.396 -15.047  0.00  0.00    +0.238 C 
ATOM      5  C   UNL     1      37.165 -24.116 -13.115  0.00  0.00    +0.177 C 
ATOM      6  C   UNL     1      35.765 -24.331 -14.974  0.00  0.00    +0.235 C 
ENDROOT
BRANCH   6   9
ATOM      7  O   UNL     1      33.634 -23.771 -16.743  0.00  0.00    -0.252 OA
ATOM      8  O   UNL     1      36.162 -20.738 -19.120  0.00  0.00    -0.270 OA
ATOM      9  N   UNL     1      35.839 -23.398 -16.066  0.00  0.00    -0.216 N 
ATOM     10  N   UNL     1      34.895 -22.262 -17.927  0.00  0.00    -0.236 N 
ATOM     11  C   UNL     1      34.711 -23.191 -16.894  0.00  0.00    +0.315 C 
ATOM     12  C   UNL     1      37.017 -22.701 -16.301  0.00  0.00    +0.076 C 
ATOM     13  C   UNL     1      37.177 -21.818 -17.290  0.00  0.00    +0.074 C 
ATOM     14  C   UNL     1      36.049 -21.544 -18.202  0.00  0.00    +0.254 C 
ATOM     15  H   UNL     1      34.124 -22.102 -18.518  0.00  0.00    +0.159 HD
ENDBRANCH   6   9
BRANCH   3  16
ATOM     16  O   UNL     1      38.855 -25.752 -13.729  0.00  0.00    -0.270 OA
BRANCH  16  17
ATOM     17  P   UNL     1      40.352 -25.812 -14.352  0.00  0.00    +0.473 P 
ATOM     18  O   UNL     1      41.205 -26.934 -13.835  0.00  0.00    -0.227 OA
BRANCH  17  19
ATOM     19  O   UNL     1      40.933 -24.325 -14.094  0.00  0.00    -0.303 OA
ATOM     20  H   UNL     1      41.649 -24.367 -13.441  0.00  0.00    +0.222 HD
ENDBRANCH  17  19
BRANCH  17  21
ATOM     21  O   UNL     1      40.085 -25.836 -15.947  0.00  0.00    -0.303 OA
ATOM     22  H   UNL     1      40.248 -24.954 -16.315  0.00  0.00    +0.222 HD
ENDBRANCH  17  21
ENDBRANCH  16  17
ENDBRANCH   3  16
BRANCH   5  23
ATOM     23  C   UNL     1      37.913 -22.979 -12.445  0.00  0.00    +0.169 C 
BRANCH  23  24
ATOM     24  O   UNL     1      39.019 -23.512 -11.734  0.00  0.00    -0.379 OA
ATOM     25  H   UNL     1      39.361 -22.845 -11.119  0.00  0.00    +0.211 HD
ENDBRANCH  23  24
ENDBRANCH   5  23
TORSDOF 7
ENDMDL
MODEL 3
REMARK VINA RESULT:      -8.3      2.619      4.188
REMARK  Name = 5289534
REMARK  7 active torsions:
REMARK  status: ('A' for Active; 'I' for Inactive)
REMARK    1  A    between atoms: C_3  and  O_16
REMARK    2  A    between atoms: C_5  and  C_23
REMARK    3  A    between atoms: C_6  and  N_9
REMARK    4  A    between atoms: O_16  and  P_17
REMARK    5  A    between atoms: P_17  and  O_19
REMARK    6  A    between atoms: P_17  and  O_21
REMARK    7  A    between atoms: C_23  and  O_24
REMARK                            x       y       z     vdW  Elec       q    Type
REMARK                         _______ _______ _______ _____ _____    ______ ____
ROOT
ATOM      1  F   UNL     1      37.068 -26.741 -13.015  0.00  0.00    -0.230 F 
ATOM      2  O   UNL     1      35.502 -24.332 -12.153  0.00  0.00    -0.332 OA
ATOM      3  C   UNL     1      37.518 -24.467 -13.355  0.00  0.00    +0.192 C 
ATOM      4  C   UNL     1      36.670 -25.656 -13.739  0.00  0.00    +0.238 C 
ATOM      5  C   UNL     1      36.914 -24.096 -12.013  0.00  0.00    +0.177 C 
ATOM      6  C   UNL     1      35.295 -25.246 -13.245  0.00  0.00    +0.235 C 
ENDROOT
BRANCH   6   9
ATOM      7  O   UNL     1      32.497 -24.867 -13.132  0.00  0.00    -0.252 OA
ATOM      8  O   UNL     1      32.447 -22.665 -17.181  0.00  0.00    -0.270 OA
ATOM      9  N   UNL     1      34.524 -24.576 -14.257  0.00  0.00    -0.216 N 
ATOM     10  N   UNL     1      32.474 -23.772 -15.149  0.00  0.00    -0.236 N 
ATOM     11  C   UNL     1      33.125 -24.440 -14.103  0.00  0.00    +0.315 C 
ATOM     12  C   UNL     1      35.157 -24.063 -15.382  0.00  0.00    +0.076 C 
ATOM     13  C   UNL     1      34.523 -23.428 -16.371  0.00  0.00    +0.074 C 
ATOM     14  C   UNL     1      33.060 -23.245 -16.289  0.00  0.00    +0.254 C 
ATOM     15  H   UNL     1      31.499 -23.666 -15.065  0.00  0.00    +0.159 HD
ENDBRANCH   6   9
BRANCH   3  16
ATOM     16  O   UNL     1      38.888 -24.787 -13.251  0.00  0.00    -0.270 OA
BRANCH  16  17
ATOM     17  P   UNL     1      39.697 -25.196 -14.597  0.00  0.00    +0.473 P 
ATOM     18  O   UNL     1      39.667 -26.659 -14.931  0.00  0.00    -0.227 OA
BRANCH  17  19
ATOM     19  O   UNL     1      41.169 -24.569 -14.364  0.00  0.00    -0.303 OA
ATOM     20  H   UNL     1      41.829 -25.118 -14.816  0.00  0.00    +0.222 HD
ENDBRANCH  17  19
BRANCH  17  21
ATOM     21  O   UNL     1      39.053 -24.226 -15.720  0.00  0.00    -0.303 OA
ATOM     22  H   UNL     1      39.665 -23.497 -15.907  0.00  0.00    +0.222 HD
ENDBRANCH  17  21
ENDBRANCH  16  17
ENDBRANCH   3  16
BRANCH   5  23
ATOM     23  C   UNL     1      37.157 -22.650 -11.621  0.00  0.00    +0.169 C 
BRANCH  23  24
ATOM     24  O   UNL     1      38.530 -22.348 -11.807  0.00  0.00    -0.379 OA
ATOM     25  H   UNL     1      39.071 -23.087 -11.487  0.00  0.00    +0.211 HD
ENDBRANCH  23  24
ENDBRANCH   5  23
TORSDOF 7
ENDMDL
MODEL 4
REMARK VINA RESULT:      -7.9      2.527      3.117
REMARK  Name = 5289534
REMARK  7 active torsions:
REMARK  status: ('A' for Active; 'I' for Inactive)
REMARK    1  A    between atoms: C_3  and  O_16
REMARK    2  A    between atoms: C_5  and  C_23
REMARK    3  A    between atoms: C_6  and  N_9
REMARK    4  A    between atoms: O_16  and  P_17
REMARK    5  A    between atoms: P_17  and  O_19
REMARK    6  A    between atoms: P_17  and  O_21
REMARK    7  A    between atoms: C_23  and  O_24
REMARK                            x       y       z     vdW  Elec       q    Type
REMARK                         _______ _______ _______ _____ _____    ______ ____
ROOT
ATOM      1  F   UNL     1      37.864 -22.722 -13.259  0.00  0.00    -0.230 F 
ATOM      2  O   UNL     1      37.618 -24.449 -15.699  0.00  0.00    -0.332 OA
ATOM      3  C   UNL     1      36.558 -24.635 -13.609  0.00  0.00    +0.192 C 
ATOM      4  C   UNL     1      36.747 -23.166 -13.903  0.00  0.00    +0.238 C 
ATOM      5  C   UNL     1      37.614 -25.253 -14.507  0.00  0.00    +0.177 C 
ATOM      6  C   UNL     1      37.038 -23.168 -15.392  0.00  0.00    +0.235 C 
ENDROOT
BRANCH   6   9
ATOM      7  O   UNL     1      36.954 -21.856 -17.893  0.00  0.00    -0.252 OA
ATOM      8  O   UNL     1      32.429 -22.605 -18.340  0.00  0.00    -0.270 OA
ATOM      9  N   UNL     1      35.850 -23.006 -16.185  0.00  0.00    -0.216 N 
ATOM     10  N   UNL     1      34.700 -22.229 -18.113  0.00  0.00    -0.236 N 
ATOM     11  C   UNL     1      35.917 -22.330 -17.425  0.00  0.00    +0.315 C 
ATOM     12  C   UNL     1      34.640 -23.514 -15.729  0.00  0.00    +0.076 C 
ATOM     13  C   UNL     1      33.488 -23.410 -16.397  0.00  0.00    +0.074 C 
ATOM     14  C   UNL     1      33.470 -22.718 -17.701  0.00  0.00    +0.254 C 
ATOM     15  H   UNL     1      34.721 -21.761 -18.979  0.00  0.00    +0.159 HD
ENDBRANCH   6   9
BRANCH   3  16
ATOM     16  O   UNL     1      36.765 -24.949 -12.249  0.00  0.00    -0.270 OA
BRANCH  16  17
ATOM     17  P   UNL     1      35.794 -24.276 -11.138  0.00  0.00    +0.473 P 
ATOM     18  O   UNL     1      35.235 -25.233 -10.126  0.00  0.00    -0.227 OA
BRANCH  17  19
ATOM     19  O   UNL     1      34.696 -23.481 -12.020  0.00  0.00    -0.303 OA
ATOM     20  H   UNL     1      35.145 -22.843 -12.596  0.00  0.00    +0.222 HD
ENDBRANCH  17  19
BRANCH  17  21
ATOM     21  O   UNL     1      36.708 -23.089 -10.524  0.00  0.00    -0.303 OA
ATOM     22  H   UNL     1      37.431 -22.889 -11.137  0.00  0.00    +0.222 HD
ENDBRANCH  17  21
ENDBRANCH  16  17
ENDBRANCH   3  16
BRANCH   5  23
ATOM     23  C   UNL     1      37.331 -26.700 -14.865  0.00  0.00    +0.169 C 
BRANCH  23  24
ATOM     24  O   UNL     1      35.932 -26.870 -15.023  0.00  0.00    -0.379 OA
ATOM     25  H   UNL     1      35.717 -27.816 -15.014  0.00  0.00    +0.211 HD
ENDBRANCH  23  24
ENDBRANCH   5  23
TORSDOF 7
ENDMDL
MODEL 5
REMARK VINA RESULT:      -7.8      8.532     11.004
REMARK  Name = 5289534
REMARK  7 active torsions:
REMARK  status: ('A' for Active; 'I' for Inactive)
REMARK    1  A    between atoms: C_3  and  O_16
REMARK    2  A    between atoms: C_5  and  C_23
REMARK    3  A    between atoms: C_6  and  N_9
REMARK    4  A    between atoms: O_16  and  P_17
REMARK    5  A    between atoms: P_17  and  O_19
REMARK    6  A    between atoms: P_17  and  O_21
REMARK    7  A    between atoms: C_23  and  O_24
REMARK                            x       y       z     vdW  Elec       q    Type
REMARK                         _______ _______ _______ _____ _____    ______ ____
ROOT
ATOM      1  F   UNL     1      36.516 -17.159 -23.233  0.00  0.00    -0.230 F 
ATOM      2  O   UNL     1      35.231 -16.886 -20.536  0.00  0.00    -0.332 OA
ATOM      3  C   UNL     1      34.263 -16.836 -22.678  0.00  0.00    +0.192 C 
ATOM      4  C   UNL     1      35.427 -17.797 -22.719  0.00  0.00    +0.238 C 
ATOM      5  C   UNL     1      34.629 -15.982 -21.479  0.00  0.00    +0.177 C 
ATOM      6  C   UNL     1      35.689 -18.052 -21.246  0.00  0.00    +0.235 C 
ENDROOT
BRANCH   6   9
ATOM      7  O   UNL     1      36.896 -20.244 -19.935  0.00  0.00    -0.252 OA
ATOM      8  O   UNL     1      32.849 -22.380 -19.386  0.00  0.00    -0.270 OA
ATOM      9  N   UNL     1      34.973 -19.196 -20.749  0.00  0.00    -0.216 N 
ATOM     10  N   UNL     1      34.880 -21.307 -19.664  0.00  0.00    -0.236 N 
ATOM     11  C   UNL     1      35.676 -20.242 -20.107  0.00  0.00    +0.315 C 
ATOM     12  C   UNL     1      33.595 -19.268 -20.901  0.00  0.00    +0.076 C 
ATOM     13  C   UNL     1      32.849 -20.290 -20.472  0.00  0.00    +0.074 C 
ATOM     14  C   UNL     1      33.504 -21.425 -19.792  0.00  0.00    +0.254 C 
ATOM     15  H   UNL     1      35.346 -22.048 -19.214  0.00  0.00    +0.159 HD
ENDBRANCH   6   9
BRANCH   3  16
ATOM     16  O   UNL     1      34.146 -16.073 -23.859  0.00  0.00    -0.270 OA
BRANCH  16  17
ATOM     17  P   UNL     1      34.087 -16.847 -25.284  0.00  0.00    +0.473 P 
ATOM     18  O   UNL     1      33.734 -18.304 -25.196  0.00  0.00    -0.227 OA
BRANCH  17  19
ATOM     19  O   UNL     1      35.523 -16.523 -25.954  0.00  0.00    -0.303 OA
ATOM     20  H   UNL     1      35.914 -17.343 -26.292  0.00  0.00    +0.222 HD
ENDBRANCH  17  19
BRANCH  17  21
ATOM     21  O   UNL     1      33.060 -15.946 -26.149  0.00  0.00    -0.303 OA
ATOM     22  H   UNL     1      32.580 -15.346 -25.557  0.00  0.00    +0.222 HD
ENDBRANCH  17  21
ENDBRANCH  16  17
ENDBRANCH   3  16
BRANCH   5  23
ATOM     23  C   UNL     1      33.437 -15.294 -20.840  0.00  0.00    +0.169 C 
BRANCH  23  24
ATOM     24  O   UNL     1      32.381 -15.232 -21.785  0.00  0.00    -0.379 OA
ATOM     25  H   UNL     1      31.529 -15.254 -21.322  0.00  0.00    +0.211 HD
ENDBRANCH  23  24
ENDBRANCH   5  23
TORSDOF 7
ENDMDL
MODEL 6
REMARK VINA RESULT:      -7.2      8.182     10.463
REMARK  Name = 5289534
REMARK  7 active torsions:
REMARK  status: ('A' for Active; 'I' for Inactive)
REMARK    1  A    between atoms: C_3  and  O_16
REMARK    2  A    between atoms: C_5  and  C_23
REMARK    3  A    between atoms: C_6  and  N_9
REMARK    4  A    between atoms: O_16  and  P_17
REMARK    5  A    between atoms: P_17  and  O_19
REMARK    6  A    between atoms: P_17  and  O_21
REMARK    7  A    between atoms: C_23  and  O_24
REMARK                            x       y       z     vdW  Elec       q    Type
REMARK                         _______ _______ _______ _____ _____    ______ ____
ROOT
ATOM      1  F   UNL     1      36.312 -18.201 -23.497  0.00  0.00    -0.230 F 
ATOM      2  O   UNL     1      35.830 -17.693 -20.580  0.00  0.00    -0.332 OA
ATOM      3  C   UNL     1      34.412 -17.348 -22.423  0.00  0.00    +0.192 C 
ATOM      4  C   UNL     1      35.258 -18.565 -22.712  0.00  0.00    +0.238 C 
ATOM      5  C   UNL     1      35.258 -16.642 -21.379  0.00  0.00    +0.177 C 
ATOM      6  C   UNL     1      35.800 -18.916 -21.338  0.00  0.00    +0.235 C 
ENDROOT
BRANCH   6   9
ATOM      7  O   UNL     1      36.777 -21.105 -19.843  0.00  0.00    -0.252 OA
ATOM      8  O   UNL     1      32.521 -22.471 -18.718  0.00  0.00    -0.270 OA
ATOM      9  N   UNL     1      34.968 -19.860 -20.643  0.00  0.00    -0.216 N 
ATOM     10  N   UNL     1      34.656 -21.785 -19.285  0.00  0.00    -0.236 N 
ATOM     11  C   UNL     1      35.560 -20.924 -19.923  0.00  0.00    +0.315 C 
ATOM     12  C   UNL     1      33.586 -19.724 -20.681  0.00  0.00    +0.076 C 
ATOM     13  C   UNL     1      32.738 -20.553 -20.068  0.00  0.00    +0.074 C 
ATOM     14  C   UNL     1      33.273 -21.691 -19.294  0.00  0.00    +0.254 C 
ATOM     15  H   UNL     1      35.044 -22.533 -18.777  0.00  0.00    +0.159 HD
ENDBRANCH   6   9
BRANCH   3  16
ATOM     16  O   UNL     1      34.202 -16.548 -23.566  0.00  0.00    -0.270 OA
BRANCH  16  17
ATOM     17  P   UNL     1      33.489 -15.102 -23.385  0.00  0.00    +0.473 P 
ATOM     18  O   UNL     1      32.435 -15.049 -22.318  0.00  0.00    -0.227 OA
BRANCH  17  19
ATOM     19  O   UNL     1      32.983 -14.736 -24.876  0.00  0.00    -0.303 OA
ATOM     20  H   UNL     1      33.748 -14.664 -25.468  0.00  0.00    +0.222 HD
ENDBRANCH  17  19
BRANCH  17  21
ATOM     21  O   UNL     1      34.740 -14.101 -23.160  0.00  0.00    -0.303 OA
ATOM     22  H   UNL     1      35.305 -14.446 -22.452  0.00  0.00    +0.222 HD
ENDBRANCH  17  21
ENDBRANCH  16  17
ENDBRANCH   3  16
BRANCH   5  23
ATOM     23  C   UNL     1      34.464 -15.700 -20.494  0.00  0.00    +0.169 C 
BRANCH  23  24
ATOM     24  O   UNL     1      35.230 -14.528 -20.268  0.00  0.00    -0.379 OA
ATOM     25  H   UNL     1      35.673 -14.591 -19.407  0.00  0.00    +0.211 HD
ENDBRANCH  23  24
ENDBRANCH   5  23
TORSDOF 7
ENDMDL
MODEL 7
REMARK VINA RESULT:      -7.2      6.834      9.159
REMARK  Name = 5289534
REMARK  7 active torsions:
REMARK  status: ('A' for Active; 'I' for Inactive)
REMARK    1  A    between atoms: C_3  and  O_16
REMARK    2  A    between atoms: C_5  and  C_23
REMARK    3  A    between atoms: C_6  and  N_9
REMARK    4  A    between atoms: O_16  and  P_17
REMARK    5  A    between atoms: P_17  and  O_19
REMARK    6  A    between atoms: P_17  and  O_21
REMARK    7  A    between atoms: C_23  and  O_24
REMARK                            x       y       z     vdW  Elec       q    Type
REMARK                         _______ _______ _______ _____ _____    ______ ____
ROOT
ATOM      1  F   UNL     1      31.985 -19.539 -21.425  0.00  0.00    -0.230 F 
ATOM      2  O   UNL     1      34.829 -20.311 -21.988  0.00  0.00    -0.332 OA
ATOM      3  C   UNL     1      33.966 -18.366 -20.989  0.00  0.00    +0.192 C 
ATOM      4  C   UNL     1      33.072 -19.520 -20.602  0.00  0.00    +0.238 C 
ATOM      5  C   UNL     1      34.624 -18.911 -22.244  0.00  0.00    +0.177 C 
ATOM      6  C   UNL     1      33.932 -20.724 -20.940  0.00  0.00    +0.235 C 
ENDROOT
BRANCH   6   9
ATOM      7  O   UNL     1      32.952 -22.351 -18.849  0.00  0.00    -0.252 OA
ATOM      8  O   UNL     1      37.031 -22.372 -16.705  0.00  0.00    -0.270 OA
ATOM      9  N   UNL     1      34.718 -21.170 -19.821  0.00  0.00    -0.216 N 
ATOM     10  N   UNL     1      34.984 -22.359 -17.782  0.00  0.00    -0.236 N 
ATOM     11  C   UNL     1      34.128 -21.983 -18.826  0.00  0.00    +0.315 C 
ATOM     12  C   UNL     1      36.053 -20.801 -19.723  0.00  0.00    +0.076 C 
ATOM     13  C   UNL     1      36.857 -21.168 -18.721  0.00  0.00    +0.074 C 
ATOM     14  C   UNL     1      36.320 -22.017 -17.639  0.00  0.00    +0.254 C 
ATOM     15  H   UNL     1      34.596 -22.925 -17.076  0.00  0.00    +0.159 HD
ENDBRANCH   6   9
BRANCH   3  16
ATOM     16  O   UNL     1      33.245 -17.179 -21.239  0.00  0.00    -0.270 OA
BRANCH  16  17
ATOM     17  P   UNL     1      33.998 -15.755 -21.047  0.00  0.00    +0.473 P 
ATOM     18  O   UNL     1      34.525 -15.145 -22.312  0.00  0.00    -0.227 OA
BRANCH  17  19
ATOM     19  O   UNL     1      35.108 -16.060 -19.911  0.00  0.00    -0.303 OA
ATOM     20  H   UNL     1      35.978 -16.154 -20.327  0.00  0.00    +0.222 HD
ENDBRANCH  17  19
BRANCH  17  21
ATOM     21  O   UNL     1      32.899 -14.862 -20.263  0.00  0.00    -0.303 OA
ATOM     22  H   UNL     1      32.519 -15.382 -19.538  0.00  0.00    +0.222 HD
ENDBRANCH  17  21
ENDBRANCH  16  17
ENDBRANCH   3  16
BRANCH   5  23
ATOM     23  C   UNL     1      35.950 -18.249 -22.567  0.00  0.00    +0.169 C 
BRANCH  23  24
ATOM     24  O   UNL     1      35.794 -17.453 -23.730  0.00  0.00    -0.379 OA
ATOM     25  H   UNL     1      35.151 -17.870 -24.325  0.00  0.00    +0.211 HD
ENDBRANCH  23  24
ENDBRANCH   5  23
TORSDOF 7
ENDMDL
MODEL 8
REMARK VINA RESULT:      -7.1      8.861     10.805
REMARK  Name = 5289534
REMARK  7 active torsions:
REMARK  status: ('A' for Active; 'I' for Inactive)
REMARK    1  A    between atoms: C_3  and  O_16
REMARK    2  A    between atoms: C_5  and  C_23
REMARK    3  A    between atoms: C_6  and  N_9
REMARK    4  A    between atoms: O_16  and  P_17
REMARK    5  A    between atoms: P_17  and  O_19
REMARK    6  A    between atoms: P_17  and  O_21
REMARK    7  A    between atoms: C_23  and  O_24
REMARK                            x       y       z     vdW  Elec       q    Type
REMARK                         _______ _______ _______ _____ _____    ______ ____
ROOT
ATOM      1  F   UNL     1      36.323 -18.710 -20.892  0.00  0.00    -0.230 F 
ATOM      2  O   UNL     1      35.550 -17.520 -23.535  0.00  0.00    -0.332 OA
ATOM      3  C   UNL     1      34.359 -18.989 -22.138  0.00  0.00    +0.192 C 
ATOM      4  C   UNL     1      35.175 -18.073 -21.257  0.00  0.00    +0.238 C 
ATOM      5  C   UNL     1      35.117 -18.889 -23.449  0.00  0.00    +0.177 C 
ATOM      6  C   UNL     1      35.547 -16.953 -22.212  0.00  0.00    +0.235 C 
ENDROOT
BRANCH   6   9
ATOM      7  O   UNL     1      34.894 -15.462 -19.902  0.00  0.00    -0.252 OA
ATOM      8  O   UNL     1      31.912 -12.825 -22.224  0.00  0.00    -0.270 OA
ATOM      9  N   UNL     1      34.602 -15.870 -22.184  0.00  0.00    -0.216 N 
ATOM     10  N   UNL     1      33.408 -14.150 -21.060  0.00  0.00    -0.236 N 
ATOM     11  C   UNL     1      34.347 -15.188 -20.972  0.00  0.00    +0.315 C 
ATOM     12  C   UNL     1      33.944 -15.496 -23.349  0.00  0.00    +0.076 C 
ATOM     13  C   UNL     1      33.052 -14.505 -23.417  0.00  0.00    +0.074 C 
ATOM     14  C   UNL     1      32.727 -13.742 -22.196  0.00  0.00    +0.254 C 
ATOM     15  H   UNL     1      33.213 -13.661 -20.228  0.00  0.00    +0.159 HD
ENDBRANCH   6   9
BRANCH   3  16
ATOM     16  O   UNL     1      34.311 -20.312 -21.650  0.00  0.00    -0.270 OA
BRANCH  16  17
ATOM     17  P   UNL     1      33.475 -20.612 -20.293  0.00  0.00    +0.473 P 
ATOM     18  O   UNL     1      32.354 -19.653 -20.018  0.00  0.00    -0.227 OA
BRANCH  17  19
ATOM     19  O   UNL     1      34.617 -20.688 -19.150  0.00  0.00    -0.303 OA
ATOM     20  H   UNL     1      34.250 -20.381 -18.307  0.00  0.00    +0.222 HD
ENDBRANCH  17  19
BRANCH  17  21
ATOM     21  O   UNL     1      33.025 -22.156 -20.473  0.00  0.00    -0.303 OA
ATOM     22  H   UNL     1      32.207 -22.194 -20.992  0.00  0.00    +0.222 HD
ENDBRANCH  17  21
ENDBRANCH  16  17
ENDBRANCH   3  16
BRANCH   5  23
ATOM     23  C   UNL     1      34.275 -19.238 -24.662  0.00  0.00    +0.169 C 
BRANCH  23  24
ATOM     24  O   UNL     1      34.248 -18.123 -25.538  0.00  0.00    -0.379 OA
ATOM     25  H   UNL     1      33.966 -17.333 -25.050  0.00  0.00    +0.211 HD
ENDBRANCH  23  24
ENDBRANCH   5  23
TORSDOF 7
ENDMDL
MODEL 9
REMARK VINA RESULT:      -7.0     13.612     15.542
REMARK  Name = 5289534
REMARK  7 active torsions:
REMARK  status: ('A' for Active; 'I' for Inactive)
REMARK    1  A    between atoms: C_3  and  O_16
REMARK    2  A    between atoms: C_5  and  C_23
REMARK    3  A    between atoms: C_6  and  N_9
REMARK    4  A    between atoms: O_16  and  P_17
REMARK    5  A    between atoms: P_17  and  O_19
REMARK    6  A    between atoms: P_17  and  O_21
REMARK    7  A    between atoms: C_23  and  O_24
REMARK                            x       y       z     vdW  Elec       q    Type
REMARK                         _______ _______ _______ _____ _____    ______ ____
ROOT
ATOM      1  F   UNL     1      30.178 -10.677 -22.749  0.00  0.00    -0.230 F 
ATOM      2  O   UNL     1      32.812 -11.425 -23.973  0.00  0.00    -0.332 OA
ATOM      3  C   UNL     1      32.343 -10.009 -22.156  0.00  0.00    +0.192 C 
ATOM      4  C   UNL     1      31.320 -11.120 -22.153  0.00  0.00    +0.238 C 
ATOM      5  C   UNL     1      32.802 -10.036 -23.602  0.00  0.00    +0.177 C 
ATOM      6  C   UNL     1      31.955 -12.149 -23.070  0.00  0.00    +0.235 C 
ENDROOT
BRANCH   6   9
ATOM      7  O   UNL     1      34.241 -13.429 -24.128  0.00  0.00    -0.252 OA
ATOM      8  O   UNL     1      34.943 -15.795 -20.236  0.00  0.00    -0.270 OA
ATOM      9  N   UNL     1      32.756 -13.105 -22.354  0.00  0.00    -0.216 N 
ATOM     10  N   UNL     1      34.589 -14.608 -22.189  0.00  0.00    -0.236 N 
ATOM     11  C   UNL     1      33.882 -13.689 -22.978  0.00  0.00    +0.315 C 
ATOM     12  C   UNL     1      32.419 -13.450 -21.051  0.00  0.00    +0.076 C 
ATOM     13  C   UNL     1      33.103 -14.328 -20.312  0.00  0.00    +0.074 C 
ATOM     14  C   UNL     1      34.293 -14.985 -20.888  0.00  0.00    +0.254 C 
ATOM     15  H   UNL     1      35.377 -15.029 -22.602  0.00  0.00    +0.159 HD
ENDBRANCH   6   9
BRANCH   3  16
ATOM     16  O   UNL     1      31.793  -8.762 -21.795  0.00  0.00    -0.270 OA
BRANCH  16  17
ATOM     17  P   UNL     1      32.392  -7.992 -20.499  0.00  0.00    +0.473 P 
ATOM     18  O   UNL     1      32.225  -8.724 -19.199  0.00  0.00    -0.227 OA
BRANCH  17  19
ATOM     19  O   UNL     1      31.697  -6.533 -20.566  0.00  0.00    -0.303 OA
ATOM     20  H   UNL     1      32.335  -5.859 -20.286  0.00  0.00    +0.222 HD
ENDBRANCH  17  19
BRANCH  17  21
ATOM     21  O   UNL     1      33.924  -7.695 -20.924  0.00  0.00    -0.303 OA
ATOM     22  H   UNL     1      34.299  -7.026 -20.330  0.00  0.00    +0.222 HD
ENDBRANCH  17  21
ENDBRANCH  16  17
ENDBRANCH   3  16
BRANCH   5  23
ATOM     23  C   UNL     1      34.181  -9.439 -23.810  0.00  0.00    +0.169 C 
BRANCH  23  24
ATOM     24  O   UNL     1      35.110 -10.491 -24.017  0.00  0.00    -0.379 OA
ATOM     25  H   UNL     1      34.640 -11.283 -24.324  0.00  0.00    +0.211 HD
ENDBRANCH  23  24
ENDBRANCH   5  23
TORSDOF 7
ENDMDL
