MODEL 1
REMARK VINA RESULT:      -6.8      0.000      0.000
REMARK  Name = 444567
REMARK  2 active torsions:
REMARK  status: ('A' for Active; 'I' for Inactive)
REMARK    1  A    between atoms: C_1  and  C_3
REMARK    2  A    between atoms: C_1  and  N_10
REMARK                            x       y       z     vdW  Elec       q    Type
REMARK                         _______ _______ _______ _____ _____    ______ ____
ROOT
ATOM      1  C   UNL     1      35.602 -18.719 -22.191  0.00  0.00    +0.098 C 
ATOM      2  C   UNL     1      37.113 -18.646 -21.923  0.00  0.00    +0.026 C 
ENDROOT
BRANCH   1   3
ATOM      3  C   UNL     1      34.881 -19.625 -21.252  0.00  0.00    -0.004 C 
ATOM      4  C   UNL     1      33.488 -19.592 -21.181  0.00  0.00    -0.003 C 
ATOM      5  C   UNL     1      35.598 -20.507 -20.444  0.00  0.00    -0.003 C 
ATOM      6  C   UNL     1      32.813 -20.438 -20.303  0.00  0.00    -0.000 C 
ATOM      7  C   UNL     1      34.923 -21.355 -19.566  0.00  0.00    -0.000 C 
ATOM      8  C   UNL     1      33.531 -21.320 -19.495  0.00  0.00    -0.000 C 
ENDBRANCH   1   3
BRANCH   1  10
ATOM      9  O   UNL     1      34.617 -17.267 -24.498  0.00  0.00    -0.265 OA
ATOM     10  N   UNL     1      35.041 -17.379 -22.196  0.00  0.00    -0.268 N 
ATOM     11  C   UNL     1      34.958 -16.682 -20.923  0.00  0.00    +0.116 C 
ATOM     12  C   UNL     1      34.601 -16.788 -23.370  0.00  0.00    +0.303 C 
ENDBRANCH   1  10
TORSDOF 2
ENDMDL
MODEL 2
REMARK VINA RESULT:      -6.6      2.079      4.601
REMARK  Name = 444567
REMARK  2 active torsions:
REMARK  status: ('A' for Active; 'I' for Inactive)
REMARK    1  A    between atoms: C_1  and  C_3
REMARK    2  A    between atoms: C_1  and  N_10
REMARK                            x       y       z     vdW  Elec       q    Type
REMARK                         _______ _______ _______ _____ _____    ______ ____
ROOT
ATOM      1  C   UNL     1      35.384 -18.600 -22.367  0.00  0.00    +0.098 C 
ATOM      2  C   UNL     1      34.950 -19.167 -23.727  0.00  0.00    +0.026 C 
ENDROOT
BRANCH   1   3
ATOM      3  C   UNL     1      35.004 -17.171 -22.176  0.00  0.00    -0.004 C 
ATOM      4  C   UNL     1      34.874 -16.649 -20.889  0.00  0.00    -0.003 C 
ATOM      5  C   UNL     1      34.779 -16.355 -23.285  0.00  0.00    -0.003 C 
ATOM      6  C   UNL     1      34.518 -15.312 -20.711  0.00  0.00    -0.000 C 
ATOM      7  C   UNL     1      34.424 -15.018 -23.107  0.00  0.00    -0.000 C 
ATOM      8  C   UNL     1      34.293 -14.497 -21.820  0.00  0.00    -0.000 C 
ENDBRANCH   1   3
BRANCH   1  10
ATOM      9  O   UNL     1      36.933 -19.811 -20.236  0.00  0.00    -0.265 OA
ATOM     10  N   UNL     1      34.877 -19.447 -21.300  0.00  0.00    -0.268 N 
ATOM     11  C   UNL     1      33.450 -19.724 -21.286  0.00  0.00    +0.116 C 
ATOM     12  C   UNL     1      35.721 -19.969 -20.334  0.00  0.00    +0.303 C 
ENDBRANCH   1  10
TORSDOF 2
ENDMDL
MODEL 3
REMARK VINA RESULT:      -6.5      1.158      2.135
REMARK  Name = 444567
REMARK  2 active torsions:
REMARK  status: ('A' for Active; 'I' for Inactive)
REMARK    1  A    between atoms: C_1  and  C_3
REMARK    2  A    between atoms: C_1  and  N_10
REMARK                            x       y       z     vdW  Elec       q    Type
REMARK                         _______ _______ _______ _____ _____    ______ ____
ROOT
ATOM      1  C   UNL     1      35.195 -17.630 -21.736  0.00  0.00    +0.098 C 
ATOM      2  C   UNL     1      34.956 -16.363 -20.902  0.00  0.00    +0.026 C 
ENDROOT
BRANCH   1   3
ATOM      3  C   UNL     1      34.678 -18.869 -21.086  0.00  0.00    -0.004 C 
ATOM      4  C   UNL     1      35.569 -19.829 -20.606  0.00  0.00    -0.003 C 
ATOM      5  C   UNL     1      33.304 -19.067 -20.959  0.00  0.00    -0.003 C 
ATOM      6  C   UNL     1      35.085 -20.988 -19.999  0.00  0.00    -0.000 C 
ATOM      7  C   UNL     1      32.820 -20.226 -20.351  0.00  0.00    -0.000 C 
ATOM      8  C   UNL     1      33.711 -21.186 -19.871  0.00  0.00    -0.000 C 
ENDBRANCH   1   3
BRANCH   1  10
ATOM      9  O   UNL     1      35.262 -19.549 -23.908  0.00  0.00    -0.265 OA
ATOM     10  N   UNL     1      34.652 -17.446 -23.071  0.00  0.00    -0.268 N 
ATOM     11  C   UNL     1      34.007 -16.178 -23.363  0.00  0.00    +0.116 C 
ATOM     12  C   UNL     1      34.746 -18.444 -24.029  0.00  0.00    +0.303 C 
ENDBRANCH   1  10
TORSDOF 2
ENDMDL
MODEL 4
REMARK VINA RESULT:      -6.5      1.188      1.645
REMARK  Name = 444567
REMARK  2 active torsions:
REMARK  status: ('A' for Active; 'I' for Inactive)
REMARK    1  A    between atoms: C_1  and  C_3
REMARK    2  A    between atoms: C_1  and  N_10
REMARK                            x       y       z     vdW  Elec       q    Type
REMARK                         _______ _______ _______ _____ _____    ______ ____
ROOT
ATOM      1  C   UNL     1      35.156 -17.520 -21.746  0.00  0.00    +0.098 C 
ATOM      2  C   UNL     1      34.902 -16.268 -20.894  0.00  0.00    +0.026 C 
ENDROOT
BRANCH   1   3
ATOM      3  C   UNL     1      34.660 -18.775 -21.113  0.00  0.00    -0.004 C 
ATOM      4  C   UNL     1      33.289 -18.994 -20.979  0.00  0.00    -0.003 C 
ATOM      5  C   UNL     1      35.566 -19.730 -20.654  0.00  0.00    -0.003 C 
ATOM      6  C   UNL     1      32.824 -20.168 -20.386  0.00  0.00    -0.000 C 
ATOM      7  C   UNL     1      35.102 -20.905 -20.062  0.00  0.00    -0.000 C 
ATOM      8  C   UNL     1      33.731 -21.123 -19.927  0.00  0.00    -0.000 C 
ENDBRANCH   1   3
BRANCH   1  10
ATOM      9  O   UNL     1      35.250 -19.404 -23.948  0.00  0.00    -0.265 OA
ATOM     10  N   UNL     1      34.606 -17.325 -23.077  0.00  0.00    -0.268 N 
ATOM     11  C   UNL     1      33.938 -16.064 -23.348  0.00  0.00    +0.116 C 
ATOM     12  C   UNL     1      34.714 -18.306 -24.050  0.00  0.00    +0.303 C 
ENDBRANCH   1  10
TORSDOF 2
ENDMDL
MODEL 5
REMARK VINA RESULT:      -6.4      1.177      2.277
REMARK  Name = 444567
REMARK  2 active torsions:
REMARK  status: ('A' for Active; 'I' for Inactive)
REMARK    1  A    between atoms: C_1  and  C_3
REMARK    2  A    between atoms: C_1  and  N_10
REMARK                            x       y       z     vdW  Elec       q    Type
REMARK                         _______ _______ _______ _____ _____    ______ ____
ROOT
ATOM      1  C   UNL     1      34.775 -17.713 -21.630  0.00  0.00    +0.098 C 
ATOM      2  C   UNL     1      33.662 -16.731 -21.235  0.00  0.00    +0.026 C 
ENDROOT
BRANCH   1   3
ATOM      3  C   UNL     1      34.647 -19.044 -20.971  0.00  0.00    -0.004 C 
ATOM      4  C   UNL     1      35.791 -19.775 -20.645  0.00  0.00    -0.003 C 
ATOM      5  C   UNL     1      33.385 -19.560 -20.679  0.00  0.00    -0.003 C 
ATOM      6  C   UNL     1      35.671 -21.020 -20.029  0.00  0.00    -0.000 C 
ATOM      7  C   UNL     1      33.265 -20.805 -20.061  0.00  0.00    -0.000 C 
ATOM      8  C   UNL     1      34.408 -21.535 -19.737  0.00  0.00    -0.000 C 
ENDBRANCH   1   3
BRANCH   1  10
ATOM      9  O   UNL     1      35.262 -15.560 -23.509  0.00  0.00    -0.265 OA
ATOM     10  N   UNL     1      34.838 -17.824 -23.078  0.00  0.00    -0.268 N 
ATOM     11  C   UNL     1      34.639 -19.142 -23.657  0.00  0.00    +0.116 C 
ATOM     12  C   UNL     1      35.080 -16.716 -23.874  0.00  0.00    +0.303 C 
ENDBRANCH   1  10
TORSDOF 2
ENDMDL
MODEL 6
REMARK VINA RESULT:      -6.3     10.480     13.142
REMARK  Name = 444567
REMARK  2 active torsions:
REMARK  status: ('A' for Active; 'I' for Inactive)
REMARK    1  A    between atoms: C_1  and  C_3
REMARK    2  A    between atoms: C_1  and  N_10
REMARK                            x       y       z     vdW  Elec       q    Type
REMARK                         _______ _______ _______ _____ _____    ______ ____
ROOT
ATOM      1  C   UNL     1      33.518  -7.465 -22.529  0.00  0.00    +0.098 C 
ATOM      2  C   UNL     1      34.697  -7.934 -23.394  0.00  0.00    +0.026 C 
ENDROOT
BRANCH   1   3
ATOM      3  C   UNL     1      32.696  -6.404 -23.178  0.00  0.00    -0.004 C 
ATOM      4  C   UNL     1      31.776  -5.675 -22.425  0.00  0.00    -0.003 C 
ATOM      5  C   UNL     1      32.847  -6.141 -24.540  0.00  0.00    -0.003 C 
ATOM      6  C   UNL     1      31.007  -4.683 -23.033  0.00  0.00    -0.000 C 
ATOM      7  C   UNL     1      32.078  -5.148 -25.148  0.00  0.00    -0.000 C 
ATOM      8  C   UNL     1      31.158  -4.420 -24.394  0.00  0.00    -0.000 C 
ENDBRANCH   1   3
BRANCH   1  10
ATOM      9  O   UNL     1      32.613  -8.094 -19.847  0.00  0.00    -0.265 OA
ATOM     10  N   UNL     1      32.717  -8.610 -22.131  0.00  0.00    -0.268 N 
ATOM     11  C   UNL     1      32.320  -9.544 -23.171  0.00  0.00    +0.116 C 
ATOM     12  C   UNL     1      32.344  -8.803 -20.811  0.00  0.00    +0.303 C 
ENDBRANCH   1  10
TORSDOF 2
ENDMDL
MODEL 7
REMARK VINA RESULT:      -6.3      2.971      4.088
REMARK  Name = 444567
REMARK  2 active torsions:
REMARK  status: ('A' for Active; 'I' for Inactive)
REMARK    1  A    between atoms: C_1  and  C_3
REMARK    2  A    between atoms: C_1  and  N_10
REMARK                            x       y       z     vdW  Elec       q    Type
REMARK                         _______ _______ _______ _____ _____    ______ ____
ROOT
ATOM      1  C   UNL     1      34.598 -15.478 -22.091  0.00  0.00    +0.098 C 
ATOM      2  C   UNL     1      34.889 -15.764 -20.611  0.00  0.00    +0.026 C 
ENDROOT
BRANCH   1   3
ATOM      3  C   UNL     1      34.608 -16.703 -22.941  0.00  0.00    -0.004 C 
ATOM      4  C   UNL     1      34.555 -16.590 -24.330  0.00  0.00    -0.003 C 
ATOM      5  C   UNL     1      34.672 -17.963 -22.346  0.00  0.00    -0.003 C 
ATOM      6  C   UNL     1      34.564 -17.736 -25.125  0.00  0.00    -0.000 C 
ATOM      7  C   UNL     1      34.682 -19.110 -23.141  0.00  0.00    -0.000 C 
ATOM      8  C   UNL     1      34.628 -18.996 -24.530  0.00  0.00    -0.000 C 
ENDBRANCH   1   3
BRANCH   1  10
ATOM      9  O   UNL     1      34.072 -13.249 -23.869  0.00  0.00    -0.265 OA
ATOM     10  N   UNL     1      33.352 -14.741 -22.211  0.00  0.00    -0.268 N 
ATOM     11  C   UNL     1      32.247 -15.150 -21.361  0.00  0.00    +0.116 C 
ATOM     12  C   UNL     1      33.222 -13.688 -23.103  0.00  0.00    +0.303 C 
ENDBRANCH   1  10
TORSDOF 2
ENDMDL
MODEL 8
REMARK VINA RESULT:      -6.2      7.013      8.999
REMARK  Name = 444567
REMARK  2 active torsions:
REMARK  status: ('A' for Active; 'I' for Inactive)
REMARK    1  A    between atoms: C_1  and  C_3
REMARK    2  A    between atoms: C_1  and  N_10
REMARK                            x       y       z     vdW  Elec       q    Type
REMARK                         _______ _______ _______ _____ _____    ______ ____
ROOT
ATOM      1  C   UNL     1      30.571 -23.097 -14.615  0.00  0.00    +0.098 C 
ATOM      2  C   UNL     1      30.811 -23.573 -13.175  0.00  0.00    +0.026 C 
ENDROOT
BRANCH   1   3
ATOM      3  C   UNL     1      31.803 -23.118 -15.455  0.00  0.00    -0.004 C 
ATOM      4  C   UNL     1      33.044 -23.363 -14.868  0.00  0.00    -0.003 C 
ATOM      5  C   UNL     1      31.714 -22.893 -16.829  0.00  0.00    -0.003 C 
ATOM      6  C   UNL     1      34.196 -23.382 -15.654  0.00  0.00    -0.000 C 
ATOM      7  C   UNL     1      32.866 -22.913 -17.615  0.00  0.00    -0.000 C 
ATOM      8  C   UNL     1      34.107 -23.157 -17.028  0.00  0.00    -0.000 C 
ENDBRANCH   1   3
BRANCH   1  10
ATOM      9  O   UNL     1      28.195 -22.036 -15.893  0.00  0.00    -0.265 OA
ATOM     10  N   UNL     1      29.491 -23.866 -15.211  0.00  0.00    -0.268 N 
ATOM     11  C   UNL     1      29.598 -25.314 -15.170  0.00  0.00    +0.116 C 
ATOM     12  C   UNL     1      28.401 -23.240 -15.796  0.00  0.00    +0.303 C 
ENDBRANCH   1  10
TORSDOF 2
ENDMDL
MODEL 9
REMARK VINA RESULT:      -6.1      2.606      4.588
REMARK  Name = 444567
REMARK  2 active torsions:
REMARK  status: ('A' for Active; 'I' for Inactive)
REMARK    1  A    between atoms: C_1  and  C_3
REMARK    2  A    between atoms: C_1  and  N_10
REMARK                            x       y       z     vdW  Elec       q    Type
REMARK                         _______ _______ _______ _____ _____    ______ ____
ROOT
ATOM      1  C   UNL     1      34.387 -20.299 -21.132  0.00  0.00    +0.098 C 
ATOM      2  C   UNL     1      33.169 -20.223 -20.200  0.00  0.00    +0.026 C 
ENDROOT
BRANCH   1   3
ATOM      3  C   UNL     1      34.565 -19.079 -21.970  0.00  0.00    -0.004 C 
ATOM      4  C   UNL     1      34.389 -17.814 -21.407  0.00  0.00    -0.003 C 
ATOM      5  C   UNL     1      34.908 -19.201 -23.316  0.00  0.00    -0.003 C 
ATOM      6  C   UNL     1      34.555 -16.673 -22.191  0.00  0.00    -0.000 C 
ATOM      7  C   UNL     1      35.076 -18.059 -24.100  0.00  0.00    -0.000 C 
ATOM      8  C   UNL     1      34.899 -16.795 -23.537  0.00  0.00    -0.000 C 
ENDBRANCH   1   3
BRANCH   1  10
ATOM      9  O   UNL     1      34.829 -22.663 -19.512  0.00  0.00    -0.265 OA
ATOM     10  N   UNL     1      35.577 -20.608 -20.357  0.00  0.00    -0.268 N 
ATOM     11  C   UNL     1      36.664 -19.646 -20.387  0.00  0.00    +0.116 C 
ATOM     12  C   UNL     1      35.670 -21.777 -19.619  0.00  0.00    +0.303 C 
ENDBRANCH   1  10
TORSDOF 2
ENDMDL
