MODEL 1
REMARK VINA RESULT:     -10.2      0.000      0.000
REMARK  Name = 5180213
REMARK  11 active torsions:
REMARK  status: ('A' for Active; 'I' for Inactive)
REMARK    1  A    between atoms: N_2  and  C_7
REMARK    2  A    between atoms: C_4  and  C_18
REMARK    3  A    between atoms: C_7  and  C_9
REMARK    4  A    between atoms: C_10  and  N_15
REMARK    5  A    between atoms: C_18  and  C_19
REMARK    6  A    between atoms: C_19  and  O_20
REMARK    7  A    between atoms: O_20  and  P_21
REMARK    8  A    between atoms: P_21  and  O_23
REMARK    9  A    between atoms: P_21  and  O_25
REMARK   10  A    between atoms: O_25  and  P_26
REMARK   11  A    between atoms: P_26  and  O_29
REMARK                            x       y       z     vdW  Elec       q    Type
REMARK                         _______ _______ _______ _____ _____    ______ ____
ROOT
ATOM      1  S   UNL     1      37.175 -21.757 -16.544  0.00  0.00    -0.095 S 
ATOM      2  N   UNL     1      35.663 -22.092 -18.515  0.00  0.00    -0.297 N 
ATOM      3  C   UNL     1      34.980 -22.653 -17.458  0.00  0.00    +0.028 C 
ATOM      4  C   UNL     1      35.684 -22.546 -16.309  0.00  0.00    +0.016 C 
ATOM      5  C   UNL     1      36.833 -21.576 -18.211  0.00  0.00    +0.154 C 
ATOM      6  C   UNL     1      33.662 -23.253 -17.719  0.00  0.00    +0.047 C 
ENDROOT
BRANCH   2   7
ATOM      7  C   UNL     1      35.154 -22.060 -19.865  0.00  0.00    +0.121 C 
BRANCH   7   9
ATOM      8  N   UNL     1      36.098 -18.576 -20.926  0.00  0.00    -0.248 NA
ATOM      9  C   UNL     1      35.007 -20.632 -20.316  0.00  0.00    +0.030 C 
ATOM     10  C   UNL     1      33.765 -20.064 -20.531  0.00  0.00    +0.042 C 
ATOM     11  C   UNL     1      36.135 -19.866 -20.521  0.00  0.00    +0.097 C 
ATOM     12  C   UNL     1      33.686 -18.740 -20.947  0.00  0.00    +0.029 C 
ATOM     13  C   UNL     1      34.871 -18.045 -21.128  0.00  0.00    +0.061 C 
ATOM     14  C   UNL     1      34.825 -16.623 -21.575  0.00  0.00    +0.052 C 
BRANCH  10  15
ATOM     15  N   UNL     1      32.577 -20.801 -20.336  0.00  0.00    -0.357 N 
ATOM     16  H   UNL     1      31.927 -20.890 -21.069  0.00  0.00    +0.142 HD
ATOM     17  H   UNL     1      32.400 -21.227 -19.466  0.00  0.00    +0.142 HD
ENDBRANCH  10  15
ENDBRANCH   7   9
ENDBRANCH   2   7
BRANCH   4  18
ATOM     18  C   UNL     1      35.315 -23.022 -14.924  0.00  0.00    +0.066 C 
BRANCH  18  19
ATOM     19  C   UNL     1      35.431 -24.538 -14.788  0.00  0.00    +0.159 C 
BRANCH  19  20
ATOM     20  O   UNL     1      36.752 -24.967 -15.067  0.00  0.00    -0.273 OA
BRANCH  20  21
ATOM     21  P   UNL     1      37.130 -26.537 -14.968  0.00  0.00    +0.484 P 
ATOM     22  O   UNL     1      36.620 -27.381 -16.100  0.00  0.00    -0.227 OA
BRANCH  21  23
ATOM     23  O   UNL     1      36.598 -26.989 -13.508  0.00  0.00    -0.302 OA
ATOM     24  H   UNL     1      37.321 -27.409 -13.017  0.00  0.00    +0.222 HD
ENDBRANCH  21  23
BRANCH  21  25
ATOM     25  O   UNL     1      38.738 -26.560 -14.800  0.00  0.00    -0.185 OA
BRANCH  25  26
ATOM     26  P   UNL     1      39.775 -25.371 -14.388  0.00  0.00    +0.511 P 
ATOM     27  O   UNL     1      41.194 -25.873 -14.540  0.00  0.00    -0.116 OA
ATOM     28  O   UNL     1      39.310 -24.742 -13.094  0.00  0.00    -0.225 OA
BRANCH  26  29
ATOM     29  O   UNL     1      39.459 -24.334 -15.610  0.00  0.00    -0.301 OA
ATOM     30  H   UNL     1      38.740 -24.688 -16.156  0.00  0.00    +0.222 HD
ENDBRANCH  26  29
ENDBRANCH  25  26
ENDBRANCH  21  25
ENDBRANCH  20  21
ENDBRANCH  19  20
ENDBRANCH  18  19
ENDBRANCH   4  18
TORSDOF 11
ENDMDL
MODEL 2
REMARK VINA RESULT:      -9.8      1.348      1.987
REMARK  Name = 5180213
REMARK  11 active torsions:
REMARK  status: ('A' for Active; 'I' for Inactive)
REMARK    1  A    between atoms: N_2  and  C_7
REMARK    2  A    between atoms: C_4  and  C_18
REMARK    3  A    between atoms: C_7  and  C_9
REMARK    4  A    between atoms: C_10  and  N_15
REMARK    5  A    between atoms: C_18  and  C_19
REMARK    6  A    between atoms: C_19  and  O_20
REMARK    7  A    between atoms: O_20  and  P_21
REMARK    8  A    between atoms: P_21  and  O_23
REMARK    9  A    between atoms: P_21  and  O_25
REMARK   10  A    between atoms: O_25  and  P_26
REMARK   11  A    between atoms: P_26  and  O_29
REMARK                            x       y       z     vdW  Elec       q    Type
REMARK                         _______ _______ _______ _____ _____    ______ ____
ROOT
ATOM      1  S   UNL     1      36.963 -21.833 -16.551  0.00  0.00    -0.095 S 
ATOM      2  N   UNL     1      35.627 -22.051 -18.661  0.00  0.00    -0.297 N 
ATOM      3  C   UNL     1      34.830 -22.617 -17.690  0.00  0.00    +0.028 C 
ATOM      4  C   UNL     1      35.430 -22.571 -16.478  0.00  0.00    +0.016 C 
ATOM      5  C   UNL     1      36.782 -21.589 -18.235  0.00  0.00    +0.154 C 
ATOM      6  C   UNL     1      33.522 -23.157 -18.088  0.00  0.00    +0.047 C 
ENDROOT
BRANCH   2   7
ATOM      7  C   UNL     1      35.246 -21.959 -20.050  0.00  0.00    +0.121 C 
BRANCH   7   9
ATOM      8  N   UNL     1      36.103 -18.403 -20.930  0.00  0.00    -0.248 NA
ATOM      9  C   UNL     1      35.064 -20.514 -20.429  0.00  0.00    +0.030 C 
ATOM     10  C   UNL     1      33.807 -19.969 -20.621  0.00  0.00    +0.042 C 
ATOM     11  C   UNL     1      36.172 -19.710 -20.590  0.00  0.00    +0.097 C 
ATOM     12  C   UNL     1      33.696 -18.628 -20.971  0.00  0.00    +0.029 C 
ATOM     13  C   UNL     1      34.863 -17.895 -21.111  0.00  0.00    +0.061 C 
ATOM     14  C   UNL     1      34.782 -16.453 -21.487  0.00  0.00    +0.052 C 
BRANCH  10  15
ATOM     15  N   UNL     1      32.639 -20.745 -20.469  0.00  0.00    -0.357 N 
ATOM     16  H   UNL     1      32.689 -21.633 -20.046  0.00  0.00    +0.142 HD
ATOM     17  H   UNL     1      31.773 -20.398 -20.786  0.00  0.00    +0.142 HD
ENDBRANCH  10  15
ENDBRANCH   7   9
ENDBRANCH   2   7
BRANCH   4  18
ATOM     18  C   UNL     1      34.918 -23.073 -15.149  0.00  0.00    +0.066 C 
BRANCH  18  19
ATOM     19  C   UNL     1      35.009 -24.593 -15.037  0.00  0.00    +0.159 C 
BRANCH  19  20
ATOM     20  O   UNL     1      36.298 -25.048 -15.408  0.00  0.00    -0.273 OA
BRANCH  20  21
ATOM     21  P   UNL     1      37.358 -25.493 -14.269  0.00  0.00    +0.484 P 
ATOM     22  O   UNL     1      38.491 -26.346 -14.761  0.00  0.00    -0.227 OA
BRANCH  21  23
ATOM     23  O   UNL     1      36.451 -26.185 -13.122  0.00  0.00    -0.302 OA
ATOM     24  H   UNL     1      36.560 -25.702 -12.288  0.00  0.00    +0.222 HD
ENDBRANCH  21  23
BRANCH  21  25
ATOM     25  O   UNL     1      37.825 -24.104 -13.584  0.00  0.00    -0.185 OA
BRANCH  25  26
ATOM     26  P   UNL     1      37.493 -23.486 -12.112  0.00  0.00    +0.511 P 
ATOM     27  O   UNL     1      35.993 -23.380 -11.944  0.00  0.00    -0.116 OA
ATOM     28  O   UNL     1      38.386 -22.290 -11.871  0.00  0.00    -0.225 OA
BRANCH  26  29
ATOM     29  O   UNL     1      38.031 -24.727 -11.197  0.00  0.00    -0.301 OA
ATOM     30  H   UNL     1      37.523 -25.526 -11.406  0.00  0.00    +0.222 HD
ENDBRANCH  26  29
ENDBRANCH  25  26
ENDBRANCH  21  25
ENDBRANCH  20  21
ENDBRANCH  19  20
ENDBRANCH  18  19
ENDBRANCH   4  18
TORSDOF 11
ENDMDL
MODEL 3
REMARK VINA RESULT:      -9.6      5.234      6.864
REMARK  Name = 5180213
REMARK  11 active torsions:
REMARK  status: ('A' for Active; 'I' for Inactive)
REMARK    1  A    between atoms: N_2  and  C_7
REMARK    2  A    between atoms: C_4  and  C_18
REMARK    3  A    between atoms: C_7  and  C_9
REMARK    4  A    between atoms: C_10  and  N_15
REMARK    5  A    between atoms: C_18  and  C_19
REMARK    6  A    between atoms: C_19  and  O_20
REMARK    7  A    between atoms: O_20  and  P_21
REMARK    8  A    between atoms: P_21  and  O_23
REMARK    9  A    between atoms: P_21  and  O_25
REMARK   10  A    between atoms: O_25  and  P_26
REMARK   11  A    between atoms: P_26  and  O_29
REMARK                            x       y       z     vdW  Elec       q    Type
REMARK                         _______ _______ _______ _____ _____    ______ ____
ROOT
ATOM      1  S   UNL     1      32.683 -20.801 -20.122  0.00  0.00    -0.095 S 
ATOM      2  N   UNL     1      34.936 -19.820 -20.615  0.00  0.00    -0.297 N 
ATOM      3  C   UNL     1      35.209 -20.968 -19.904  0.00  0.00    +0.028 C 
ATOM      4  C   UNL     1      34.071 -21.613 -19.562  0.00  0.00    +0.016 C 
ATOM      5  C   UNL     1      33.659 -19.581 -20.820  0.00  0.00    +0.154 C 
ATOM      6  C   UNL     1      36.615 -21.303 -19.633  0.00  0.00    +0.047 C 
ENDROOT
BRANCH   2   7
ATOM      7  C   UNL     1      35.957 -18.929 -21.112  0.00  0.00    +0.121 C 
BRANCH   7   9
ATOM      8  N   UNL     1      34.889 -17.953 -24.584  0.00  0.00    -0.248 NA
ATOM      9  C   UNL     1      35.400 -18.101 -22.239  0.00  0.00    +0.030 C 
ATOM     10  C   UNL     1      34.915 -16.823 -22.028  0.00  0.00    +0.042 C 
ATOM     11  C   UNL     1      35.370 -18.624 -23.514  0.00  0.00    +0.097 C 
ATOM     12  C   UNL     1      34.413 -16.102 -23.105  0.00  0.00    +0.029 C 
ATOM     13  C   UNL     1      34.421 -16.706 -24.352  0.00  0.00    +0.061 C 
ATOM     14  C   UNL     1      33.888 -15.962 -25.530  0.00  0.00    +0.052 C 
BRANCH  10  15
ATOM     15  N   UNL     1      34.922 -16.238 -20.744  0.00  0.00    -0.357 N 
ATOM     16  H   UNL     1      35.363 -15.369 -20.601  0.00  0.00    +0.142 HD
ATOM     17  H   UNL     1      34.484 -16.698 -19.991  0.00  0.00    +0.142 HD
ENDBRANCH  10  15
ENDBRANCH   7   9
ENDBRANCH   2   7
BRANCH   4  18
ATOM     18  C   UNL     1      33.907 -22.898 -18.786  0.00  0.00    +0.066 C 
BRANCH  18  19
ATOM     19  C   UNL     1      33.136 -22.688 -17.485  0.00  0.00    +0.159 C 
BRANCH  19  20
ATOM     20  O   UNL     1      31.832 -23.232 -17.581  0.00  0.00    -0.273 OA
BRANCH  20  21
ATOM     21  P   UNL     1      30.821 -23.134 -16.321  0.00  0.00    +0.484 P 
ATOM     22  O   UNL     1      31.414 -22.524 -15.083  0.00  0.00    -0.227 OA
BRANCH  21  23
ATOM     23  O   UNL     1      30.275 -24.644 -16.123  0.00  0.00    -0.302 OA
ATOM     24  H   UNL     1      29.307 -24.648 -16.179  0.00  0.00    +0.222 HD
ENDBRANCH  21  23
BRANCH  21  25
ATOM     25  O   UNL     1      29.531 -22.345 -16.894  0.00  0.00    -0.185 OA
BRANCH  25  26
ATOM     26  P   UNL     1      27.950 -22.747 -16.873  0.00  0.00    +0.511 P 
ATOM     27  O   UNL     1      27.748 -24.013 -17.676  0.00  0.00    -0.116 OA
ATOM     28  O   UNL     1      27.128 -21.509 -17.157  0.00  0.00    -0.225 OA
BRANCH  26  29
ATOM     29  O   UNL     1      27.809 -23.109 -15.288  0.00  0.00    -0.301 OA
ATOM     30  H   UNL     1      27.954 -22.309 -14.759  0.00  0.00    +0.222 HD
ENDBRANCH  26  29
ENDBRANCH  25  26
ENDBRANCH  21  25
ENDBRANCH  20  21
ENDBRANCH  19  20
ENDBRANCH  18  19
ENDBRANCH   4  18
TORSDOF 11
ENDMDL
MODEL 4
REMARK VINA RESULT:      -9.4      2.622      4.233
REMARK  Name = 5180213
REMARK  11 active torsions:
REMARK  status: ('A' for Active; 'I' for Inactive)
REMARK    1  A    between atoms: N_2  and  C_7
REMARK    2  A    between atoms: C_4  and  C_18
REMARK    3  A    between atoms: C_7  and  C_9
REMARK    4  A    between atoms: C_10  and  N_15
REMARK    5  A    between atoms: C_18  and  C_19
REMARK    6  A    between atoms: C_19  and  O_20
REMARK    7  A    between atoms: O_20  and  P_21
REMARK    8  A    between atoms: P_21  and  O_23
REMARK    9  A    between atoms: P_21  and  O_25
REMARK   10  A    between atoms: O_25  and  P_26
REMARK   11  A    between atoms: P_26  and  O_29
REMARK                            x       y       z     vdW  Elec       q    Type
REMARK                         _______ _______ _______ _____ _____    ______ ____
ROOT
ATOM      1  S   UNL     1      32.845 -20.512 -20.272  0.00  0.00    -0.095 S 
ATOM      2  N   UNL     1      35.024 -19.421 -20.860  0.00  0.00    -0.297 N 
ATOM      3  C   UNL     1      35.385 -20.585 -20.217  0.00  0.00    +0.028 C 
ATOM      4  C   UNL     1      34.296 -21.290 -19.835  0.00  0.00    +0.016 C 
ATOM      5  C   UNL     1      33.728 -19.226 -20.975  0.00  0.00    +0.154 C 
ATOM      6  C   UNL     1      36.817 -20.873 -20.048  0.00  0.00    +0.047 C 
ENDROOT
BRANCH   2   7
ATOM      7  C   UNL     1      35.977 -18.469 -21.379  0.00  0.00    +0.121 C 
BRANCH   7   9
ATOM      8  N   UNL     1      34.725 -17.558 -24.807  0.00  0.00    -0.248 NA
ATOM      9  C   UNL     1      35.341 -17.670 -22.485  0.00  0.00    +0.030 C 
ATOM     10  C   UNL     1      34.818 -16.410 -22.260  0.00  0.00    +0.042 C 
ATOM     11  C   UNL     1      35.277 -18.202 -23.755  0.00  0.00    +0.097 C 
ATOM     12  C   UNL     1      34.242 -15.716 -23.318  0.00  0.00    +0.029 C 
ATOM     13  C   UNL     1      34.221 -16.327 -24.561  0.00  0.00    +0.061 C 
ATOM     14  C   UNL     1      33.610 -15.612 -25.719  0.00  0.00    +0.052 C 
BRANCH  10  15
ATOM     15  N   UNL     1      34.857 -15.817 -20.980  0.00  0.00    -0.357 N 
ATOM     16  H   UNL     1      35.170 -14.889 -20.877  0.00  0.00    +0.142 HD
ATOM     17  H   UNL     1      34.571 -16.331 -20.191  0.00  0.00    +0.142 HD
ENDBRANCH  10  15
ENDBRANCH   7   9
ENDBRANCH   2   7
BRANCH   4  18
ATOM     18  C   UNL     1      34.231 -22.611 -19.107  0.00  0.00    +0.066 C 
BRANCH  18  19
ATOM     19  C   UNL     1      34.649 -22.481 -17.645  0.00  0.00    +0.159 C 
BRANCH  19  20
ATOM     20  O   UNL     1      34.344 -23.664 -16.928  0.00  0.00    -0.273 OA
BRANCH  20  21
ATOM     21  P   UNL     1      34.117 -23.603 -15.326  0.00  0.00    +0.484 P 
ATOM     22  O   UNL     1      32.694 -23.387 -14.900  0.00  0.00    -0.227 OA
BRANCH  21  23
ATOM     23  O   UNL     1      35.147 -22.464 -14.816  0.00  0.00    -0.302 OA
ATOM     24  H   UNL     1      35.391 -22.640 -13.894  0.00  0.00    +0.222 HD
ENDBRANCH  21  23
BRANCH  21  25
ATOM     25  O   UNL     1      34.773 -24.972 -14.770  0.00  0.00    -0.185 OA
BRANCH  25  26
ATOM     26  P   UNL     1      36.294 -25.547 -14.900  0.00  0.00    +0.511 P 
ATOM     27  O   UNL     1      36.289 -26.770 -15.789  0.00  0.00    -0.116 OA
ATOM     28  O   UNL     1      36.919 -25.591 -13.524  0.00  0.00    -0.225 OA
BRANCH  26  29
ATOM     29  O   UNL     1      36.956 -24.306 -15.730  0.00  0.00    -0.301 OA
ATOM     30  H   UNL     1      37.882 -24.196 -15.463  0.00  0.00    +0.222 HD
ENDBRANCH  26  29
ENDBRANCH  25  26
ENDBRANCH  21  25
ENDBRANCH  20  21
ENDBRANCH  19  20
ENDBRANCH  18  19
ENDBRANCH   4  18
TORSDOF 11
ENDMDL
MODEL 5
REMARK VINA RESULT:      -9.2      3.096      4.898
REMARK  Name = 5180213
REMARK  11 active torsions:
REMARK  status: ('A' for Active; 'I' for Inactive)
REMARK    1  A    between atoms: N_2  and  C_7
REMARK    2  A    between atoms: C_4  and  C_18
REMARK    3  A    between atoms: C_7  and  C_9
REMARK    4  A    between atoms: C_10  and  N_15
REMARK    5  A    between atoms: C_18  and  C_19
REMARK    6  A    between atoms: C_19  and  O_20
REMARK    7  A    between atoms: O_20  and  P_21
REMARK    8  A    between atoms: P_21  and  O_23
REMARK    9  A    between atoms: P_21  and  O_25
REMARK   10  A    between atoms: O_25  and  P_26
REMARK   11  A    between atoms: P_26  and  O_29
REMARK                            x       y       z     vdW  Elec       q    Type
REMARK                         _______ _______ _______ _____ _____    ______ ____
ROOT
ATOM      1  S   UNL     1      32.773 -20.715 -20.211  0.00  0.00    -0.095 S 
ATOM      2  N   UNL     1      34.969 -19.615 -20.710  0.00  0.00    -0.297 N 
ATOM      3  C   UNL     1      35.310 -20.820 -20.136  0.00  0.00    +0.028 C 
ATOM      4  C   UNL     1      34.210 -21.535 -19.808  0.00  0.00    +0.016 C 
ATOM      5  C   UNL     1      33.677 -19.399 -20.826  0.00  0.00    +0.154 C 
ATOM      6  C   UNL     1      36.738 -21.134 -19.971  0.00  0.00    +0.047 C 
ENDROOT
BRANCH   2   7
ATOM      7  C   UNL     1      35.937 -18.645 -21.162  0.00  0.00    +0.121 C 
BRANCH   7   9
ATOM      8  N   UNL     1      34.843 -17.757 -24.650  0.00  0.00    -0.248 NA
ATOM      9  C   UNL     1      35.361 -17.850 -22.303  0.00  0.00    +0.030 C 
ATOM     10  C   UNL     1      34.850 -16.579 -22.115  0.00  0.00    +0.042 C 
ATOM     11  C   UNL     1      35.341 -18.397 -23.568  0.00  0.00    +0.097 C 
ATOM     12  C   UNL     1      34.330 -15.889 -23.204  0.00  0.00    +0.029 C 
ATOM     13  C   UNL     1      34.350 -16.515 -24.439  0.00  0.00    +0.061 C 
ATOM     14  C   UNL     1      33.800 -15.805 -25.630  0.00  0.00    +0.052 C 
BRANCH  10  15
ATOM     15  N   UNL     1      34.846 -15.970 -20.842  0.00  0.00    -0.357 N 
ATOM     16  H   UNL     1      34.059 -15.459 -20.543  0.00  0.00    +0.142 HD
ATOM     17  H   UNL     1      35.630 -16.057 -20.252  0.00  0.00    +0.142 HD
ENDBRANCH  10  15
ENDBRANCH   7   9
ENDBRANCH   2   7
BRANCH   4  18
ATOM     18  C   UNL     1      34.123 -22.897 -19.161  0.00  0.00    +0.066 C 
BRANCH  18  19
ATOM     19  C   UNL     1      33.816 -22.805 -17.669  0.00  0.00    +0.159 C 
BRANCH  19  20
ATOM     20  O   UNL     1      34.995 -22.975 -16.902  0.00  0.00    -0.273 OA
BRANCH  20  21
ATOM     21  P   UNL     1      34.915 -23.653 -15.435  0.00  0.00    +0.484 P 
ATOM     22  O   UNL     1      35.640 -22.906 -14.354  0.00  0.00    -0.227 OA
BRANCH  21  23
ATOM     23  O   UNL     1      35.434 -25.168 -15.662  0.00  0.00    -0.302 OA
ATOM     24  H   UNL     1      35.803 -25.253 -16.556  0.00  0.00    +0.222 HD
ENDBRANCH  21  23
BRANCH  21  25
ATOM     25  O   UNL     1      33.332 -23.841 -15.161  0.00  0.00    -0.185 OA
BRANCH  25  26
ATOM     26  P   UNL     1      32.540 -24.313 -13.815  0.00  0.00    +0.511 P 
ATOM     27  O   UNL     1      31.676 -25.511 -14.140  0.00  0.00    -0.116 OA
ATOM     28  O   UNL     1      31.952 -23.093 -13.141  0.00  0.00    -0.225 OA
BRANCH  26  29
ATOM     29  O   UNL     1      33.822 -24.820 -12.940  0.00  0.00    -0.301 OA
ATOM     30  H   UNL     1      33.556 -25.566 -12.379  0.00  0.00    +0.222 HD
ENDBRANCH  26  29
ENDBRANCH  25  26
ENDBRANCH  21  25
ENDBRANCH  20  21
ENDBRANCH  19  20
ENDBRANCH  18  19
ENDBRANCH   4  18
TORSDOF 11
ENDMDL
MODEL 6
REMARK VINA RESULT:      -9.1      2.416      4.051
REMARK  Name = 5180213
REMARK  11 active torsions:
REMARK  status: ('A' for Active; 'I' for Inactive)
REMARK    1  A    between atoms: N_2  and  C_7
REMARK    2  A    between atoms: C_4  and  C_18
REMARK    3  A    between atoms: C_7  and  C_9
REMARK    4  A    between atoms: C_10  and  N_15
REMARK    5  A    between atoms: C_18  and  C_19
REMARK    6  A    between atoms: C_19  and  O_20
REMARK    7  A    between atoms: O_20  and  P_21
REMARK    8  A    between atoms: P_21  and  O_23
REMARK    9  A    between atoms: P_21  and  O_25
REMARK   10  A    between atoms: O_25  and  P_26
REMARK   11  A    between atoms: P_26  and  O_29
REMARK                            x       y       z     vdW  Elec       q    Type
REMARK                         _______ _______ _______ _____ _____    ______ ____
ROOT
ATOM      1  S   UNL     1      32.852 -20.662 -20.263  0.00  0.00    -0.095 S 
ATOM      2  N   UNL     1      35.041 -19.587 -20.843  0.00  0.00    -0.297 N 
ATOM      3  C   UNL     1      35.390 -20.719 -20.140  0.00  0.00    +0.028 C 
ATOM      4  C   UNL     1      34.294 -21.411 -19.754  0.00  0.00    +0.016 C 
ATOM      5  C   UNL     1      33.748 -19.404 -21.001  0.00  0.00    +0.154 C 
ATOM      6  C   UNL     1      36.818 -20.992 -19.921  0.00  0.00    +0.047 C 
ENDROOT
BRANCH   2   7
ATOM      7  C   UNL     1      36.003 -18.654 -21.380  0.00  0.00    +0.121 C 
BRANCH   7   9
ATOM      8  N   UNL     1      34.307 -15.298 -21.278  0.00  0.00    -0.248 NA
ATOM      9  C   UNL     1      35.295 -17.414 -21.855  0.00  0.00    +0.030 C 
ATOM     10  C   UNL     1      34.984 -17.223 -23.189  0.00  0.00    +0.042 C 
ATOM     11  C   UNL     1      34.944 -16.442 -20.942  0.00  0.00    +0.097 C 
ATOM     12  C   UNL     1      34.329 -16.058 -23.572  0.00  0.00    +0.029 C 
ATOM     13  C   UNL     1      34.015 -15.135 -22.588  0.00  0.00    +0.061 C 
ATOM     14  C   UNL     1      33.313 -13.874 -22.963  0.00  0.00    +0.052 C 
BRANCH  10  15
ATOM     15  N   UNL     1      35.319 -18.184 -24.166  0.00  0.00    -0.357 N 
ATOM     16  H   UNL     1      35.520 -17.901 -25.087  0.00  0.00    +0.142 HD
ATOM     17  H   UNL     1      35.352 -19.139 -23.926  0.00  0.00    +0.142 HD
ENDBRANCH  10  15
ENDBRANCH   7   9
ENDBRANCH   2   7
BRANCH   4  18
ATOM     18  C   UNL     1      34.215 -22.699 -18.969  0.00  0.00    +0.066 C 
BRANCH  18  19
ATOM     19  C   UNL     1      34.627 -22.507 -17.511  0.00  0.00    +0.159 C 
BRANCH  19  20
ATOM     20  O   UNL     1      34.569 -23.735 -16.807  0.00  0.00    -0.273 OA
BRANCH  20  21
ATOM     21  P   UNL     1      34.272 -23.742 -15.216  0.00  0.00    +0.484 P 
ATOM     22  O   UNL     1      32.823 -23.608 -14.845  0.00  0.00    -0.227 OA
BRANCH  21  23
ATOM     23  O   UNL     1      35.223 -22.575 -14.624  0.00  0.00    -0.302 OA
ATOM     24  H   UNL     1      35.891 -22.968 -14.040  0.00  0.00    +0.222 HD
ENDBRANCH  21  23
BRANCH  21  25
ATOM     25  O   UNL     1      34.969 -25.098 -14.678  0.00  0.00    -0.185 OA
BRANCH  25  26
ATOM     26  P   UNL     1      36.445 -25.722 -14.983  0.00  0.00    +0.511 P 
ATOM     27  O   UNL     1      36.309 -26.857 -15.974  0.00  0.00    -0.116 OA
ATOM     28  O   UNL     1      37.172 -25.921 -13.672  0.00  0.00    -0.225 OA
BRANCH  26  29
ATOM     29  O   UNL     1      37.101 -24.440 -15.751  0.00  0.00    -0.301 OA
ATOM     30  H   UNL     1      38.068 -24.512 -15.732  0.00  0.00    +0.222 HD
ENDBRANCH  26  29
ENDBRANCH  25  26
ENDBRANCH  21  25
ENDBRANCH  20  21
ENDBRANCH  19  20
ENDBRANCH  18  19
ENDBRANCH   4  18
TORSDOF 11
ENDMDL
MODEL 7
REMARK VINA RESULT:      -9.0      2.148      3.187
REMARK  Name = 5180213
REMARK  11 active torsions:
REMARK  status: ('A' for Active; 'I' for Inactive)
REMARK    1  A    between atoms: N_2  and  C_7
REMARK    2  A    between atoms: C_4  and  C_18
REMARK    3  A    between atoms: C_7  and  C_9
REMARK    4  A    between atoms: C_10  and  N_15
REMARK    5  A    between atoms: C_18  and  C_19
REMARK    6  A    between atoms: C_19  and  O_20
REMARK    7  A    between atoms: O_20  and  P_21
REMARK    8  A    between atoms: P_21  and  O_23
REMARK    9  A    between atoms: P_21  and  O_25
REMARK   10  A    between atoms: O_25  and  P_26
REMARK   11  A    between atoms: P_26  and  O_29
REMARK                            x       y       z     vdW  Elec       q    Type
REMARK                         _______ _______ _______ _____ _____    ______ ____
ROOT
ATOM      1  S   UNL     1      33.221 -23.175 -17.652  0.00  0.00    -0.095 S 
ATOM      2  N   UNL     1      35.069 -22.182 -19.024  0.00  0.00    -0.297 N 
ATOM      3  C   UNL     1      35.582 -22.240 -17.747  0.00  0.00    +0.028 C 
ATOM      4  C   UNL     1      34.683 -22.762 -16.882  0.00  0.00    +0.016 C 
ATOM      5  C   UNL     1      33.840 -22.633 -19.152  0.00  0.00    +0.154 C 
ATOM      6  C   UNL     1      36.951 -21.752 -17.523  0.00  0.00    +0.047 C 
ENDROOT
BRANCH   2   7
ATOM      7  C   UNL     1      35.803 -21.670 -20.156  0.00  0.00    +0.121 C 
BRANCH   7   9
ATOM      8  N   UNL     1      33.374 -18.889 -20.874  0.00  0.00    -0.248 NA
ATOM      9  C   UNL     1      35.286 -20.303 -20.517  0.00  0.00    +0.030 C 
ATOM     10  C   UNL     1      36.144 -19.258 -20.809  0.00  0.00    +0.042 C 
ATOM     11  C   UNL     1      33.926 -20.082 -20.560  0.00  0.00    +0.097 C 
ATOM     12  C   UNL     1      35.613 -18.016 -21.137  0.00  0.00    +0.029 C 
ATOM     13  C   UNL     1      34.234 -17.884 -21.155  0.00  0.00    +0.061 C 
ATOM     14  C   UNL     1      33.629 -16.565 -21.502  0.00  0.00    +0.052 C 
BRANCH  10  15
ATOM     15  N   UNL     1      37.544 -19.428 -20.780  0.00  0.00    -0.357 N 
ATOM     16  H   UNL     1      38.079 -18.996 -20.075  0.00  0.00    +0.142 HD
ATOM     17  H   UNL     1      37.987 -19.979 -21.466  0.00  0.00    +0.142 HD
ENDBRANCH  10  15
ENDBRANCH   7   9
ENDBRANCH   2   7
BRANCH   4  18
ATOM     18  C   UNL     1      34.826 -23.004 -15.398  0.00  0.00    +0.066 C 
BRANCH  18  19
ATOM     19  C   UNL     1      35.520 -24.330 -15.097  0.00  0.00    +0.159 C 
BRANCH  19  20
ATOM     20  O   UNL     1      36.551 -24.153 -14.142  0.00  0.00    -0.273 OA
BRANCH  20  21
ATOM     21  P   UNL     1      37.146 -25.431 -13.349  0.00  0.00    +0.484 P 
ATOM     22  O   UNL     1      38.645 -25.485 -13.274  0.00  0.00    -0.227 OA
BRANCH  21  23
ATOM     23  O   UNL     1      36.469 -26.708 -14.075  0.00  0.00    -0.302 OA
ATOM     24  H   UNL     1      36.732 -27.520 -13.614  0.00  0.00    +0.222 HD
ENDBRANCH  21  23
BRANCH  21  25
ATOM     25  O   UNL     1      36.413 -25.393 -11.908  0.00  0.00    -0.185 OA
BRANCH  25  26
ATOM     26  P   UNL     1      35.957 -24.128 -10.986  0.00  0.00    +0.511 P 
ATOM     27  O   UNL     1      37.067 -23.101 -10.965  0.00  0.00    -0.116 OA
ATOM     28  O   UNL     1      35.361 -24.651  -9.698  0.00  0.00    -0.225 OA
BRANCH  26  29
ATOM     29  O   UNL     1      34.746 -23.563 -11.924  0.00  0.00    -0.301 OA
ATOM     30  H   UNL     1      34.097 -24.269 -12.073  0.00  0.00    +0.222 HD
ENDBRANCH  26  29
ENDBRANCH  25  26
ENDBRANCH  21  25
ENDBRANCH  20  21
ENDBRANCH  19  20
ENDBRANCH  18  19
ENDBRANCH   4  18
TORSDOF 11
ENDMDL
MODEL 8
REMARK VINA RESULT:      -8.9     10.527     12.435
REMARK  Name = 5180213
REMARK  11 active torsions:
REMARK  status: ('A' for Active; 'I' for Inactive)
REMARK    1  A    between atoms: N_2  and  C_7
REMARK    2  A    between atoms: C_4  and  C_18
REMARK    3  A    between atoms: C_7  and  C_9
REMARK    4  A    between atoms: C_10  and  N_15
REMARK    5  A    between atoms: C_18  and  C_19
REMARK    6  A    between atoms: C_19  and  O_20
REMARK    7  A    between atoms: O_20  and  P_21
REMARK    8  A    between atoms: P_21  and  O_23
REMARK    9  A    between atoms: P_21  and  O_25
REMARK   10  A    between atoms: O_25  and  P_26
REMARK   11  A    between atoms: P_26  and  O_29
REMARK                            x       y       z     vdW  Elec       q    Type
REMARK                         _______ _______ _______ _____ _____    ______ ____
ROOT
ATOM      1  S   UNL     1      34.372 -15.080 -20.976  0.00  0.00    -0.095 S 
ATOM      2  N   UNL     1      35.048 -17.143 -22.228  0.00  0.00    -0.297 N 
ATOM      3  C   UNL     1      34.675 -16.252 -23.210  0.00  0.00    +0.028 C 
ATOM      4  C   UNL     1      34.279 -15.074 -22.677  0.00  0.00    +0.016 C 
ATOM      5  C   UNL     1      34.951 -16.690 -20.997  0.00  0.00    +0.154 C 
ATOM      6  C   UNL     1      34.755 -16.687 -24.613  0.00  0.00    +0.047 C 
ENDROOT
BRANCH   2   7
ATOM      7  C   UNL     1      35.516 -18.481 -22.501  0.00  0.00    +0.121 C 
BRANCH   7   9
ATOM      8  N   UNL     1      32.964 -20.513 -20.629  0.00  0.00    -0.248 NA
ATOM      9  C   UNL     1      34.932 -19.436 -21.496  0.00  0.00    +0.030 C 
ATOM     10  C   UNL     1      35.726 -20.086 -20.568  0.00  0.00    +0.042 C 
ATOM     11  C   UNL     1      33.574 -19.673 -21.494  0.00  0.00    +0.097 C 
ATOM     12  C   UNL     1      35.134 -20.958 -19.661  0.00  0.00    +0.029 C 
ATOM     13  C   UNL     1      33.761 -21.136 -19.732  0.00  0.00    +0.061 C 
ATOM     14  C   UNL     1      33.093 -22.065 -18.776  0.00  0.00    +0.052 C 
BRANCH  10  15
ATOM     15  N   UNL     1      37.121 -19.882 -20.524  0.00  0.00    -0.357 N 
ATOM     16  H   UNL     1      37.688 -20.472 -19.977  0.00  0.00    +0.142 HD
ATOM     17  H   UNL     1      37.527 -19.149 -21.041  0.00  0.00    +0.142 HD
ENDBRANCH  10  15
ENDBRANCH   7   9
ENDBRANCH   2   7
BRANCH   4  18
ATOM     18  C   UNL     1      33.792 -13.831 -23.382  0.00  0.00    +0.066 C 
BRANCH  18  19
ATOM     19  C   UNL     1      32.431 -13.374 -22.866  0.00  0.00    +0.159 C 
BRANCH  19  20
ATOM     20  O   UNL     1      32.456 -11.998 -22.530  0.00  0.00    -0.273 OA
BRANCH  20  21
ATOM     21  P   UNL     1      31.655 -11.469 -21.227  0.00  0.00    +0.484 P 
ATOM     22  O   UNL     1      31.909 -12.250 -19.971  0.00  0.00    -0.227 OA
BRANCH  21  23
ATOM     23  O   UNL     1      30.106 -11.439 -21.691  0.00  0.00    -0.302 OA
ATOM     24  H   UNL     1      29.682 -12.280 -21.458  0.00  0.00    +0.222 HD
ENDBRANCH  21  23
BRANCH  21  25
ATOM     25  O   UNL     1      32.041  -9.902 -21.121  0.00  0.00    -0.185 OA
BRANCH  25  26
ATOM     26  P   UNL     1      32.137  -8.755 -22.276  0.00  0.00    +0.511 P 
ATOM     27  O   UNL     1      32.455  -7.425 -21.631  0.00  0.00    -0.116 OA
ATOM     28  O   UNL     1      30.956  -8.901 -23.210  0.00  0.00    -0.225 OA
BRANCH  26  29
ATOM     29  O   UNL     1      33.474  -9.292 -23.045  0.00  0.00    -0.301 OA
ATOM     30  H   UNL     1      33.880 -10.004 -22.527  0.00  0.00    +0.222 HD
ENDBRANCH  26  29
ENDBRANCH  25  26
ENDBRANCH  21  25
ENDBRANCH  20  21
ENDBRANCH  19  20
ENDBRANCH  18  19
ENDBRANCH   4  18
TORSDOF 11
ENDMDL
MODEL 9
REMARK VINA RESULT:      -8.9     10.855     12.786
REMARK  Name = 5180213
REMARK  11 active torsions:
REMARK  status: ('A' for Active; 'I' for Inactive)
REMARK    1  A    between atoms: N_2  and  C_7
REMARK    2  A    between atoms: C_4  and  C_18
REMARK    3  A    between atoms: C_7  and  C_9
REMARK    4  A    between atoms: C_10  and  N_15
REMARK    5  A    between atoms: C_18  and  C_19
REMARK    6  A    between atoms: C_19  and  O_20
REMARK    7  A    between atoms: O_20  and  P_21
REMARK    8  A    between atoms: P_21  and  O_23
REMARK    9  A    between atoms: P_21  and  O_25
REMARK   10  A    between atoms: O_25  and  P_26
REMARK   11  A    between atoms: P_26  and  O_29
REMARK                            x       y       z     vdW  Elec       q    Type
REMARK                         _______ _______ _______ _____ _____    ______ ____
ROOT
ATOM      1  S   UNL     1      33.914 -14.977 -21.391  0.00  0.00    -0.095 S 
ATOM      2  N   UNL     1      35.021 -17.027 -22.314  0.00  0.00    -0.297 N 
ATOM      3  C   UNL     1      34.474 -16.406 -23.416  0.00  0.00    +0.028 C 
ATOM      4  C   UNL     1      33.833 -15.267 -23.067  0.00  0.00    +0.016 C 
ATOM      5  C   UNL     1      34.822 -16.410 -21.170  0.00  0.00    +0.154 C 
ATOM      6  C   UNL     1      34.654 -17.036 -24.733  0.00  0.00    +0.047 C 
ENDROOT
BRANCH   2   7
ATOM      7  C   UNL     1      35.765 -18.262 -22.383  0.00  0.00    +0.121 C 
BRANCH   7   9
ATOM      8  N   UNL     1      33.155 -20.390 -20.706  0.00  0.00    -0.248 NA
ATOM      9  C   UNL     1      35.150 -19.274 -21.454  0.00  0.00    +0.030 C 
ATOM     10  C   UNL     1      35.917 -19.985 -20.548  0.00  0.00    +0.042 C 
ATOM     11  C   UNL     1      33.791 -19.501 -21.501  0.00  0.00    +0.097 C 
ATOM     12  C   UNL     1      35.298 -20.908 -19.713  0.00  0.00    +0.029 C 
ATOM     13  C   UNL     1      33.927 -21.072 -19.830  0.00  0.00    +0.061 C 
ATOM     14  C   UNL     1      33.230 -22.055 -18.950  0.00  0.00    +0.052 C 
BRANCH  10  15
ATOM     15  N   UNL     1      37.311 -19.792 -20.456  0.00  0.00    -0.357 N 
ATOM     16  H   UNL     1      37.915 -20.569 -20.420  0.00  0.00    +0.142 HD
ATOM     17  H   UNL     1      37.681 -18.880 -20.428  0.00  0.00    +0.142 HD
ENDBRANCH  10  15
ENDBRANCH   7   9
ENDBRANCH   2   7
BRANCH   4  18
ATOM     18  C   UNL     1      33.098 -14.286 -23.949  0.00  0.00    +0.066 C 
BRANCH  18  19
ATOM     19  C   UNL     1      32.768 -12.990 -23.213  0.00  0.00    +0.159 C 
BRANCH  19  20
ATOM     20  O   UNL     1      33.864 -12.094 -23.259  0.00  0.00    -0.273 OA
BRANCH  20  21
ATOM     21  P   UNL     1      33.946 -10.976 -24.426  0.00  0.00    +0.484 P 
ATOM     22  O   UNL     1      33.998 -11.525 -25.822  0.00  0.00    -0.227 OA
BRANCH  21  23
ATOM     23  O   UNL     1      35.218 -10.062 -24.021  0.00  0.00    -0.302 OA
ATOM     24  H   UNL     1      34.918  -9.162 -23.816  0.00  0.00    +0.222 HD
ENDBRANCH  21  23
BRANCH  21  25
ATOM     25  O   UNL     1      32.686 -10.002 -24.145  0.00  0.00    -0.185 OA
BRANCH  25  26
ATOM     26  P   UNL     1      32.445  -8.892 -22.974  0.00  0.00    +0.511 P 
ATOM     27  O   UNL     1      31.140  -8.173 -23.230  0.00  0.00    -0.116 OA
ATOM     28  O   UNL     1      33.728  -8.119 -22.763  0.00  0.00    -0.225 OA
BRANCH  26  29
ATOM     29  O   UNL     1      32.239  -9.907 -21.712  0.00  0.00    -0.301 OA
ATOM     30  H   UNL     1      31.725  -9.462 -21.020  0.00  0.00    +0.222 HD
ENDBRANCH  26  29
ENDBRANCH  25  26
ENDBRANCH  21  25
ENDBRANCH  20  21
ENDBRANCH  19  20
ENDBRANCH  18  19
ENDBRANCH   4  18
TORSDOF 11
ENDMDL
