MODEL 1
REMARK VINA RESULT:      -8.6      0.000      0.000
REMARK  Name = 2196
REMARK  2 active torsions:
REMARK  status: ('A' for Active; 'I' for Inactive)
REMARK    1  A    between atoms: C_8  and  C_9
REMARK    2  A    between atoms: C_14  and  O_15
REMARK                            x       y       z     vdW  Elec       q    Type
REMARK                         _______ _______ _______ _____ _____    ______ ____
ROOT
ATOM      1  O   UNL     1      34.580 -19.549 -23.832  0.00  0.00    -0.274 OA
ATOM      2  O   UNL     1      34.854 -16.453 -20.840  0.00  0.00    -0.269 OA
ATOM      3  N   UNL     1      34.718 -17.312 -23.009  0.00  0.00    -0.226 N 
ATOM      4  C   UNL     1      34.378 -16.224 -25.048  0.00  0.00    +0.032 C 
ATOM      5  C   UNL     1      34.918 -16.027 -23.650  0.00  0.00    +0.102 C 
ATOM      6  C   UNL     1      34.716 -17.673 -25.347  0.00  0.00    +0.087 C 
ATOM      7  C   UNL     1      34.640 -18.339 -23.991  0.00  0.00    +0.232 C 
ATOM      8  C   UNL     1      34.789 -17.410 -21.609  0.00  0.00    +0.255 C 
ENDROOT
BRANCH   8   9
ATOM      9  C   UNL     1      34.819 -18.760 -21.022  0.00  0.00    +0.054 C 
ATOM     10  C   UNL     1      36.040 -19.377 -20.764  0.00  0.00    +0.008 C 
ATOM     11  C   UNL     1      33.625 -19.413 -20.728  0.00  0.00    +0.008 C 
ATOM     12  C   UNL     1      36.067 -20.656 -20.208  0.00  0.00    +0.037 C 
ATOM     13  C   UNL     1      33.652 -20.693 -20.172  0.00  0.00    +0.037 C 
ATOM     14  C   UNL     1      34.873 -21.314 -19.912  0.00  0.00    +0.139 C 
BRANCH  14  15
ATOM     15  O   UNL     1      34.901 -22.561 -19.369  0.00  0.00    -0.471 OA
ATOM     16  C   UNL     1      33.854 -22.898 -18.459  0.00  0.00    +0.252 C 
ENDBRANCH  14  15
ENDBRANCH   8   9
TORSDOF 2
ENDMDL
MODEL 2
REMARK VINA RESULT:      -8.5      2.014      5.663
REMARK  Name = 2196
REMARK  2 active torsions:
REMARK  status: ('A' for Active; 'I' for Inactive)
REMARK    1  A    between atoms: C_8  and  C_9
REMARK    2  A    between atoms: C_14  and  O_15
REMARK                            x       y       z     vdW  Elec       q    Type
REMARK                         _______ _______ _______ _____ _____    ______ ____
ROOT
ATOM      1  O   UNL     1      33.040 -19.696 -21.088  0.00  0.00    -0.274 OA
ATOM      2  O   UNL     1      37.333 -19.378 -20.807  0.00  0.00    -0.269 OA
ATOM      3  N   UNL     1      35.232 -20.292 -20.351  0.00  0.00    -0.226 N 
ATOM      4  C   UNL     1      34.648 -22.269 -19.253  0.00  0.00    +0.032 C 
ATOM      5  C   UNL     1      35.726 -21.215 -19.349  0.00  0.00    +0.102 C 
ATOM      6  C   UNL     1      33.373 -21.482 -19.497  0.00  0.00    +0.087 C 
ATOM      7  C   UNL     1      33.814 -20.383 -20.438  0.00  0.00    +0.232 C 
ATOM      8  C   UNL     1      36.112 -19.372 -20.946  0.00  0.00    +0.255 C 
ENDROOT
BRANCH   8   9
ATOM      9  C   UNL     1      35.525 -18.305 -21.773  0.00  0.00    +0.054 C 
ATOM     10  C   UNL     1      35.414 -18.477 -23.150  0.00  0.00    +0.008 C 
ATOM     11  C   UNL     1      35.082 -17.129 -21.174  0.00  0.00    +0.008 C 
ATOM     12  C   UNL     1      34.857 -17.466 -23.933  0.00  0.00    +0.037 C 
ATOM     13  C   UNL     1      34.525 -16.117 -21.957  0.00  0.00    +0.037 C 
ATOM     14  C   UNL     1      34.413 -16.287 -23.337  0.00  0.00    +0.139 C 
BRANCH  14  15
ATOM     15  O   UNL     1      33.869 -15.301 -24.101  0.00  0.00    -0.471 OA
ATOM     16  C   UNL     1      33.626 -15.602 -25.475  0.00  0.00    +0.252 C 
ENDBRANCH  14  15
ENDBRANCH   8   9
TORSDOF 2
ENDMDL
MODEL 3
REMARK VINA RESULT:      -8.3      2.163      5.797
REMARK  Name = 2196
REMARK  2 active torsions:
REMARK  status: ('A' for Active; 'I' for Inactive)
REMARK    1  A    between atoms: C_8  and  C_9
REMARK    2  A    between atoms: C_14  and  O_15
REMARK                            x       y       z     vdW  Elec       q    Type
REMARK                         _______ _______ _______ _____ _____    ______ ____
ROOT
ATOM      1  O   UNL     1      36.643 -19.567 -20.178  0.00  0.00    -0.274 OA
ATOM      2  O   UNL     1      32.485 -20.539 -20.791  0.00  0.00    -0.269 OA
ATOM      3  N   UNL     1      34.630 -20.824 -19.911  0.00  0.00    -0.226 N 
ATOM      4  C   UNL     1      35.404 -22.273 -18.250  0.00  0.00    +0.032 C 
ATOM      5  C   UNL     1      34.332 -22.105 -19.302  0.00  0.00    +0.102 C 
ATOM      6  C   UNL     1      36.612 -21.602 -18.878  0.00  0.00    +0.087 C 
ATOM      7  C   UNL     1      36.005 -20.504 -19.723  0.00  0.00    +0.232 C 
ATOM      8  C   UNL     1      33.657 -20.182 -20.695  0.00  0.00    +0.255 C 
ENDROOT
BRANCH   8   9
ATOM      9  C   UNL     1      34.080 -19.012 -21.482  0.00  0.00    +0.054 C 
ATOM     10  C   UNL     1      34.614 -19.190 -22.756  0.00  0.00    +0.008 C 
ATOM     11  C   UNL     1      33.944 -17.733 -20.949  0.00  0.00    +0.008 C 
ATOM     12  C   UNL     1      35.015 -18.081 -23.501  0.00  0.00    +0.037 C 
ATOM     13  C   UNL     1      34.346 -16.624 -21.694  0.00  0.00    +0.037 C 
ATOM     14  C   UNL     1      34.881 -16.798 -22.970  0.00  0.00    +0.139 C 
BRANCH  14  15
ATOM     15  O   UNL     1      35.272 -15.717 -23.698  0.00  0.00    -0.471 OA
ATOM     16  C   UNL     1      34.349 -14.633 -23.799  0.00  0.00    +0.252 C 
ENDBRANCH  14  15
ENDBRANCH   8   9
TORSDOF 2
ENDMDL
MODEL 4
REMARK VINA RESULT:      -8.3      1.253      2.729
REMARK  Name = 2196
REMARK  2 active torsions:
REMARK  status: ('A' for Active; 'I' for Inactive)
REMARK    1  A    between atoms: C_8  and  C_9
REMARK    2  A    between atoms: C_14  and  O_15
REMARK                            x       y       z     vdW  Elec       q    Type
REMARK                         _______ _______ _______ _____ _____    ______ ____
ROOT
ATOM      1  O   UNL     1      34.913 -16.647 -20.243  0.00  0.00    -0.274 OA
ATOM      2  O   UNL     1      34.590 -18.637 -24.057  0.00  0.00    -0.269 OA
ATOM      3  N   UNL     1      34.579 -16.809 -22.602  0.00  0.00    -0.226 N 
ATOM      4  C   UNL     1      34.526 -14.518 -23.053  0.00  0.00    +0.032 C 
ATOM      5  C   UNL     1      34.136 -15.866 -23.610  0.00  0.00    +0.102 C 
ATOM      6  C   UNL     1      34.351 -14.699 -21.556  0.00  0.00    +0.087 C 
ATOM      7  C   UNL     1      34.675 -16.160 -21.338  0.00  0.00    +0.232 C 
ATOM      8  C   UNL     1      34.689 -18.173 -22.923  0.00  0.00    +0.255 C 
ENDROOT
BRANCH   8   9
ATOM      9  C   UNL     1      34.909 -19.117 -21.815  0.00  0.00    +0.054 C 
ATOM     10  C   UNL     1      33.822 -19.753 -21.221  0.00  0.00    +0.008 C 
ATOM     11  C   UNL     1      36.203 -19.370 -21.367  0.00  0.00    +0.008 C 
ATOM     12  C   UNL     1      34.031 -20.648 -20.172  0.00  0.00    +0.037 C 
ATOM     13  C   UNL     1      36.411 -20.265 -20.317  0.00  0.00    +0.037 C 
ATOM     14  C   UNL     1      35.325 -20.904 -19.720  0.00  0.00    +0.139 C 
BRANCH  14  15
ATOM     15  O   UNL     1      35.528 -21.777 -18.696  0.00  0.00    -0.471 OA
ATOM     16  C   UNL     1      36.748 -21.652 -17.967  0.00  0.00    +0.252 C 
ENDBRANCH  14  15
ENDBRANCH   8   9
TORSDOF 2
ENDMDL
MODEL 5
REMARK VINA RESULT:      -8.0      1.466      2.588
REMARK  Name = 2196
REMARK  2 active torsions:
REMARK  status: ('A' for Active; 'I' for Inactive)
REMARK    1  A    between atoms: C_8  and  C_9
REMARK    2  A    between atoms: C_14  and  O_15
REMARK                            x       y       z     vdW  Elec       q    Type
REMARK                         _______ _______ _______ _____ _____    ______ ____
ROOT
ATOM      1  O   UNL     1      34.684 -15.979 -21.100  0.00  0.00    -0.274 OA
ATOM      2  O   UNL     1      34.806 -18.221 -24.783  0.00  0.00    -0.269 OA
ATOM      3  N   UNL     1      34.413 -16.348 -23.444  0.00  0.00    -0.226 N 
ATOM      4  C   UNL     1      33.906 -14.145 -24.034  0.00  0.00    +0.032 C 
ATOM      5  C   UNL     1      33.800 -15.576 -24.507  0.00  0.00    +0.102 C 
ATOM      6  C   UNL     1      33.755 -14.267 -22.529  0.00  0.00    +0.087 C 
ATOM      7  C   UNL     1      34.363 -15.617 -22.222  0.00  0.00    +0.232 C 
ATOM      8  C   UNL     1      34.798 -17.678 -23.681  0.00  0.00    +0.255 C 
ENDROOT
BRANCH   8   9
ATOM      9  C   UNL     1      35.191 -18.490 -22.517  0.00  0.00    +0.054 C 
ATOM     10  C   UNL     1      36.517 -18.496 -22.093  0.00  0.00    +0.008 C 
ATOM     11  C   UNL     1      34.235 -19.249 -21.847  0.00  0.00    +0.008 C 
ATOM     12  C   UNL     1      36.890 -19.265 -20.990  0.00  0.00    +0.037 C 
ATOM     13  C   UNL     1      34.608 -20.019 -20.745  0.00  0.00    +0.037 C 
ATOM     14  C   UNL     1      35.935 -20.026 -20.317  0.00  0.00    +0.139 C 
BRANCH  14  15
ATOM     15  O   UNL     1      36.299 -20.776 -19.241  0.00  0.00    -0.471 OA
ATOM     16  C   UNL     1      35.521 -21.940 -18.967  0.00  0.00    +0.252 C 
ENDBRANCH  14  15
ENDBRANCH   8   9
TORSDOF 2
ENDMDL
MODEL 6
REMARK VINA RESULT:      -8.0      9.284     12.550
REMARK  Name = 2196
REMARK  2 active torsions:
REMARK  status: ('A' for Active; 'I' for Inactive)
REMARK    1  A    between atoms: C_8  and  C_9
REMARK    2  A    between atoms: C_14  and  O_15
REMARK                            x       y       z     vdW  Elec       q    Type
REMARK                         _______ _______ _______ _____ _____    ______ ____
ROOT
ATOM      1  O   UNL     1      31.650  -9.963 -22.865  0.00  0.00    -0.274 OA
ATOM      2  O   UNL     1      32.948  -7.341 -19.694  0.00  0.00    -0.269 OA
ATOM      3  N   UNL     1      32.057  -9.298 -20.608  0.00  0.00    -0.226 N 
ATOM      4  C   UNL     1      31.554 -11.345 -19.601  0.00  0.00    +0.032 C 
ATOM      5  C   UNL     1      31.696  -9.867 -19.324  0.00  0.00    +0.102 C 
ATOM      6  C   UNL     1      31.010 -11.381 -21.018  0.00  0.00    +0.087 C 
ATOM      7  C   UNL     1      31.619 -10.153 -21.659  0.00  0.00    +0.232 C 
ATOM      8  C   UNL     1      32.597  -8.002 -20.669  0.00  0.00    +0.255 C 
ENDROOT
BRANCH   8   9
ATOM      9  C   UNL     1      32.723  -7.380 -21.997  0.00  0.00    +0.054 C 
ATOM     10  C   UNL     1      33.878  -7.580 -22.749  0.00  0.00    +0.008 C 
ATOM     11  C   UNL     1      31.688  -6.594 -22.495  0.00  0.00    +0.008 C 
ATOM     12  C   UNL     1      33.997  -6.991 -24.008  0.00  0.00    +0.037 C 
ATOM     13  C   UNL     1      31.807  -6.003 -23.753  0.00  0.00    +0.037 C 
ATOM     14  C   UNL     1      32.962  -6.203 -24.509  0.00  0.00    +0.139 C 
BRANCH  14  15
ATOM     15  O   UNL     1      33.079  -5.628 -25.737  0.00  0.00    -0.471 OA
ATOM     16  C   UNL     1      32.515  -4.328 -25.903  0.00  0.00    +0.252 C 
ENDBRANCH  14  15
ENDBRANCH   8   9
TORSDOF 2
ENDMDL
MODEL 7
REMARK VINA RESULT:      -7.7      8.218      9.910
REMARK  Name = 2196
REMARK  2 active torsions:
REMARK  status: ('A' for Active; 'I' for Inactive)
REMARK    1  A    between atoms: C_8  and  C_9
REMARK    2  A    between atoms: C_14  and  O_15
REMARK                            x       y       z     vdW  Elec       q    Type
REMARK                         _______ _______ _______ _____ _____    ______ ____
ROOT
ATOM      1  O   UNL     1      32.378 -23.168 -16.693  0.00  0.00    -0.274 OA
ATOM      2  O   UNL     1      30.775 -24.386 -12.877  0.00  0.00    -0.269 OA
ATOM      3  N   UNL     1      32.460 -23.907 -14.423  0.00  0.00    -0.226 N 
ATOM      4  C   UNL     1      34.770 -23.721 -14.133  0.00  0.00    +0.032 C 
ATOM      5  C   UNL     1      33.532 -24.378 -13.570  0.00  0.00    +0.102 C 
ATOM      6  C   UNL     1      34.485 -23.669 -15.623  0.00  0.00    +0.087 C 
ATOM      7  C   UNL     1      32.982 -23.516 -15.689  0.00  0.00    +0.232 C 
ATOM      8  C   UNL     1      31.125 -24.038 -14.003  0.00  0.00    +0.255 C 
ENDROOT
BRANCH   8   9
ATOM      9  C   UNL     1      30.070 -23.769 -14.994  0.00  0.00    +0.054 C 
ATOM     10  C   UNL     1      29.601 -24.799 -15.804  0.00  0.00    +0.008 C 
ATOM     11  C   UNL     1      29.546 -22.485 -15.115  0.00  0.00    +0.008 C 
ATOM     12  C   UNL     1      28.601 -24.544 -16.742  0.00  0.00    +0.037 C 
ATOM     13  C   UNL     1      28.546 -22.229 -16.054  0.00  0.00    +0.037 C 
ATOM     14  C   UNL     1      28.074 -23.259 -16.867  0.00  0.00    +0.139 C 
BRANCH  14  15
ATOM     15  O   UNL     1      27.098 -23.010 -17.783  0.00  0.00    -0.471 OA
ATOM     16  C   UNL     1      26.489 -21.720 -17.749  0.00  0.00    +0.252 C 
ENDBRANCH  14  15
ENDBRANCH   8   9
TORSDOF 2
ENDMDL
MODEL 8
REMARK VINA RESULT:      -7.4      7.205      9.104
REMARK  Name = 2196
REMARK  2 active torsions:
REMARK  status: ('A' for Active; 'I' for Inactive)
REMARK    1  A    between atoms: C_8  and  C_9
REMARK    2  A    between atoms: C_14  and  O_15
REMARK                            x       y       z     vdW  Elec       q    Type
REMARK                         _______ _______ _______ _____ _____    ______ ____
ROOT
ATOM      1  O   UNL     1      34.582 -23.414 -17.032  0.00  0.00    -0.274 OA
ATOM      2  O   UNL     1      33.465 -24.407 -12.985  0.00  0.00    -0.269 OA
ATOM      3  N   UNL     1      33.101 -23.691 -15.179  0.00  0.00    -0.226 N 
ATOM      4  C   UNL     1      31.108 -23.298 -16.331  0.00  0.00    +0.032 C 
ATOM      5  C   UNL     1      31.718 -23.324 -14.949  0.00  0.00    +0.102 C 
ATOM      6  C   UNL     1      32.250 -22.810 -17.203  0.00  0.00    +0.087 C 
ATOM      7  C   UNL     1      33.479 -23.353 -16.509  0.00  0.00    +0.232 C 
ATOM      8  C   UNL     1      33.891 -24.139 -14.106  0.00  0.00    +0.255 C 
ENDROOT
BRANCH   8   9
ATOM      9  C   UNL     1      35.339 -24.269 -14.335  0.00  0.00    +0.054 C 
ATOM     10  C   UNL     1      36.178 -23.181 -14.106  0.00  0.00    +0.008 C 
ATOM     11  C   UNL     1      35.864 -25.480 -14.779  0.00  0.00    +0.008 C 
ATOM     12  C   UNL     1      37.550 -23.305 -14.323  0.00  0.00    +0.037 C 
ATOM     13  C   UNL     1      37.237 -25.604 -14.997  0.00  0.00    +0.037 C 
ATOM     14  C   UNL     1      38.079 -24.516 -14.768  0.00  0.00    +0.139 C 
BRANCH  14  15
ATOM     15  O   UNL     1      39.418 -24.636 -14.980  0.00  0.00    -0.471 OA
ATOM     16  C   UNL     1      40.085 -25.714 -14.325  0.00  0.00    +0.252 C 
ENDBRANCH  14  15
ENDBRANCH   8   9
TORSDOF 2
ENDMDL
MODEL 9
REMARK VINA RESULT:      -7.3      7.790      9.448
REMARK  Name = 2196
REMARK  2 active torsions:
REMARK  status: ('A' for Active; 'I' for Inactive)
REMARK    1  A    between atoms: C_8  and  C_9
REMARK    2  A    between atoms: C_14  and  O_15
REMARK                            x       y       z     vdW  Elec       q    Type
REMARK                         _______ _______ _______ _____ _____    ______ ____
ROOT
ATOM      1  O   UNL     1      33.469 -23.861 -13.070  0.00  0.00    -0.274 OA
ATOM      2  O   UNL     1      34.040 -23.475 -17.329  0.00  0.00    -0.269 OA
ATOM      3  N   UNL     1      32.810 -23.544 -15.343  0.00  0.00    -0.226 N 
ATOM      4  C   UNL     1      30.569 -23.028 -14.934  0.00  0.00    +0.032 C 
ATOM      5  C   UNL     1      31.522 -23.497 -16.008  0.00  0.00    +0.102 C 
ATOM      6  C   UNL     1      31.139 -23.648 -13.671  0.00  0.00    +0.087 C 
ATOM      7  C   UNL     1      32.627 -23.685 -13.938  0.00  0.00    +0.232 C 
ATOM      8  C   UNL     1      33.987 -23.612 -16.109  0.00  0.00    +0.255 C 
ENDROOT
BRANCH   8   9
ATOM      9  C   UNL     1      35.245 -23.898 -15.398  0.00  0.00    +0.054 C 
ATOM     10  C   UNL     1      35.611 -25.216 -15.142  0.00  0.00    +0.008 C 
ATOM     11  C   UNL     1      36.062 -22.848 -14.987  0.00  0.00    +0.008 C 
ATOM     12  C   UNL     1      36.803 -25.487 -14.469  0.00  0.00    +0.037 C 
ATOM     13  C   UNL     1      37.253 -23.118 -14.314  0.00  0.00    +0.037 C 
ATOM     14  C   UNL     1      37.624 -24.438 -14.055  0.00  0.00    +0.139 C 
BRANCH  14  15
ATOM     15  O   UNL     1      38.786 -24.702 -13.399  0.00  0.00    -0.471 OA
ATOM     16  C   UNL     1      39.760 -25.482 -14.091  0.00  0.00    +0.252 C 
ENDBRANCH  14  15
ENDBRANCH   8   9
TORSDOF 2
ENDMDL
