MODEL 1
REMARK VINA RESULT:     -10.4      0.000      0.000
REMARK  Name = 24905153
REMARK  4 active torsions:
REMARK  status: ('A' for Active; 'I' for Inactive)
REMARK    1  A    between atoms: N_1  and  C_20
REMARK    2  A    between atoms: C_7  and  C_10
REMARK    3  A    between atoms: C_13  and  O_16
REMARK    4  A    between atoms: C_15  and  O_18
REMARK                            x       y       z     vdW  Elec       q    Type
REMARK                         _______ _______ _______ _____ _____    ______ ____
ROOT
ATOM      1  N   UNL     1      33.993 -15.882 -21.966  0.00  0.00    -0.200 N 
ATOM      2  N   UNL     1      33.936 -16.835 -21.018  0.00  0.00    -0.181 NA
ATOM      3  N   UNL     1      34.394 -15.654 -24.342  0.00  0.00    -0.232 NA
ATOM      4  N   UNL     1      34.842 -17.810 -25.391  0.00  0.00    -0.234 NA
ATOM      5  C   UNL     1      34.275 -16.363 -23.209  0.00  0.00    +0.137 C 
ATOM      6  C   UNL     1      34.413 -17.733 -23.065  0.00  0.00    +0.150 C 
ATOM      7  C   UNL     1      34.193 -17.961 -21.693  0.00  0.00    +0.090 C 
ATOM      8  C   UNL     1      34.708 -18.462 -24.212  0.00  0.00    +0.112 C 
ATOM      9  C   UNL     1      34.680 -16.466 -25.384  0.00  0.00    +0.252 C 
ATOM     10  N   UNL     1      34.865 -19.860 -24.169  0.00  0.00    -0.346 N 
ATOM     11  H   UNL     1      35.073 -20.358 -24.992  0.00  0.00    +0.143 HD
ATOM     12  H   UNL     1      34.767 -20.340 -23.314  0.00  0.00    +0.143 HD
ENDROOT
BRANCH   7  13
ATOM     13  C   UNL     1      34.219 -19.223 -20.999  0.00  0.00    +0.019 C 
ATOM     14  C   UNL     1      35.432 -19.753 -20.560  0.00  0.00    +0.041 C 
ATOM     15  C   UNL     1      33.031 -19.916 -20.765  0.00  0.00    +0.005 C 
ATOM     16  C   UNL     1      35.458 -20.974 -19.888  0.00  0.00    +0.172 C 
ATOM     17  C   UNL     1      33.056 -21.138 -20.093  0.00  0.00    +0.040 C 
ATOM     18  C   UNL     1      34.270 -21.667 -19.654  0.00  0.00    +0.172 C 
BRANCH  16  19
ATOM     19  O   UNL     1      36.650 -21.482 -19.465  0.00  0.00    -0.468 OA
ATOM     20  C   UNL     1      36.876 -21.518 -18.057  0.00  0.00    +0.253 C 
ENDBRANCH  16  19
BRANCH  18  21
ATOM     21  O   UNL     1      34.283 -22.862 -19.000  0.00  0.00    -0.468 OA
ATOM     22  C   UNL     1      33.414 -22.994 -17.876  0.00  0.00    +0.253 C 
ENDBRANCH  18  21
ENDBRANCH   7  13
BRANCH   1  23
ATOM     23  C   UNL     1      33.771 -14.477 -21.667  0.00  0.00    +0.098 C 
ATOM     24  C   UNL     1      32.584 -13.884 -22.455  0.00  0.00    +0.022 C 
ATOM     25  C   UNL     1      32.928 -14.269 -20.391  0.00  0.00    +0.022 C 
ATOM     26  C   UNL     1      32.187 -13.153 -21.156  0.00  0.00    +0.004 C 
ENDBRANCH   1  23
TORSDOF 4
ENDMDL
MODEL 2
REMARK VINA RESULT:     -10.1      0.752      1.741
REMARK  Name = 24905153
REMARK  4 active torsions:
REMARK  status: ('A' for Active; 'I' for Inactive)
REMARK    1  A    between atoms: N_1  and  C_20
REMARK    2  A    between atoms: C_7  and  C_10
REMARK    3  A    between atoms: C_13  and  O_16
REMARK    4  A    between atoms: C_15  and  O_18
REMARK                            x       y       z     vdW  Elec       q    Type
REMARK                         _______ _______ _______ _____ _____    ______ ____
ROOT
ATOM      1  N   UNL     1      34.048 -15.630 -22.147  0.00  0.00    -0.200 N 
ATOM      2  N   UNL     1      34.289 -16.523 -21.170  0.00  0.00    -0.181 NA
ATOM      3  N   UNL     1      33.966 -15.507 -24.564  0.00  0.00    -0.232 NA
ATOM      4  N   UNL     1      34.477 -17.657 -25.595  0.00  0.00    -0.234 NA
ATOM      5  C   UNL     1      34.151 -16.153 -23.402  0.00  0.00    +0.137 C 
ATOM      6  C   UNL     1      34.484 -17.486 -23.234  0.00  0.00    +0.150 C 
ATOM      7  C   UNL     1      34.554 -17.652 -21.838  0.00  0.00    +0.090 C 
ATOM      8  C   UNL     1      34.647 -18.246 -24.387  0.00  0.00    +0.112 C 
ATOM      9  C   UNL     1      34.152 -16.343 -25.608  0.00  0.00    +0.252 C 
ATOM     10  N   UNL     1      34.983 -19.611 -24.320  0.00  0.00    -0.346 N 
ATOM     11  H   UNL     1      35.095 -20.132 -25.148  0.00  0.00    +0.143 HD
ATOM     12  H   UNL     1      35.108 -20.045 -23.445  0.00  0.00    +0.143 HD
ENDROOT
BRANCH   7  13
ATOM     13  C   UNL     1      34.867 -18.856 -21.113  0.00  0.00    +0.019 C 
ATOM     14  C   UNL     1      33.855 -19.767 -20.805  0.00  0.00    +0.041 C 
ATOM     15  C   UNL     1      36.179 -19.113 -20.717  0.00  0.00    +0.005 C 
ATOM     16  C   UNL     1      34.156 -20.933 -20.102  0.00  0.00    +0.172 C 
ATOM     17  C   UNL     1      36.481 -20.280 -20.014  0.00  0.00    +0.040 C 
ATOM     18  C   UNL     1      35.469 -21.190 -19.706  0.00  0.00    +0.172 C 
BRANCH  16  19
ATOM     19  O   UNL     1      33.160 -21.815 -19.807  0.00  0.00    -0.468 OA
ATOM     20  C   UNL     1      32.824 -21.978 -18.431  0.00  0.00    +0.253 C 
ENDBRANCH  16  19
BRANCH  18  21
ATOM     21  O   UNL     1      35.775 -22.325 -19.018  0.00  0.00    -0.468 OA
ATOM     22  C   UNL     1      36.377 -22.163 -17.735  0.00  0.00    +0.253 C 
ENDBRANCH  18  21
ENDBRANCH   7  13
BRANCH   1  23
ATOM     23  C   UNL     1      33.712 -14.245 -21.867  0.00  0.00    +0.098 C 
ATOM     24  C   UNL     1      32.442 -13.781 -22.610  0.00  0.00    +0.022 C 
ATOM     25  C   UNL     1      32.911 -14.083 -20.557  0.00  0.00    +0.022 C 
ATOM     26  C   UNL     1      32.037 -13.058 -21.309  0.00  0.00    +0.004 C 
ENDBRANCH   1  23
TORSDOF 4
ENDMDL
MODEL 3
REMARK VINA RESULT:      -9.7      5.474      8.628
REMARK  Name = 24905153
REMARK  4 active torsions:
REMARK  status: ('A' for Active; 'I' for Inactive)
REMARK    1  A    between atoms: N_1  and  C_20
REMARK    2  A    between atoms: C_7  and  C_10
REMARK    3  A    between atoms: C_13  and  O_16
REMARK    4  A    between atoms: C_15  and  O_18
REMARK                            x       y       z     vdW  Elec       q    Type
REMARK                         _______ _______ _______ _____ _____    ______ ____
ROOT
ATOM      1  N   UNL     1      33.621 -22.720 -18.026  0.00  0.00    -0.200 N 
ATOM      2  N   UNL     1      34.807 -23.118 -17.530  0.00  0.00    -0.181 NA
ATOM      3  N   UNL     1      31.296 -22.572 -17.370  0.00  0.00    -0.232 NA
ATOM      4  N   UNL     1      30.945 -23.395 -15.101  0.00  0.00    -0.234 NA
ATOM      5  C   UNL     1      32.584 -22.879 -17.155  0.00  0.00    +0.137 C 
ATOM      6  C   UNL     1      33.131 -23.421 -16.006  0.00  0.00    +0.150 C 
ATOM      7  C   UNL     1      34.503 -23.544 -16.299  0.00  0.00    +0.090 C 
ATOM      8  C   UNL     1      32.261 -23.680 -14.953  0.00  0.00    +0.112 C 
ATOM      9  C   UNL     1      30.549 -22.866 -16.283  0.00  0.00    +0.252 C 
ATOM     10  N   UNL     1      32.720 -24.228 -13.742  0.00  0.00    -0.346 N 
ATOM     11  H   UNL     1      32.088 -24.405 -13.009  0.00  0.00    +0.143 HD
ATOM     12  H   UNL     1      33.676 -24.437 -13.628  0.00  0.00    +0.143 HD
ENDROOT
BRANCH   7  13
ATOM     13  C   UNL     1      35.541 -24.057 -15.442  0.00  0.00    +0.019 C 
ATOM     14  C   UNL     1      36.174 -23.212 -14.530  0.00  0.00    +0.041 C 
ATOM     15  C   UNL     1      35.914 -25.399 -15.523  0.00  0.00    +0.005 C 
ATOM     16  C   UNL     1      37.179 -23.707 -13.701  0.00  0.00    +0.172 C 
ATOM     17  C   UNL     1      36.920 -25.895 -14.692  0.00  0.00    +0.040 C 
ATOM     18  C   UNL     1      37.552 -25.049 -13.781  0.00  0.00    +0.172 C 
BRANCH  16  19
ATOM     19  O   UNL     1      37.790 -22.871 -12.815  0.00  0.00    -0.468 OA
ATOM     20  C   UNL     1      37.224 -22.783 -11.509  0.00  0.00    +0.253 C 
ENDBRANCH  16  19
BRANCH  18  21
ATOM     21  O   UNL     1      38.534 -25.544 -12.977  0.00  0.00    -0.468 OA
ATOM     22  C   UNL     1      39.822 -25.724 -13.563  0.00  0.00    +0.253 C 
ENDBRANCH  18  21
ENDBRANCH   7  13
BRANCH   1  23
ATOM     23  C   UNL     1      33.484 -22.174 -19.365  0.00  0.00    +0.098 C 
ATOM     24  C   UNL     1      32.740 -20.823 -19.382  0.00  0.00    +0.022 C 
ATOM     25  C   UNL     1      34.739 -21.401 -19.822  0.00  0.00    +0.022 C 
ATOM     26  C   UNL     1      33.780 -20.350 -20.418  0.00  0.00    +0.004 C 
ENDBRANCH   1  23
TORSDOF 4
ENDMDL
MODEL 4
REMARK VINA RESULT:      -9.6      4.038      7.654
REMARK  Name = 24905153
REMARK  4 active torsions:
REMARK  status: ('A' for Active; 'I' for Inactive)
REMARK    1  A    between atoms: N_1  and  C_20
REMARK    2  A    between atoms: C_7  and  C_10
REMARK    3  A    between atoms: C_13  and  O_16
REMARK    4  A    between atoms: C_15  and  O_18
REMARK                            x       y       z     vdW  Elec       q    Type
REMARK                         _______ _______ _______ _____ _____    ______ ____
ROOT
ATOM      1  N   UNL     1      34.657 -16.585 -22.028  0.00  0.00    -0.200 N 
ATOM      2  N   UNL     1      34.259 -15.354 -21.658  0.00  0.00    -0.181 NA
ATOM      3  N   UNL     1      34.790 -17.971 -24.008  0.00  0.00    -0.232 NA
ATOM      4  N   UNL     1      33.943 -16.811 -25.979  0.00  0.00    -0.234 NA
ATOM      5  C   UNL     1      34.486 -16.838 -23.356  0.00  0.00    +0.137 C 
ATOM      6  C   UNL     1      33.934 -15.689 -23.895  0.00  0.00    +0.150 C 
ATOM      7  C   UNL     1      33.819 -14.813 -22.800  0.00  0.00    +0.090 C 
ATOM      8  C   UNL     1      33.662 -15.699 -25.259  0.00  0.00    +0.112 C 
ATOM      9  C   UNL     1      34.482 -17.863 -25.319  0.00  0.00    +0.252 C 
ATOM     10  N   UNL     1      33.103 -14.579 -25.901  0.00  0.00    -0.346 N 
ATOM     11  H   UNL     1      32.917 -14.606 -26.867  0.00  0.00    +0.143 HD
ATOM     12  H   UNL     1      32.897 -13.767 -25.383  0.00  0.00    +0.143 HD
ENDROOT
BRANCH   7  13
ATOM     13  C   UNL     1      33.302 -13.468 -22.802  0.00  0.00    +0.019 C 
ATOM     14  C   UNL     1      32.262 -13.119 -21.939  0.00  0.00    +0.041 C 
ATOM     15  C   UNL     1      33.839 -12.515 -23.667  0.00  0.00    +0.005 C 
ATOM     16  C   UNL     1      31.761 -11.819 -21.941  0.00  0.00    +0.172 C 
ATOM     17  C   UNL     1      33.337 -11.213 -23.669  0.00  0.00    +0.040 C 
ATOM     18  C   UNL     1      32.298 -10.865 -22.806  0.00  0.00    +0.172 C 
BRANCH  16  19
ATOM     19  O   UNL     1      30.745 -11.491 -21.094  0.00  0.00    -0.468 OA
ATOM     20  C   UNL     1      31.104 -11.103 -19.770  0.00  0.00    +0.253 C 
ENDBRANCH  16  19
BRANCH  18  21
ATOM     21  O   UNL     1      31.815  -9.591 -22.818  0.00  0.00    -0.468 OA
ATOM     22  C   UNL     1      32.613  -8.590 -22.187  0.00  0.00    +0.253 C 
ENDBRANCH  18  21
ENDBRANCH   7  13
BRANCH   1  23
ATOM     23  C   UNL     1      35.215 -17.536 -21.083  0.00  0.00    +0.098 C 
ATOM     24  C   UNL     1      34.361 -18.814 -20.953  0.00  0.00    +0.022 C 
ATOM     25  C   UNL     1      36.310 -18.424 -21.711  0.00  0.00    +0.022 C 
ATOM     26  C   UNL     1      35.685 -19.606 -20.941  0.00  0.00    +0.004 C 
ENDBRANCH   1  23
TORSDOF 4
ENDMDL
MODEL 5
REMARK VINA RESULT:      -9.5      4.195      7.656
REMARK  Name = 24905153
REMARK  4 active torsions:
REMARK  status: ('A' for Active; 'I' for Inactive)
REMARK    1  A    between atoms: N_1  and  C_20
REMARK    2  A    between atoms: C_7  and  C_10
REMARK    3  A    between atoms: C_13  and  O_16
REMARK    4  A    between atoms: C_15  and  O_18
REMARK                            x       y       z     vdW  Elec       q    Type
REMARK                         _______ _______ _______ _____ _____    ______ ____
ROOT
ATOM      1  N   UNL     1      34.627 -16.677 -21.932  0.00  0.00    -0.200 N 
ATOM      2  N   UNL     1      34.187 -15.472 -21.526  0.00  0.00    -0.181 NA
ATOM      3  N   UNL     1      34.853 -17.978 -23.961  0.00  0.00    -0.232 NA
ATOM      4  N   UNL     1      34.039 -16.758 -25.910  0.00  0.00    -0.234 NA
ATOM      5  C   UNL     1      34.502 -16.880 -23.274  0.00  0.00    +0.137 C 
ATOM      6  C   UNL     1      33.939 -15.723 -23.784  0.00  0.00    +0.150 C 
ATOM      7  C   UNL     1      33.770 -14.895 -22.658  0.00  0.00    +0.090 C 
ATOM      8  C   UNL     1      33.709 -15.683 -25.155  0.00  0.00    +0.112 C 
ATOM      9  C   UNL     1      34.583 -17.824 -25.276  0.00  0.00    +0.252 C 
ATOM     10  N   UNL     1      33.143 -14.550 -25.768  0.00  0.00    -0.346 N 
ATOM     11  H   UNL     1      32.987 -14.542 -26.740  0.00  0.00    +0.143 HD
ATOM     12  H   UNL     1      32.901 -13.766 -25.224  0.00  0.00    +0.143 HD
ENDROOT
BRANCH   7  13
ATOM     13  C   UNL     1      33.220 -13.564 -22.623  0.00  0.00    +0.019 C 
ATOM     14  C   UNL     1      33.721 -12.580 -23.476  0.00  0.00    +0.041 C 
ATOM     15  C   UNL     1      32.188 -13.257 -21.735  0.00  0.00    +0.005 C 
ATOM     16  C   UNL     1      33.190 -11.291 -23.442  0.00  0.00    +0.172 C 
ATOM     17  C   UNL     1      31.658 -11.967 -21.701  0.00  0.00    +0.040 C 
ATOM     18  C   UNL     1      32.158 -10.984 -22.555  0.00  0.00    +0.172 C 
BRANCH  16  19
ATOM     19  O   UNL     1      33.688 -10.339 -24.280  0.00  0.00    -0.468 OA
ATOM     20  C   UNL     1      34.681 -10.753 -25.216  0.00  0.00    +0.253 C 
ENDBRANCH  16  19
BRANCH  18  21
ATOM     21  O   UNL     1      31.633  -9.728 -22.512  0.00  0.00    -0.468 OA
ATOM     22  C   UNL     1      32.037  -8.894 -21.427  0.00  0.00    +0.253 C 
ENDBRANCH  18  21
ENDBRANCH   7  13
BRANCH   1  23
ATOM     23  C   UNL     1      35.179 -17.654 -21.009  0.00  0.00    +0.098 C 
ATOM     24  C   UNL     1      34.355 -18.957 -20.962  0.00  0.00    +0.022 C 
ATOM     25  C   UNL     1      36.317 -18.486 -21.636  0.00  0.00    +0.022 C 
ATOM     26  C   UNL     1      35.699 -19.715 -20.938  0.00  0.00    +0.004 C 
ENDBRANCH   1  23
TORSDOF 4
ENDMDL
MODEL 6
REMARK VINA RESULT:      -9.4      4.586      6.853
REMARK  Name = 24905153
REMARK  4 active torsions:
REMARK  status: ('A' for Active; 'I' for Inactive)
REMARK    1  A    between atoms: N_1  and  C_20
REMARK    2  A    between atoms: C_7  and  C_10
REMARK    3  A    between atoms: C_13  and  O_16
REMARK    4  A    between atoms: C_15  and  O_18
REMARK                            x       y       z     vdW  Elec       q    Type
REMARK                         _______ _______ _______ _____ _____    ______ ____
ROOT
ATOM      1  N   UNL     1      32.090 -10.983 -22.079  0.00  0.00    -0.200 N 
ATOM      2  N   UNL     1      32.213 -12.293 -22.362  0.00  0.00    -0.181 NA
ATOM      3  N   UNL     1      32.937  -8.841 -22.824  0.00  0.00    -0.232 NA
ATOM      4  N   UNL     1      34.516  -9.087 -24.667  0.00  0.00    -0.234 NA
ATOM      5  C   UNL     1      32.854 -10.180 -22.872  0.00  0.00    +0.137 C 
ATOM      6  C   UNL     1      33.527 -11.026 -23.737  0.00  0.00    +0.150 C 
ATOM      7  C   UNL     1      33.089 -12.313 -23.372  0.00  0.00    +0.090 C 
ATOM      8  C   UNL     1      34.383 -10.435 -24.660  0.00  0.00    +0.112 C 
ATOM      9  C   UNL     1      33.795  -8.383 -23.762  0.00  0.00    +0.252 C 
ATOM     10  N   UNL     1      35.109 -11.209 -25.583  0.00  0.00    -0.346 N 
ATOM     11  H   UNL     1      35.711 -10.772 -26.228  0.00  0.00    +0.143 HD
ATOM     12  H   UNL     1      35.016 -12.190 -25.583  0.00  0.00    +0.143 HD
ENDROOT
BRANCH   7  13
ATOM     13  C   UNL     1      33.479 -13.570 -23.957  0.00  0.00    +0.019 C 
ATOM     14  C   UNL     1      34.351 -14.417 -23.273  0.00  0.00    +0.041 C 
ATOM     15  C   UNL     1      32.986 -13.942 -25.208  0.00  0.00    +0.005 C 
ATOM     16  C   UNL     1      34.730 -15.634 -23.838  0.00  0.00    +0.172 C 
ATOM     17  C   UNL     1      33.364 -15.160 -25.774  0.00  0.00    +0.040 C 
ATOM     18  C   UNL     1      34.236 -16.006 -25.089  0.00  0.00    +0.172 C 
BRANCH  16  19
ATOM     19  O   UNL     1      35.582 -16.453 -23.160  0.00  0.00    -0.468 OA
ATOM     20  C   UNL     1      35.170 -16.892 -21.867  0.00  0.00    +0.253 C 
ENDBRANCH  16  19
BRANCH  18  21
ATOM     21  O   UNL     1      34.600 -17.192 -25.652  0.00  0.00    -0.468 OA
ATOM     22  C   UNL     1      34.034 -18.376 -25.090  0.00  0.00    +0.253 C 
ENDBRANCH  18  21
ENDBRANCH   7  13
BRANCH   1  23
ATOM     23  C   UNL     1      31.219 -10.495 -21.024  0.00  0.00    +0.098 C 
ATOM     24  C   UNL     1      31.159 -11.452 -19.815  0.00  0.00    +0.022 C 
ATOM     25  C   UNL     1      31.923  -9.486 -20.093  0.00  0.00    +0.022 C 
ATOM     26  C   UNL     1      31.222 -10.198 -18.918  0.00  0.00    +0.004 C 
ENDBRANCH   1  23
TORSDOF 4
ENDMDL
MODEL 7
REMARK VINA RESULT:      -9.3      5.773      8.676
REMARK  Name = 24905153
REMARK  4 active torsions:
REMARK  status: ('A' for Active; 'I' for Inactive)
REMARK    1  A    between atoms: N_1  and  C_20
REMARK    2  A    between atoms: C_7  and  C_10
REMARK    3  A    between atoms: C_13  and  O_16
REMARK    4  A    between atoms: C_15  and  O_18
REMARK                            x       y       z     vdW  Elec       q    Type
REMARK                         _______ _______ _______ _____ _____    ______ ____
ROOT
ATOM      1  N   UNL     1      32.360 -23.386 -16.456  0.00  0.00    -0.200 N 
ATOM      2  N   UNL     1      33.168 -23.951 -15.540  0.00  0.00    -0.181 NA
ATOM      3  N   UNL     1      32.494 -22.087 -18.494  0.00  0.00    -0.232 NA
ATOM      4  N   UNL     1      34.807 -21.636 -19.124  0.00  0.00    -0.234 NA
ATOM      5  C   UNL     1      33.030 -22.739 -17.451  0.00  0.00    +0.137 C 
ATOM      6  C   UNL     1      34.376 -22.891 -17.165  0.00  0.00    +0.150 C 
ATOM      7  C   UNL     1      34.395 -23.647 -15.977  0.00  0.00    +0.090 C 
ATOM      8  C   UNL     1      35.279 -22.310 -18.049  0.00  0.00    +0.112 C 
ATOM      9  C   UNL     1      33.463 -21.566 -19.278  0.00  0.00    +0.252 C 
ATOM     10  N   UNL     1      36.667 -22.411 -17.847  0.00  0.00    -0.346 N 
ATOM     11  H   UNL     1      37.290 -21.992 -18.484  0.00  0.00    +0.143 HD
ATOM     12  H   UNL     1      37.016 -22.901 -17.067  0.00  0.00    +0.143 HD
ENDROOT
BRANCH   7  13
ATOM     13  C   UNL     1      35.549 -24.092 -15.239  0.00  0.00    +0.019 C 
ATOM     14  C   UNL     1      36.138 -23.253 -14.293  0.00  0.00    +0.041 C 
ATOM     15  C   UNL     1      36.079 -25.362 -15.471  0.00  0.00    +0.005 C 
ATOM     16  C   UNL     1      37.255 -23.683 -13.579  0.00  0.00    +0.172 C 
ATOM     17  C   UNL     1      37.197 -25.792 -14.756  0.00  0.00    +0.040 C 
ATOM     18  C   UNL     1      37.785 -24.952 -13.810  0.00  0.00    +0.172 C 
BRANCH  16  19
ATOM     19  O   UNL     1      37.822 -22.853 -12.657  0.00  0.00    -0.468 OA
ATOM     20  C   UNL     1      37.199 -22.786 -11.376  0.00  0.00    +0.253 C 
ENDBRANCH  16  19
BRANCH  18  21
ATOM     21  O   UNL     1      38.877 -25.383 -13.118  0.00  0.00    -0.468 OA
ATOM     22  C   UNL     1      40.062 -25.639 -13.872  0.00  0.00    +0.253 C 
ENDBRANCH  18  21
ENDBRANCH   7  13
BRANCH   1  23
ATOM     23  C   UNL     1      30.912 -23.472 -16.371  0.00  0.00    +0.098 C 
ATOM     24  C   UNL     1      30.432 -24.800 -15.750  0.00  0.00    +0.022 C 
ATOM     25  C   UNL     1      30.349 -22.771 -15.116  0.00  0.00    +0.022 C 
ATOM     26  C   UNL     1      29.390 -23.970 -14.971  0.00  0.00    +0.004 C 
ENDBRANCH   1  23
TORSDOF 4
ENDMDL
MODEL 8
REMARK VINA RESULT:      -9.1      4.153      6.848
REMARK  Name = 24905153
REMARK  4 active torsions:
REMARK  status: ('A' for Active; 'I' for Inactive)
REMARK    1  A    between atoms: N_1  and  C_20
REMARK    2  A    between atoms: C_7  and  C_10
REMARK    3  A    between atoms: C_13  and  O_16
REMARK    4  A    between atoms: C_15  and  O_18
REMARK                            x       y       z     vdW  Elec       q    Type
REMARK                         _______ _______ _______ _____ _____    ______ ____
ROOT
ATOM      1  N   UNL     1      33.138 -10.387 -23.554  0.00  0.00    -0.200 N 
ATOM      2  N   UNL     1      33.643 -11.400 -24.281  0.00  0.00    -0.181 NA
ATOM      3  N   UNL     1      31.873 -10.016 -21.523  0.00  0.00    -0.232 NA
ATOM      4  N   UNL     1      31.318 -12.115 -20.411  0.00  0.00    -0.234 NA
ATOM      5  C   UNL     1      32.477 -10.795 -22.434  0.00  0.00    +0.137 C 
ATOM      6  C   UNL     1      32.555 -12.177 -22.427  0.00  0.00    +0.150 C 
ATOM      7  C   UNL     1      33.286 -12.488 -23.590  0.00  0.00    +0.090 C 
ATOM      8  C   UNL     1      31.946 -12.840 -21.367  0.00  0.00    +0.112 C 
ATOM      9  C   UNL     1      31.320 -10.767 -20.546  0.00  0.00    +0.252 C 
ATOM     10  N   UNL     1      31.973 -14.243 -21.270  0.00  0.00    -0.346 N 
ATOM     11  H   UNL     1      31.536 -14.693 -20.511  0.00  0.00    +0.143 HD
ATOM     12  H   UNL     1      32.429 -14.775 -21.961  0.00  0.00    +0.143 HD
ENDROOT
BRANCH   7  13
ATOM     13  C   UNL     1      33.657 -13.795 -24.069  0.00  0.00    +0.019 C 
ATOM     14  C   UNL     1      34.511 -14.598 -23.312  0.00  0.00    +0.041 C 
ATOM     15  C   UNL     1      33.165 -14.258 -25.290  0.00  0.00    +0.005 C 
ATOM     16  C   UNL     1      34.872 -15.863 -23.775  0.00  0.00    +0.172 C 
ATOM     17  C   UNL     1      33.527 -15.523 -25.753  0.00  0.00    +0.040 C 
ATOM     18  C   UNL     1      34.380 -16.326 -24.995  0.00  0.00    +0.172 C 
BRANCH  16  19
ATOM     19  O   UNL     1      35.706 -16.638 -23.026  0.00  0.00    -0.468 OA
ATOM     20  C   UNL     1      35.173 -17.195 -21.827  0.00  0.00    +0.253 C 
ENDBRANCH  16  19
BRANCH  18  21
ATOM     21  O   UNL     1      34.727 -17.559 -25.459  0.00  0.00    -0.468 OA
ATOM     22  C   UNL     1      33.916 -18.658 -25.044  0.00  0.00    +0.253 C 
ENDBRANCH  18  21
ENDBRANCH   7  13
BRANCH   1  23
ATOM     23  C   UNL     1      33.295  -8.997 -23.946  0.00  0.00    +0.098 C 
ATOM     24  C   UNL     1      33.567  -8.069 -22.744  0.00  0.00    +0.022 C 
ATOM     25  C   UNL     1      34.727  -8.673 -24.422  0.00  0.00    +0.022 C 
ATOM     26  C   UNL     1      34.610  -7.355 -23.629  0.00  0.00    +0.004 C 
ENDBRANCH   1  23
TORSDOF 4
ENDMDL
MODEL 9
REMARK VINA RESULT:      -8.9      5.037      9.435
REMARK  Name = 24905153
REMARK  4 active torsions:
REMARK  status: ('A' for Active; 'I' for Inactive)
REMARK    1  A    between atoms: N_1  and  C_20
REMARK    2  A    between atoms: C_7  and  C_10
REMARK    3  A    between atoms: C_13  and  O_16
REMARK    4  A    between atoms: C_15  and  O_18
REMARK                            x       y       z     vdW  Elec       q    Type
REMARK                         _______ _______ _______ _____ _____    ______ ____
ROOT
ATOM      1  N   UNL     1      35.275 -24.274 -14.969  0.00  0.00    -0.200 N 
ATOM      2  N   UNL     1      35.811 -23.619 -16.015  0.00  0.00    -0.181 NA
ATOM      3  N   UNL     1      33.110 -24.765 -14.003  0.00  0.00    -0.232 NA
ATOM      4  N   UNL     1      31.298 -23.778 -15.303  0.00  0.00    -0.234 NA
ATOM      5  C   UNL     1      33.915 -24.210 -14.923  0.00  0.00    +0.137 C 
ATOM      6  C   UNL     1      33.531 -23.457 -16.019  0.00  0.00    +0.150 C 
ATOM      7  C   UNL     1      34.744 -23.123 -16.651  0.00  0.00    +0.090 C 
ATOM      8  C   UNL     1      32.168 -23.247 -16.196  0.00  0.00    +0.112 C 
ATOM      9  C   UNL     1      31.816 -24.493 -14.277  0.00  0.00    +0.252 C 
ATOM     10  N   UNL     1      31.679 -22.497 -17.281  0.00  0.00    -0.346 N 
ATOM     11  H   UNL     1      30.710 -22.359 -17.388  0.00  0.00    +0.143 HD
ATOM     12  H   UNL     1      32.306 -22.109 -17.934  0.00  0.00    +0.143 HD
ENDROOT
BRANCH   7  13
ATOM     13  C   UNL     1      34.923 -22.343 -17.849  0.00  0.00    +0.019 C 
ATOM     14  C   UNL     1      33.826 -22.044 -18.657  0.00  0.00    +0.041 C 
ATOM     15  C   UNL     1      36.193 -21.886 -18.202  0.00  0.00    +0.005 C 
ATOM     16  C   UNL     1      33.999 -21.289 -19.817  0.00  0.00    +0.172 C 
ATOM     17  C   UNL     1      36.366 -21.131 -19.362  0.00  0.00    +0.040 C 
ATOM     18  C   UNL     1      35.269 -20.833 -20.170  0.00  0.00    +0.172 C 
BRANCH  16  19
ATOM     19  O   UNL     1      32.919 -21.005 -20.598  0.00  0.00    -0.468 OA
ATOM     20  C   UNL     1      32.421 -19.669 -20.555  0.00  0.00    +0.253 C 
ENDBRANCH  16  19
BRANCH  18  21
ATOM     21  O   UNL     1      35.450 -20.096 -21.301  0.00  0.00    -0.468 OA
ATOM     22  C   UNL     1      36.084 -18.826 -21.152  0.00  0.00    +0.253 C 
ENDBRANCH  18  21
ENDBRANCH   7  13
BRANCH   1  23
ATOM     23  C   UNL     1      36.091 -24.977 -13.993  0.00  0.00    +0.098 C 
ATOM     24  C   UNL     1      36.878 -26.150 -14.613  0.00  0.00    +0.022 C 
ATOM     25  C   UNL     1      37.453 -24.291 -13.754  0.00  0.00    +0.022 C 
ATOM     26  C   UNL     1      38.076 -25.702 -13.751  0.00  0.00    +0.004 C 
ENDBRANCH   1  23
TORSDOF 4
ENDMDL
