MODEL 1
REMARK VINA RESULT:      -8.9      0.000      0.000
REMARK  Name = 6918405
REMARK  11 active torsions:
REMARK  status: ('A' for Active; 'I' for Inactive)
REMARK    1  A    between atoms: C_1  and  N_8
REMARK    2  A    between atoms: C_2  and  C_21
REMARK    3  A    between atoms: C_4  and  O_19
REMARK    4  A    between atoms: C_9  and  CA_11
REMARK    5  A    between atoms: CA_11  and  N_12
REMARK    6  A    between atoms: CA_11  and  C_16
REMARK    7  A    between atoms: C_16  and  O_17
REMARK    8  A    between atoms: C_22  and  C_23
REMARK    9  A    between atoms: C_26  and  O_29
REMARK   10  A    between atoms: C_27  and  O_31
REMARK   11  A    between atoms: C_28  and  O_33
REMARK                            x       y       z     vdW  Elec       q    Type
REMARK                         _______ _______ _______ _____ _____    ______ ____
ROOT
ATOM      1  C   UNL     1      33.566 -10.699 -24.114  0.00  0.00    +0.085 C 
ATOM      2  C   UNL     1      33.691 -12.081 -26.092  0.00  0.00    +0.001 C 
ATOM      3  C   UNL     1      33.045 -11.719 -24.910  0.00  0.00    +0.018 C 
ATOM      4  C   UNL     1      34.733 -10.041 -24.500  0.00  0.00    +0.152 C 
ATOM      5  C   UNL     1      34.859 -11.423 -26.478  0.00  0.00    +0.003 C 
ATOM      6  C   UNL     1      35.380 -10.403 -25.682  0.00  0.00    +0.038 C 
ENDROOT
BRANCH   1   8
ATOM      7  O   UNL     1      31.396  -8.689 -23.631  0.00  0.00    -0.277 OA
ATOM      8  N   UNL     1      32.900 -10.343 -22.917  0.00  0.00    -0.283 N 
ATOM      9  C   UNL     1      31.900  -9.385 -22.754  0.00  0.00    +0.208 C 
ATOM     10  H   UNL     1      33.174 -10.827 -22.105  0.00  0.00    +0.155 HD
BRANCH   9  11
ATOM     11  CA  UNL     1      31.442  -9.305 -21.296  0.00  0.00    +0.043 C 
BRANCH  11  12
ATOM     12  N   UNL     1      31.326 -10.674 -20.799  0.00  0.00    +0.389 N 
ATOM     13  H1  UNL     1      31.123 -10.656 -19.799  0.00  0.00    -0.088 HD
ATOM     14  H2  UNL     1      32.203 -11.170 -20.960  0.00  0.00    -0.088 HD
ATOM     15  H3  UNL     1      30.570 -11.152 -21.291  0.00  0.00    -0.088 HD
ENDBRANCH  11  12
BRANCH  11  16
ATOM     16  C   UNL     1      32.462  -8.526 -20.466  0.00  0.00    +0.124 C 
BRANCH  16  17
ATOM     17  O   UNL     1      32.703  -9.188 -19.229  0.00  0.00    -0.384 OA
ATOM     18  H   UNL     1      31.861  -9.482 -18.850  0.00  0.00    +0.210 HD
ENDBRANCH  16  17
ENDBRANCH  11  16
ENDBRANCH   9  11
ENDBRANCH   1   8
BRANCH   4  19
ATOM     19  O   UNL     1      35.261  -9.042 -23.736  0.00  0.00    -0.470 OA
ATOM     20  C   UNL     1      34.807  -7.717 -23.999  0.00  0.00    +0.253 C 
ENDBRANCH   4  19
BRANCH   2  21
ATOM     21  C   UNL     1      33.147 -13.144 -26.923  0.00  0.00    +0.000 C 
ATOM     22  C   UNL     1      33.131 -14.458 -26.597  0.00  0.00    +0.000 C 
BRANCH  22  23
ATOM     23  C   UNL     1      33.662 -15.030 -25.347  0.00  0.00    +0.006 C 
ATOM     24  C   UNL     1      34.311 -16.264 -25.364  0.00  0.00    +0.040 C 
ATOM     25  C   UNL     1      33.515 -14.336 -24.146  0.00  0.00    +0.040 C 
ATOM     26  C   UNL     1      34.018 -14.877 -22.962  0.00  0.00    +0.175 C 
ATOM     27  C   UNL     1      34.814 -16.805 -24.181  0.00  0.00    +0.175 C 
ATOM     28  C   UNL     1      34.667 -16.112 -22.980  0.00  0.00    +0.206 C 
BRANCH  26  29
ATOM     29  O   UNL     1      33.868 -14.190 -21.795  0.00  0.00    -0.468 OA
ATOM     30  C   UNL     1      32.534 -13.915 -21.372  0.00  0.00    +0.253 C 
ENDBRANCH  26  29
BRANCH  27  31
ATOM     31  O   UNL     1      35.446 -18.012 -24.212  0.00  0.00    -0.468 OA
ATOM     32  C   UNL     1      34.649 -19.153 -24.525  0.00  0.00    +0.253 C 
ENDBRANCH  27  31
BRANCH  28  33
ATOM     33  O   UNL     1      35.158 -16.640 -21.823  0.00  0.00    -0.465 OA
ATOM     34  C   UNL     1      34.324 -17.570 -21.132  0.00  0.00    +0.253 C 
ENDBRANCH  28  33
ENDBRANCH  22  23
ENDBRANCH   2  21
TORSDOF 11
ENDMDL
MODEL 2
REMARK VINA RESULT:      -8.9      0.039      2.294
REMARK  Name = 6918405
REMARK  11 active torsions:
REMARK  status: ('A' for Active; 'I' for Inactive)
REMARK    1  A    between atoms: C_1  and  N_8
REMARK    2  A    between atoms: C_2  and  C_21
REMARK    3  A    between atoms: C_4  and  O_19
REMARK    4  A    between atoms: C_9  and  CA_11
REMARK    5  A    between atoms: CA_11  and  N_12
REMARK    6  A    between atoms: CA_11  and  C_16
REMARK    7  A    between atoms: C_16  and  O_17
REMARK    8  A    between atoms: C_22  and  C_23
REMARK    9  A    between atoms: C_26  and  O_29
REMARK   10  A    between atoms: C_27  and  O_31
REMARK   11  A    between atoms: C_28  and  O_33
REMARK                            x       y       z     vdW  Elec       q    Type
REMARK                         _______ _______ _______ _____ _____    ______ ____
ROOT
ATOM      1  C   UNL     1      33.566 -10.683 -24.087  0.00  0.00    +0.085 C 
ATOM      2  C   UNL     1      33.697 -12.051 -26.075  0.00  0.00    +0.001 C 
ATOM      3  C   UNL     1      33.049 -11.699 -24.891  0.00  0.00    +0.018 C 
ATOM      4  C   UNL     1      34.731 -10.018 -24.467  0.00  0.00    +0.152 C 
ATOM      5  C   UNL     1      34.864 -11.387 -26.455  0.00  0.00    +0.003 C 
ATOM      6  C   UNL     1      35.381 -10.371 -25.651  0.00  0.00    +0.038 C 
ENDROOT
BRANCH   1   8
ATOM      7  O   UNL     1      31.422  -8.649 -23.584  0.00  0.00    -0.277 OA
ATOM      8  N   UNL     1      32.897 -10.337 -22.889  0.00  0.00    -0.283 N 
ATOM      9  C   UNL     1      31.911  -9.368 -22.716  0.00  0.00    +0.208 C 
ATOM     10  H   UNL     1      33.159 -10.838 -22.084  0.00  0.00    +0.155 HD
BRANCH   9  11
ATOM     11  CA  UNL     1      31.444  -9.305 -21.260  0.00  0.00    +0.043 C 
BRANCH  11  12
ATOM     12  N   UNL     1      31.299 -10.680 -20.788  0.00  0.00    +0.389 N 
ATOM     13  H1  UNL     1      31.838 -11.305 -21.388  0.00  0.00    -0.088 HD
ATOM     14  H2  UNL     1      30.314 -10.947 -20.816  0.00  0.00    -0.088 HD
ATOM     15  H3  UNL     1      31.643 -10.749 -19.830  0.00  0.00    -0.088 HD
ENDBRANCH  11  12
BRANCH  11  16
ATOM     16  C   UNL     1      32.472  -8.560 -20.410  0.00  0.00    +0.124 C 
BRANCH  16  17
ATOM     17  O   UNL     1      32.693  -9.248 -19.183  0.00  0.00    -0.384 OA
ATOM     18  H   UNL     1      33.538  -9.721 -19.225  0.00  0.00    +0.210 HD
ENDBRANCH  16  17
ENDBRANCH  11  16
ENDBRANCH   9  11
ENDBRANCH   1   8
BRANCH   4  19
ATOM     19  O   UNL     1      35.254  -9.023 -23.697  0.00  0.00    -0.470 OA
ATOM     20  C   UNL     1      34.810  -7.695 -23.964  0.00  0.00    +0.253 C 
ENDBRANCH   4  19
BRANCH   2  21
ATOM     21  C   UNL     1      33.158 -13.111 -26.913  0.00  0.00    +0.000 C 
ATOM     22  C   UNL     1      33.141 -14.427 -26.593  0.00  0.00    +0.000 C 
BRANCH  22  23
ATOM     23  C   UNL     1      33.665 -15.003 -25.343  0.00  0.00    +0.006 C 
ATOM     24  C   UNL     1      33.524 -14.309 -24.141  0.00  0.00    +0.040 C 
ATOM     25  C   UNL     1      34.302 -16.244 -25.360  0.00  0.00    +0.040 C 
ATOM     26  C   UNL     1      34.798 -16.790 -24.176  0.00  0.00    +0.175 C 
ATOM     27  C   UNL     1      34.020 -14.855 -22.957  0.00  0.00    +0.175 C 
ATOM     28  C   UNL     1      34.657 -16.096 -22.975  0.00  0.00    +0.206 C 
BRANCH  26  29
ATOM     29  O   UNL     1      35.418 -18.003 -24.207  0.00  0.00    -0.468 OA
ATOM     30  C   UNL     1      34.615 -19.133 -24.541  0.00  0.00    +0.253 C 
ENDBRANCH  26  29
BRANCH  27  31
ATOM     31  O   UNL     1      33.875 -14.167 -21.791  0.00  0.00    -0.468 OA
ATOM     32  C   UNL     1      32.543 -13.937 -21.334  0.00  0.00    +0.253 C 
ENDBRANCH  27  31
BRANCH  28  33
ATOM     33  O   UNL     1      35.142 -16.630 -21.818  0.00  0.00    -0.465 OA
ATOM     34  C   UNL     1      34.303 -17.559 -21.133  0.00  0.00    +0.253 C 
ENDBRANCH  28  33
ENDBRANCH  22  23
ENDBRANCH   2  21
TORSDOF 11
ENDMDL
MODEL 3
REMARK VINA RESULT:      -7.6      2.688      7.716
REMARK  Name = 6918405
REMARK  11 active torsions:
REMARK  status: ('A' for Active; 'I' for Inactive)
REMARK    1  A    between atoms: C_1  and  N_8
REMARK    2  A    between atoms: C_2  and  C_21
REMARK    3  A    between atoms: C_4  and  O_19
REMARK    4  A    between atoms: C_9  and  CA_11
REMARK    5  A    between atoms: CA_11  and  N_12
REMARK    6  A    between atoms: CA_11  and  C_16
REMARK    7  A    between atoms: C_16  and  O_17
REMARK    8  A    between atoms: C_22  and  C_23
REMARK    9  A    between atoms: C_26  and  O_29
REMARK   10  A    between atoms: C_27  and  O_31
REMARK   11  A    between atoms: C_28  and  O_33
REMARK                            x       y       z     vdW  Elec       q    Type
REMARK                         _______ _______ _______ _____ _____    ______ ____
ROOT
ATOM      1  C   UNL     1      33.791 -14.954 -22.007  0.00  0.00    +0.085 C 
ATOM      2  C   UNL     1      32.272 -13.260 -21.191  0.00  0.00    +0.001 C 
ATOM      3  C   UNL     1      33.222 -14.252 -20.944  0.00  0.00    +0.018 C 
ATOM      4  C   UNL     1      33.410 -14.664 -23.317  0.00  0.00    +0.152 C 
ATOM      5  C   UNL     1      31.891 -12.971 -22.501  0.00  0.00    +0.003 C 
ATOM      6  C   UNL     1      32.460 -13.673 -23.564  0.00  0.00    +0.038 C 
ENDROOT
BRANCH   1   8
ATOM      7  O   UNL     1      33.431 -17.826 -21.226  0.00  0.00    -0.277 OA
ATOM      8  N   UNL     1      34.753 -15.957 -21.741  0.00  0.00    -0.283 N 
ATOM      9  C   UNL     1      34.521 -17.280 -21.369  0.00  0.00    +0.208 C 
ATOM     10  H   UNL     1      35.696 -15.690 -21.829  0.00  0.00    +0.155 HD
BRANCH   9  11
ATOM     11  CA  UNL     1      35.835 -18.040 -21.176  0.00  0.00    +0.043 C 
BRANCH  11  12
ATOM     12  N   UNL     1      35.516 -19.307 -20.523  0.00  0.00    +0.389 N 
ATOM     13  H1  UNL     1      36.259 -19.982 -20.707  0.00  0.00    -0.088 HD
ATOM     14  H2  UNL     1      34.633 -19.665 -20.889  0.00  0.00    -0.088 HD
ATOM     15  H3  UNL     1      35.431 -19.160 -19.517  0.00  0.00    -0.088 HD
ENDBRANCH  11  12
BRANCH  11  16
ATOM     16  C   UNL     1      36.500 -18.294 -22.528  0.00  0.00    +0.124 C 
BRANCH  16  17
ATOM     17  O   UNL     1      35.651 -17.862 -23.586  0.00  0.00    -0.384 OA
ATOM     18  H   UNL     1      35.180 -17.060 -23.316  0.00  0.00    +0.210 HD
ENDBRANCH  16  17
ENDBRANCH  11  16
ENDBRANCH   9  11
ENDBRANCH   1   8
BRANCH   4  19
ATOM     19  O   UNL     1      33.952 -15.338 -24.370  0.00  0.00    -0.470 OA
ATOM     20  C   UNL     1      33.331 -15.164 -25.641  0.00  0.00    +0.253 C 
ENDBRANCH   4  19
BRANCH   2  21
ATOM     21  C   UNL     1      31.680 -12.528 -20.082  0.00  0.00    +0.000 C 
ATOM     22  C   UNL     1      31.563 -11.181 -20.010  0.00  0.00    +0.000 C 
BRANCH  22  23
ATOM     23  C   UNL     1      32.016 -10.233 -21.043  0.00  0.00    +0.006 C 
ATOM     24  C   UNL     1      32.371 -10.698 -22.309  0.00  0.00    +0.040 C 
ATOM     25  C   UNL     1      32.089  -8.870 -20.755  0.00  0.00    +0.040 C 
ATOM     26  C   UNL     1      32.517  -7.973 -21.733  0.00  0.00    +0.175 C 
ATOM     27  C   UNL     1      32.800  -9.800 -23.287  0.00  0.00    +0.175 C 
ATOM     28  C   UNL     1      32.873  -8.438 -23.000  0.00  0.00    +0.206 C 
BRANCH  26  29
ATOM     29  O   UNL     1      32.584  -6.644 -21.440  0.00  0.00    -0.468 OA
ATOM     30  C   UNL     1      31.395  -5.879 -21.625  0.00  0.00    +0.253 C 
ENDBRANCH  26  29
BRANCH  27  31
ATOM     31  O   UNL     1      33.144 -10.268 -24.520  0.00  0.00    -0.468 OA
ATOM     32  C   UNL     1      34.439 -10.850 -24.654  0.00  0.00    +0.253 C 
ENDBRANCH  27  31
BRANCH  28  33
ATOM     33  O   UNL     1      33.291  -7.561 -23.955  0.00  0.00    -0.465 OA
ATOM     34  C   UNL     1      34.682  -7.239 -23.973  0.00  0.00    +0.253 C 
ENDBRANCH  28  33
ENDBRANCH  22  23
ENDBRANCH   2  21
TORSDOF 11
ENDMDL
MODEL 4
REMARK VINA RESULT:      -7.6      2.694      8.042
REMARK  Name = 6918405
REMARK  11 active torsions:
REMARK  status: ('A' for Active; 'I' for Inactive)
REMARK    1  A    between atoms: C_1  and  N_8
REMARK    2  A    between atoms: C_2  and  C_21
REMARK    3  A    between atoms: C_4  and  O_19
REMARK    4  A    between atoms: C_9  and  CA_11
REMARK    5  A    between atoms: CA_11  and  N_12
REMARK    6  A    between atoms: CA_11  and  C_16
REMARK    7  A    between atoms: C_16  and  O_17
REMARK    8  A    between atoms: C_22  and  C_23
REMARK    9  A    between atoms: C_26  and  O_29
REMARK   10  A    between atoms: C_27  and  O_31
REMARK   11  A    between atoms: C_28  and  O_33
REMARK                            x       y       z     vdW  Elec       q    Type
REMARK                         _______ _______ _______ _____ _____    ______ ____
ROOT
ATOM      1  C   UNL     1      33.828 -14.984 -22.025  0.00  0.00    +0.085 C 
ATOM      2  C   UNL     1      32.292 -13.298 -21.227  0.00  0.00    +0.001 C 
ATOM      3  C   UNL     1      33.238 -14.291 -20.969  0.00  0.00    +0.018 C 
ATOM      4  C   UNL     1      33.473 -14.685 -23.340  0.00  0.00    +0.152 C 
ATOM      5  C   UNL     1      31.936 -13.000 -22.542  0.00  0.00    +0.003 C 
ATOM      6  C   UNL     1      32.526 -13.693 -23.599  0.00  0.00    +0.038 C 
ENDROOT
BRANCH   1   8
ATOM      7  O   UNL     1      33.457 -17.845 -21.212  0.00  0.00    -0.277 OA
ATOM      8  N   UNL     1      34.787 -15.988 -21.748  0.00  0.00    -0.283 N 
ATOM      9  C   UNL     1      34.549 -17.305 -21.361  0.00  0.00    +0.208 C 
ATOM     10  H   UNL     1      35.731 -15.725 -21.839  0.00  0.00    +0.155 HD
BRANCH   9  11
ATOM     11  CA  UNL     1      35.861 -18.068 -21.159  0.00  0.00    +0.043 C 
BRANCH  11  12
ATOM     12  N   UNL     1      35.532 -19.340 -20.521  0.00  0.00    +0.389 N 
ATOM     13  H1  UNL     1      35.168 -19.167 -19.583  0.00  0.00    -0.088 HD
ATOM     14  H2  UNL     1      36.373 -19.917 -20.458  0.00  0.00    -0.088 HD
ATOM     15  H3  UNL     1      34.827 -19.828 -21.075  0.00  0.00    -0.088 HD
ENDBRANCH  11  12
BRANCH  11  16
ATOM     16  C   UNL     1      36.540 -18.312 -22.506  0.00  0.00    +0.124 C 
BRANCH  16  17
ATOM     17  O   UNL     1      35.683 -17.920 -23.572  0.00  0.00    -0.384 OA
ATOM     18  H   UNL     1      35.165 -17.146 -23.303  0.00  0.00    +0.210 HD
ENDBRANCH  16  17
ENDBRANCH  11  16
ENDBRANCH   9  11
ENDBRANCH   1   8
BRANCH   4  19
ATOM     19  O   UNL     1      34.037 -15.350 -24.388  0.00  0.00    -0.470 OA
ATOM     20  C   UNL     1      33.380 -15.251 -25.649  0.00  0.00    +0.253 C 
ENDBRANCH   4  19
BRANCH   2  21
ATOM     21  C   UNL     1      31.677 -12.576 -20.125  0.00  0.00    +0.000 C 
ATOM     22  C   UNL     1      31.549 -11.229 -20.049  0.00  0.00    +0.000 C 
BRANCH  22  23
ATOM     23  C   UNL     1      32.011 -10.274 -21.070  0.00  0.00    +0.006 C 
ATOM     24  C   UNL     1      32.103  -8.916 -20.765  0.00  0.00    +0.040 C 
ATOM     25  C   UNL     1      32.358 -10.727 -22.343  0.00  0.00    +0.040 C 
ATOM     26  C   UNL     1      32.796  -9.822 -23.310  0.00  0.00    +0.175 C 
ATOM     27  C   UNL     1      32.540  -8.011 -21.732  0.00  0.00    +0.175 C 
ATOM     28  C   UNL     1      32.887  -8.464 -23.005  0.00  0.00    +0.206 C 
BRANCH  26  29
ATOM     29  O   UNL     1      33.131 -10.277 -24.550  0.00  0.00    -0.468 OA
ATOM     30  C   UNL     1      34.429 -10.850 -24.700  0.00  0.00    +0.253 C 
ENDBRANCH  26  29
BRANCH  27  31
ATOM     31  O   UNL     1      32.625  -6.687 -21.420  0.00  0.00    -0.468 OA
ATOM     32  C   UNL     1      31.435  -5.912 -21.556  0.00  0.00    +0.253 C 
ENDBRANCH  27  31
BRANCH  28  33
ATOM     33  O   UNL     1      33.315  -7.580 -23.950  0.00  0.00    -0.465 OA
ATOM     34  C   UNL     1      34.704  -7.256 -23.950  0.00  0.00    +0.253 C 
ENDBRANCH  28  33
ENDBRANCH  22  23
ENDBRANCH   2  21
TORSDOF 11
ENDMDL
MODEL 5
REMARK VINA RESULT:      -7.5      2.844      8.525
REMARK  Name = 6918405
REMARK  11 active torsions:
REMARK  status: ('A' for Active; 'I' for Inactive)
REMARK    1  A    between atoms: C_1  and  N_8
REMARK    2  A    between atoms: C_2  and  C_21
REMARK    3  A    between atoms: C_4  and  O_19
REMARK    4  A    between atoms: C_9  and  CA_11
REMARK    5  A    between atoms: CA_11  and  N_12
REMARK    6  A    between atoms: CA_11  and  C_16
REMARK    7  A    between atoms: C_16  and  O_17
REMARK    8  A    between atoms: C_22  and  C_23
REMARK    9  A    between atoms: C_26  and  O_29
REMARK   10  A    between atoms: C_27  and  O_31
REMARK   11  A    between atoms: C_28  and  O_33
REMARK                            x       y       z     vdW  Elec       q    Type
REMARK                         _______ _______ _______ _____ _____    ______ ____
ROOT
ATOM      1  C   UNL     1      33.249 -12.100 -23.939  0.00  0.00    +0.085 C 
ATOM      2  C   UNL     1      34.102  -9.839 -23.979  0.00  0.00    +0.001 C 
ATOM      3  C   UNL     1      34.093 -11.137 -24.491  0.00  0.00    +0.018 C 
ATOM      4  C   UNL     1      32.412 -11.765 -22.874  0.00  0.00    +0.152 C 
ATOM      5  C   UNL     1      33.265  -9.505 -22.913  0.00  0.00    +0.003 C 
ATOM      6  C   UNL     1      32.421 -10.468 -22.361  0.00  0.00    +0.038 C 
ENDROOT
BRANCH   1   8
ATOM      7  O   UNL     1      34.738 -14.545 -23.052  0.00  0.00    -0.277 OA
ATOM      8  N   UNL     1      33.251 -13.411 -24.469  0.00  0.00    -0.283 N 
ATOM      9  C   UNL     1      33.979 -14.510 -24.016  0.00  0.00    +0.208 C 
ATOM     10  H   UNL     1      32.671 -13.567 -25.249  0.00  0.00    +0.155 HD
BRANCH   9  11
ATOM     11  CA  UNL     1      33.697 -15.750 -24.867  0.00  0.00    +0.043 C 
BRANCH  11  12
ATOM     12  N   UNL     1      33.126 -15.292 -26.131  0.00  0.00    +0.389 N 
ATOM     13  H1  UNL     1      33.875 -14.984 -26.752  0.00  0.00    -0.088 HD
ATOM     14  H2  UNL     1      32.488 -14.515 -25.955  0.00  0.00    -0.088 HD
ATOM     15  H3  UNL     1      32.613 -16.058 -26.571  0.00  0.00    -0.088 HD
ENDBRANCH  11  12
BRANCH  11  16
ATOM     16  C   UNL     1      34.993 -16.520 -25.121  0.00  0.00    +0.124 C 
BRANCH  16  17
ATOM     17  O   UNL     1      35.452 -17.128 -23.919  0.00  0.00    -0.384 OA
ATOM     18  H   UNL     1      34.984 -16.743 -23.162  0.00  0.00    +0.210 HD
ENDBRANCH  16  17
ENDBRANCH  11  16
ENDBRANCH   9  11
ENDBRANCH   1   8
BRANCH   4  19
ATOM     19  O   UNL     1      31.580 -12.691 -22.319  0.00  0.00    -0.470 OA
ATOM     20  C   UNL     1      31.941 -13.202 -21.038  0.00  0.00    +0.253 C 
ENDBRANCH   4  19
BRANCH   2  21
ATOM     21  C   UNL     1      34.982  -8.835 -24.555  0.00  0.00    +0.000 C 
ATOM     22  C   UNL     1      34.752  -7.500 -24.552  0.00  0.00    +0.000 C 
BRANCH  22  23
ATOM     23  C   UNL     1      33.571  -6.844 -23.964  0.00  0.00    +0.006 C 
ATOM     24  C   UNL     1      32.663  -6.174 -24.785  0.00  0.00    +0.040 C 
ATOM     25  C   UNL     1      33.361  -6.891 -22.586  0.00  0.00    +0.040 C 
ATOM     26  C   UNL     1      32.243  -6.270 -22.029  0.00  0.00    +0.175 C 
ATOM     27  C   UNL     1      31.545  -5.553 -24.228  0.00  0.00    +0.175 C 
ATOM     28  C   UNL     1      31.335  -5.601 -22.850  0.00  0.00    +0.206 C 
BRANCH  26  29
ATOM     29  O   UNL     1      32.049  -6.324 -20.682  0.00  0.00    -0.468 OA
ATOM     30  C   UNL     1      32.320  -7.567 -20.037  0.00  0.00    +0.253 C 
ENDBRANCH  26  29
BRANCH  27  31
ATOM     31  O   UNL     1      30.667  -4.903 -25.041  0.00  0.00    -0.468 OA
ATOM     32  C   UNL     1      31.102  -3.670 -25.612  0.00  0.00    +0.253 C 
ENDBRANCH  27  31
BRANCH  28  33
ATOM     33  O   UNL     1      30.243  -4.993 -22.306  0.00  0.00    -0.465 OA
ATOM     34  C   UNL     1      30.310  -3.579 -22.132  0.00  0.00    +0.253 C 
ENDBRANCH  28  33
ENDBRANCH  22  23
ENDBRANCH   2  21
TORSDOF 11
ENDMDL
MODEL 6
REMARK VINA RESULT:      -7.5      3.728      8.299
REMARK  Name = 6918405
REMARK  11 active torsions:
REMARK  status: ('A' for Active; 'I' for Inactive)
REMARK    1  A    between atoms: C_1  and  N_8
REMARK    2  A    between atoms: C_2  and  C_21
REMARK    3  A    between atoms: C_4  and  O_19
REMARK    4  A    between atoms: C_9  and  CA_11
REMARK    5  A    between atoms: CA_11  and  N_12
REMARK    6  A    between atoms: CA_11  and  C_16
REMARK    7  A    between atoms: C_16  and  O_17
REMARK    8  A    between atoms: C_22  and  C_23
REMARK    9  A    between atoms: C_26  and  O_29
REMARK   10  A    between atoms: C_27  and  O_31
REMARK   11  A    between atoms: C_28  and  O_33
REMARK                            x       y       z     vdW  Elec       q    Type
REMARK                         _______ _______ _______ _____ _____    ______ ____
ROOT
ATOM      1  C   UNL     1      34.356 -17.966 -21.591  0.00  0.00    +0.085 C 
ATOM      2  C   UNL     1      33.772 -15.622 -21.502  0.00  0.00    +0.001 C 
ATOM      3  C   UNL     1      33.677 -16.912 -20.979  0.00  0.00    +0.018 C 
ATOM      4  C   UNL     1      35.129 -17.730 -22.728  0.00  0.00    +0.152 C 
ATOM      5  C   UNL     1      34.545 -15.387 -22.640  0.00  0.00    +0.003 C 
ATOM      6  C   UNL     1      35.223 -16.441 -23.252  0.00  0.00    +0.038 C 
ENDROOT
BRANCH   1   8
ATOM      7  O   UNL     1      36.394 -19.642 -20.170  0.00  0.00    -0.277 OA
ATOM      8  N   UNL     1      34.251 -19.268 -21.049  0.00  0.00    -0.283 N 
ATOM      9  C   UNL     1      35.244 -20.004 -20.406  0.00  0.00    +0.208 C 
ATOM     10  H   UNL     1      33.374 -19.707 -21.136  0.00  0.00    +0.155 HD
BRANCH   9  11
ATOM     11  CA  UNL     1      34.723 -21.374 -19.966  0.00  0.00    +0.043 C 
BRANCH  11  12
ATOM     12  N   UNL     1      35.526 -21.800 -18.823  0.00  0.00    +0.389 N 
ATOM     13  H1  UNL     1      35.859 -20.980 -18.315  0.00  0.00    -0.088 HD
ATOM     14  H2  UNL     1      36.324 -22.345 -19.151  0.00  0.00    -0.088 HD
ATOM     15  H3  UNL     1      34.955 -22.375 -18.201  0.00  0.00    -0.088 HD
ENDBRANCH  11  12
BRANCH  11  16
ATOM     16  C   UNL     1      33.251 -21.276 -19.571  0.00  0.00    +0.124 C 
BRANCH  16  17
ATOM     17  O   UNL     1      32.876 -22.394 -18.775  0.00  0.00    -0.384 OA
ATOM     18  H   UNL     1      32.565 -22.086 -17.910  0.00  0.00    +0.210 HD
ENDBRANCH  16  17
ENDBRANCH  11  16
ENDBRANCH   9  11
ENDBRANCH   1   8
BRANCH   4  19
ATOM     19  O   UNL     1      35.799 -18.745 -23.343  0.00  0.00    -0.470 OA
ATOM     20  C   UNL     1      35.104 -19.457 -24.363  0.00  0.00    +0.253 C 
ENDBRANCH   4  19
BRANCH   2  21
ATOM     21  C   UNL     1      33.065 -14.524 -20.863  0.00  0.00    +0.000 C 
ATOM     22  C   UNL     1      32.700 -13.371 -21.472  0.00  0.00    +0.000 C 
BRANCH  22  23
ATOM     23  C   UNL     1      32.957 -13.038 -22.884  0.00  0.00    +0.006 C 
ATOM     24  C   UNL     1      33.642 -11.868 -23.212  0.00  0.00    +0.040 C 
ATOM     25  C   UNL     1      32.516 -13.893 -23.894  0.00  0.00    +0.040 C 
ATOM     26  C   UNL     1      32.760 -13.579 -25.231  0.00  0.00    +0.175 C 
ATOM     27  C   UNL     1      33.885 -11.553 -24.549  0.00  0.00    +0.175 C 
ATOM     28  C   UNL     1      33.444 -12.408 -25.558  0.00  0.00    +0.206 C 
BRANCH  26  29
ATOM     29  O   UNL     1      32.324 -14.422 -26.208  0.00  0.00    -0.468 OA
ATOM     30  C   UNL     1      32.970 -15.690 -26.304  0.00  0.00    +0.253 C 
ENDBRANCH  26  29
BRANCH  27  31
ATOM     31  O   UNL     1      34.555 -10.407 -24.855  0.00  0.00    -0.468 OA
ATOM     32  C   UNL     1      34.386  -9.301 -23.969  0.00  0.00    +0.253 C 
ENDBRANCH  27  31
BRANCH  28  33
ATOM     33  O   UNL     1      33.682 -12.100 -26.865  0.00  0.00    -0.465 OA
ATOM     34  C   UNL     1      34.833 -12.690 -27.469  0.00  0.00    +0.253 C 
ENDBRANCH  28  33
ENDBRANCH  22  23
ENDBRANCH   2  21
TORSDOF 11
ENDMDL
MODEL 7
REMARK VINA RESULT:      -7.5      2.859      8.539
REMARK  Name = 6918405
REMARK  11 active torsions:
REMARK  status: ('A' for Active; 'I' for Inactive)
REMARK    1  A    between atoms: C_1  and  N_8
REMARK    2  A    between atoms: C_2  and  C_21
REMARK    3  A    between atoms: C_4  and  O_19
REMARK    4  A    between atoms: C_9  and  CA_11
REMARK    5  A    between atoms: CA_11  and  N_12
REMARK    6  A    between atoms: CA_11  and  C_16
REMARK    7  A    between atoms: C_16  and  O_17
REMARK    8  A    between atoms: C_22  and  C_23
REMARK    9  A    between atoms: C_26  and  O_29
REMARK   10  A    between atoms: C_27  and  O_31
REMARK   11  A    between atoms: C_28  and  O_33
REMARK                            x       y       z     vdW  Elec       q    Type
REMARK                         _______ _______ _______ _____ _____    ______ ____
ROOT
ATOM      1  C   UNL     1      33.238 -12.078 -23.941  0.00  0.00    +0.085 C 
ATOM      2  C   UNL     1      34.094  -9.818 -23.983  0.00  0.00    +0.001 C 
ATOM      3  C   UNL     1      34.082 -11.115 -24.496  0.00  0.00    +0.018 C 
ATOM      4  C   UNL     1      32.405 -11.742 -22.874  0.00  0.00    +0.152 C 
ATOM      5  C   UNL     1      33.261  -9.483 -22.915  0.00  0.00    +0.003 C 
ATOM      6  C   UNL     1      32.417 -10.445 -22.361  0.00  0.00    +0.038 C 
ENDROOT
BRANCH   1   8
ATOM      7  O   UNL     1      34.733 -14.523 -23.062  0.00  0.00    -0.277 OA
ATOM      8  N   UNL     1      33.237 -13.389 -24.471  0.00  0.00    -0.283 N 
ATOM      9  C   UNL     1      33.968 -14.488 -24.022  0.00  0.00    +0.208 C 
ATOM     10  H   UNL     1      32.653 -13.545 -25.248  0.00  0.00    +0.155 HD
BRANCH   9  11
ATOM     11  CA  UNL     1      33.682 -15.728 -24.872  0.00  0.00    +0.043 C 
BRANCH  11  12
ATOM     12  N   UNL     1      33.099 -15.271 -26.131  0.00  0.00    +0.389 N 
ATOM     13  H1  UNL     1      33.705 -14.564 -26.550  0.00  0.00    -0.088 HD
ATOM     14  H2  UNL     1      32.178 -14.868 -25.953  0.00  0.00    -0.088 HD
ATOM     15  H3  UNL     1      33.006 -16.061 -26.770  0.00  0.00    -0.088 HD
ENDBRANCH  11  12
BRANCH  11  16
ATOM     16  C   UNL     1      34.977 -16.495 -25.136  0.00  0.00    +0.124 C 
BRANCH  16  17
ATOM     17  O   UNL     1      35.394 -17.184 -23.962  0.00  0.00    -0.384 OA
ATOM     18  H   UNL     1      34.620 -17.559 -23.515  0.00  0.00    +0.210 HD
ENDBRANCH  16  17
ENDBRANCH  11  16
ENDBRANCH   9  11
ENDBRANCH   1   8
BRANCH   4  19
ATOM     19  O   UNL     1      31.573 -12.667 -22.316  0.00  0.00    -0.470 OA
ATOM     20  C   UNL     1      31.973 -13.230 -21.069  0.00  0.00    +0.253 C 
ENDBRANCH   4  19
BRANCH   2  21
ATOM     21  C   UNL     1      34.973  -8.815 -24.562  0.00  0.00    +0.000 C 
ATOM     22  C   UNL     1      34.738  -7.481 -24.570  0.00  0.00    +0.000 C 
BRANCH  22  23
ATOM     23  C   UNL     1      33.553  -6.824 -23.993  0.00  0.00    +0.006 C 
ATOM     24  C   UNL     1      33.313  -6.899 -22.620  0.00  0.00    +0.040 C 
ATOM     25  C   UNL     1      32.669  -6.129 -24.817  0.00  0.00    +0.040 C 
ATOM     26  C   UNL     1      31.547  -5.507 -24.271  0.00  0.00    +0.175 C 
ATOM     27  C   UNL     1      32.190  -6.277 -22.073  0.00  0.00    +0.175 C 
ATOM     28  C   UNL     1      31.307  -5.581 -22.898  0.00  0.00    +0.206 C 
BRANCH  26  29
ATOM     29  O   UNL     1      30.691  -4.830 -25.087  0.00  0.00    -0.468 OA
ATOM     30  C   UNL     1      31.108  -3.543 -25.537  0.00  0.00    +0.253 C 
ENDBRANCH  26  29
BRANCH  27  31
ATOM     31  O   UNL     1      31.968  -6.358 -20.731  0.00  0.00    -0.468 OA
ATOM     32  C   UNL     1      32.645  -7.394 -20.023  0.00  0.00    +0.253 C 
ENDBRANCH  27  31
BRANCH  28  33
ATOM     33  O   UNL     1      30.210  -4.974 -22.364  0.00  0.00    -0.465 OA
ATOM     34  C   UNL     1      30.292  -3.567 -22.144  0.00  0.00    +0.253 C 
ENDBRANCH  28  33
ENDBRANCH  22  23
ENDBRANCH   2  21
TORSDOF 11
ENDMDL
MODEL 8
REMARK VINA RESULT:      -7.5      3.611      7.870
REMARK  Name = 6918405
REMARK  11 active torsions:
REMARK  status: ('A' for Active; 'I' for Inactive)
REMARK    1  A    between atoms: C_1  and  N_8
REMARK    2  A    between atoms: C_2  and  C_21
REMARK    3  A    between atoms: C_4  and  O_19
REMARK    4  A    between atoms: C_9  and  CA_11
REMARK    5  A    between atoms: CA_11  and  N_12
REMARK    6  A    between atoms: CA_11  and  C_16
REMARK    7  A    between atoms: C_16  and  O_17
REMARK    8  A    between atoms: C_22  and  C_23
REMARK    9  A    between atoms: C_26  and  O_29
REMARK   10  A    between atoms: C_27  and  O_31
REMARK   11  A    between atoms: C_28  and  O_33
REMARK                            x       y       z     vdW  Elec       q    Type
REMARK                         _______ _______ _______ _____ _____    ______ ____
ROOT
ATOM      1  C   UNL     1      34.533 -17.732 -21.305  0.00  0.00    +0.085 C 
ATOM      2  C   UNL     1      33.781 -15.443 -21.494  0.00  0.00    +0.001 C 
ATOM      3  C   UNL     1      33.824 -16.647 -20.790  0.00  0.00    +0.018 C 
ATOM      4  C   UNL     1      35.200 -17.613 -22.524  0.00  0.00    +0.152 C 
ATOM      5  C   UNL     1      34.449 -15.325 -22.713  0.00  0.00    +0.003 C 
ATOM      6  C   UNL     1      35.157 -16.410 -23.229  0.00  0.00    +0.038 C 
ENDROOT
BRANCH   1   8
ATOM      7  O   UNL     1      32.512 -19.939 -21.125  0.00  0.00    -0.277 OA
ATOM      8  N   UNL     1      34.568 -18.947 -20.580  0.00  0.00    -0.283 N 
ATOM      9  C   UNL     1      33.585 -19.933 -20.528  0.00  0.00    +0.208 C 
ATOM     10  H   UNL     1      35.380 -19.115 -20.051  0.00  0.00    +0.155 HD
BRANCH   9  11
ATOM     11  CA  UNL     1      34.012 -21.093 -19.626  0.00  0.00    +0.043 C 
BRANCH  11  12
ATOM     12  N   UNL     1      33.103 -22.207 -19.887  0.00  0.00    +0.389 N 
ATOM     13  H1  UNL     1      32.174 -21.979 -19.530  0.00  0.00    -0.088 HD
ATOM     14  H2  UNL     1      33.450 -23.046 -19.421  0.00  0.00    -0.088 HD
ATOM     15  H3  UNL     1      33.049 -22.375 -20.892  0.00  0.00    -0.088 HD
ENDBRANCH  11  12
BRANCH  11  16
ATOM     16  C   UNL     1      35.451 -21.502 -19.939  0.00  0.00    +0.124 C 
BRANCH  16  17
ATOM     17  O   UNL     1      36.365 -20.701 -19.197  0.00  0.00    -0.384 OA
ATOM     18  H   UNL     1      36.218 -20.836 -18.248  0.00  0.00    +0.210 HD
ENDBRANCH  16  17
ENDBRANCH  11  16
ENDBRANCH   9  11
ENDBRANCH   1   8
BRANCH   4  19
ATOM     19  O   UNL     1      35.899 -18.661 -23.046  0.00  0.00    -0.470 OA
ATOM     20  C   UNL     1      35.209 -19.507 -23.963  0.00  0.00    +0.253 C 
ENDBRANCH   4  19
BRANCH   2  21
ATOM     21  C   UNL     1      33.042 -14.312 -20.956  0.00  0.00    +0.000 C 
ATOM     22  C   UNL     1      32.661 -13.221 -21.663  0.00  0.00    +0.000 C 
BRANCH  22  23
ATOM     23  C   UNL     1      32.931 -13.000 -23.094  0.00  0.00    +0.006 C 
ATOM     24  C   UNL     1      32.510 -13.939 -24.036  0.00  0.00    +0.040 C 
ATOM     25  C   UNL     1      33.606 -11.852 -23.507  0.00  0.00    +0.040 C 
ATOM     26  C   UNL     1      33.861 -11.643 -24.863  0.00  0.00    +0.175 C 
ATOM     27  C   UNL     1      32.766 -13.730 -25.392  0.00  0.00    +0.175 C 
ATOM     28  C   UNL     1      33.441 -12.582 -25.805  0.00  0.00    +0.206 C 
BRANCH  26  29
ATOM     29  O   UNL     1      34.522 -10.517 -25.254  0.00  0.00    -0.468 OA
ATOM     30  C   UNL     1      34.928  -9.615 -24.227  0.00  0.00    +0.253 C 
ENDBRANCH  26  29
BRANCH  27  31
ATOM     31  O   UNL     1      32.350 -14.655 -26.301  0.00  0.00    -0.468 OA
ATOM     32  C   UNL     1      32.982 -15.934 -26.261  0.00  0.00    +0.253 C 
ENDBRANCH  27  31
BRANCH  28  33
ATOM     33  O   UNL     1      33.691 -12.378 -27.129  0.00  0.00    -0.465 OA
ATOM     34  C   UNL     1      34.905 -12.918 -27.649  0.00  0.00    +0.253 C 
ENDBRANCH  28  33
ENDBRANCH  22  23
ENDBRANCH   2  21
TORSDOF 11
ENDMDL
MODEL 9
REMARK VINA RESULT:      -7.2      1.833      3.005
REMARK  Name = 6918405
REMARK  11 active torsions:
REMARK  status: ('A' for Active; 'I' for Inactive)
REMARK    1  A    between atoms: C_1  and  N_8
REMARK    2  A    between atoms: C_2  and  C_21
REMARK    3  A    between atoms: C_4  and  O_19
REMARK    4  A    between atoms: C_9  and  CA_11
REMARK    5  A    between atoms: CA_11  and  N_12
REMARK    6  A    between atoms: CA_11  and  C_16
REMARK    7  A    between atoms: C_16  and  O_17
REMARK    8  A    between atoms: C_22  and  C_23
REMARK    9  A    between atoms: C_26  and  O_29
REMARK   10  A    between atoms: C_27  and  O_31
REMARK   11  A    between atoms: C_28  and  O_33
REMARK                            x       y       z     vdW  Elec       q    Type
REMARK                         _______ _______ _______ _____ _____    ______ ____
ROOT
ATOM      1  C   UNL     1      33.104 -11.327 -23.375  0.00  0.00    +0.085 C 
ATOM      2  C   UNL     1      33.056 -13.359 -24.681  0.00  0.00    +0.001 C 
ATOM      3  C   UNL     1      33.448 -12.029 -24.529  0.00  0.00    +0.018 C 
ATOM      4  C   UNL     1      32.368 -11.955 -22.370  0.00  0.00    +0.152 C 
ATOM      5  C   UNL     1      32.318 -13.987 -23.676  0.00  0.00    +0.003 C 
ATOM      6  C   UNL     1      31.974 -13.285 -22.521  0.00  0.00    +0.038 C 
ENDROOT
BRANCH   1   8
ATOM      7  O   UNL     1      31.544  -8.790 -23.717  0.00  0.00    -0.277 OA
ATOM      8  N   UNL     1      33.510  -9.978 -23.235  0.00  0.00    -0.283 N 
ATOM      9  C   UNL     1      32.735  -8.835 -23.420  0.00  0.00    +0.208 C 
ATOM     10  H   UNL     1      34.448  -9.830 -22.978  0.00  0.00    +0.155 HD
BRANCH   9  11
ATOM     11  CA  UNL     1      33.553  -7.565 -23.170  0.00  0.00    +0.043 C 
BRANCH  11  12
ATOM     12  N   UNL     1      34.920  -7.833 -23.609  0.00  0.00    +0.389 N 
ATOM     13  H1  UNL     1      35.289  -7.015 -24.094  0.00  0.00    -0.088 HD
ATOM     14  H2  UNL     1      34.925  -8.635 -24.241  0.00  0.00    -0.088 HD
ATOM     15  H3  UNL     1      35.504  -8.038 -22.797  0.00  0.00    -0.088 HD
ENDBRANCH  11  12
BRANCH  11  16
ATOM     16  C   UNL     1      32.964  -6.396 -23.959  0.00  0.00    +0.124 C 
BRANCH  16  17
ATOM     17  O   UNL     1      31.671  -6.066 -23.464  0.00  0.00    -0.384 OA
ATOM     18  H   UNL     1      31.742  -5.777 -22.541  0.00  0.00    +0.210 HD
ENDBRANCH  16  17
ENDBRANCH  11  16
ENDBRANCH   9  11
ENDBRANCH   1   8
BRANCH   4  19
ATOM     19  O   UNL     1      32.020 -11.287 -21.234  0.00  0.00    -0.470 OA
ATOM     20  C   UNL     1      30.629 -11.178 -20.946  0.00  0.00    +0.253 C 
ENDBRANCH   4  19
BRANCH   2  21
ATOM     21  C   UNL     1      33.415 -14.091 -25.885  0.00  0.00    +0.000 C 
ATOM     22  C   UNL     1      33.978 -15.323 -25.912  0.00  0.00    +0.000 C 
BRANCH  22  23
ATOM     23  C   UNL     1      34.320 -16.125 -24.725  0.00  0.00    +0.006 C 
ATOM     24  C   UNL     1      34.347 -17.518 -24.808  0.00  0.00    +0.040 C 
ATOM     25  C   UNL     1      34.617 -15.494 -23.517  0.00  0.00    +0.040 C 
ATOM     26  C   UNL     1      34.941 -16.254 -22.393  0.00  0.00    +0.175 C 
ATOM     27  C   UNL     1      34.671 -18.278 -23.684  0.00  0.00    +0.175 C 
ATOM     28  C   UNL     1      34.968 -17.646 -22.476  0.00  0.00    +0.206 C 
BRANCH  26  29
ATOM     29  O   UNL     1      35.229 -15.624 -21.219  0.00  0.00    -0.468 OA
ATOM     30  C   UNL     1      34.124 -15.218 -20.414  0.00  0.00    +0.253 C 
ENDBRANCH  26  29
BRANCH  27  31
ATOM     31  O   UNL     1      34.693 -19.637 -23.779  0.00  0.00    -0.468 OA
ATOM     32  C   UNL     1      34.949 -20.192 -25.068  0.00  0.00    +0.253 C 
ENDBRANCH  27  31
BRANCH  28  33
ATOM     33  O   UNL     1      35.284 -18.388 -21.378  0.00  0.00    -0.465 OA
ATOM     34  C   UNL     1      36.631 -18.847 -21.273  0.00  0.00    +0.253 C 
ENDBRANCH  28  33
ENDBRANCH  22  23
ENDBRANCH   2  21
TORSDOF 11
ENDMDL
