MODEL 1
REMARK VINA RESULT:      -7.7      0.000      0.000
REMARK  Name = 11808
REMARK  0 active torsions:
REMARK  status: ('A' for Active; 'I' for Inactive)
REMARK                            x       y       z     vdW  Elec       q    Type
REMARK                         _______ _______ _______ _____ _____    ______ ____
ROOT
ATOM      1 BR   UNL     1      36.015 -20.835 -20.179  0.00  0.00    -0.037 Br
ATOM      2  O   UNL     1      34.856 -15.099 -20.508  0.00  0.00    -0.265 OA
ATOM      3  O   UNL     1      33.897 -15.524 -25.085  0.00  0.00    -0.246 OA
ATOM      4  N   UNL     1      34.524 -17.432 -23.910  0.00  0.00    -0.266 N 
ATOM      5  N   UNL     1      34.368 -15.284 -22.803  0.00  0.00    -0.246 N 
ATOM      6  N   UNL     1      35.396 -18.034 -20.571  0.00  0.00    -0.304 N 
ATOM      7  N   UNL     1      35.209 -19.267 -22.420  0.00  0.00    -0.295 N 
ATOM      8  C   UNL     1      34.902 -17.959 -22.683  0.00  0.00    +0.132 A 
ATOM      9  C   UNL     1      35.009 -17.179 -21.563  0.00  0.00    +0.134 A 
ATOM     10  C   UNL     1      34.752 -15.776 -21.527  0.00  0.00    +0.280 A 
ATOM     11  C   UNL     1      34.237 -16.049 -24.018  0.00  0.00    +0.335 A 
ATOM     12  C   UNL     1      34.423 -18.304 -25.073  0.00  0.00    +0.136 C 
ATOM     13  C   UNL     1      34.076 -13.857 -22.893  0.00  0.00    +0.138 C 
ATOM     14  C   UNL     1      35.503 -19.278 -21.136  0.00  0.00    +0.205 C 
ATOM     15  H   UNL     1      35.566 -17.800 -19.630  0.00  0.00    +0.149 HD
ATOM     16  H   UNL     1      35.210 -20.025 -23.047  0.00  0.00    +0.150 HD
ENDROOT
TORSDOF 0
ENDMDL
MODEL 2
REMARK VINA RESULT:      -7.7      1.715      3.089
REMARK  Name = 11808
REMARK  0 active torsions:
REMARK  status: ('A' for Active; 'I' for Inactive)
REMARK                            x       y       z     vdW  Elec       q    Type
REMARK                         _______ _______ _______ _____ _____    ______ ____
ROOT
ATOM      1 BR   UNL     1      36.734 -19.325 -20.863  0.00  0.00    -0.037 Br
ATOM      2  O   UNL     1      34.806 -16.839 -25.807  0.00  0.00    -0.265 OA
ATOM      3  O   UNL     1      32.448 -13.634 -23.314  0.00  0.00    -0.246 OA
ATOM      4  N   UNL     1      33.669 -15.245 -22.161  0.00  0.00    -0.266 N 
ATOM      5  N   UNL     1      33.616 -15.219 -24.582  0.00  0.00    -0.246 N 
ATOM      6  N   UNL     1      35.667 -17.940 -23.170  0.00  0.00    -0.304 N 
ATOM      7  N   UNL     1      35.038 -17.060 -21.220  0.00  0.00    -0.295 N 
ATOM      8  C   UNL     1      34.497 -16.355 -22.261  0.00  0.00    +0.132 A 
ATOM      9  C   UNL     1      34.867 -16.875 -23.472  0.00  0.00    +0.134 A 
ATOM     10  C   UNL     1      34.459 -16.353 -24.735  0.00  0.00    +0.280 A 
ATOM     11  C   UNL     1      33.189 -14.624 -23.341  0.00  0.00    +0.335 A 
ATOM     12  C   UNL     1      33.304 -14.728 -20.849  0.00  0.00    +0.136 C 
ATOM     13  C   UNL     1      33.133 -14.594 -25.809  0.00  0.00    +0.138 C 
ATOM     14  C   UNL     1      35.739 -18.011 -21.803  0.00  0.00    +0.205 C 
ATOM     15  H   UNL     1      36.107 -18.542 -23.813  0.00  0.00    +0.149 HD
ATOM     16  H   UNL     1      34.929 -16.895 -20.256  0.00  0.00    +0.150 HD
ENDROOT
TORSDOF 0
ENDMDL
MODEL 3
REMARK VINA RESULT:      -7.6      1.388      2.875
REMARK  Name = 11808
REMARK  0 active torsions:
REMARK  status: ('A' for Active; 'I' for Inactive)
REMARK                            x       y       z     vdW  Elec       q    Type
REMARK                         _______ _______ _______ _____ _____    ______ ____
ROOT
ATOM      1 BR   UNL     1      36.151 -20.383 -20.327  0.00  0.00    -0.037 Br
ATOM      2  O   UNL     1      34.468 -18.031 -25.423  0.00  0.00    -0.265 OA
ATOM      3  O   UNL     1      33.755 -13.896 -23.315  0.00  0.00    -0.246 OA
ATOM      4  N   UNL     1      34.510 -15.676 -22.021  0.00  0.00    -0.266 N 
ATOM      5  N   UNL     1      34.104 -15.946 -24.393  0.00  0.00    -0.246 N 
ATOM      6  N   UNL     1      35.287 -19.017 -22.729  0.00  0.00    -0.304 N 
ATOM      7  N   UNL     1      35.300 -17.725 -20.911  0.00  0.00    -0.295 N 
ATOM      8  C   UNL     1      34.882 -17.013 -22.003  0.00  0.00    +0.132 A 
ATOM      9  C   UNL     1      34.865 -17.783 -23.134  0.00  0.00    +0.134 A 
ATOM     10  C   UNL     1      34.475 -17.317 -24.424  0.00  0.00    +0.280 A 
ATOM     11  C   UNL     1      34.099 -15.081 -23.239  0.00  0.00    +0.335 A 
ATOM     12  C   UNL     1      34.546 -14.896 -20.790  0.00  0.00    +0.136 C 
ATOM     13  C   UNL     1      33.685 -15.353 -25.658  0.00  0.00    +0.138 C 
ATOM     14  C   UNL     1      35.537 -18.932 -21.383  0.00  0.00    +0.205 C 
ATOM     15  H   UNL     1      35.392 -19.815 -23.295  0.00  0.00    +0.149 HD
ATOM     16  H   UNL     1      35.401 -17.408 -19.985  0.00  0.00    +0.150 HD
ENDROOT
TORSDOF 0
ENDMDL
MODEL 4
REMARK VINA RESULT:      -7.5      3.199      4.492
REMARK  Name = 11808
REMARK  0 active torsions:
REMARK  status: ('A' for Active; 'I' for Inactive)
REMARK                            x       y       z     vdW  Elec       q    Type
REMARK                         _______ _______ _______ _____ _____    ______ ____
ROOT
ATOM      1 BR   UNL     1      31.539 -11.920 -21.042  0.00  0.00    -0.037 Br
ATOM      2  O   UNL     1      34.796 -16.792 -21.090  0.00  0.00    -0.265 OA
ATOM      3  O   UNL     1      34.633 -16.892 -25.782  0.00  0.00    -0.246 OA
ATOM      4  N   UNL     1      33.532 -15.163 -24.678  0.00  0.00    -0.266 N 
ATOM      5  N   UNL     1      34.732 -16.865 -23.442  0.00  0.00    -0.246 N 
ATOM      6  N   UNL     1      33.134 -14.322 -21.302  0.00  0.00    -0.304 N 
ATOM      7  N   UNL     1      32.467 -13.467 -23.250  0.00  0.00    -0.295 N 
ATOM      8  C   UNL     1      33.213 -14.596 -23.453  0.00  0.00    +0.132 A 
ATOM      9  C   UNL     1      33.636 -15.143 -22.271  0.00  0.00    +0.134 A 
ATOM     10  C   UNL     1      34.430 -16.322 -22.164  0.00  0.00    +0.280 A 
ATOM     11  C   UNL     1      34.319 -16.342 -24.720  0.00  0.00    +0.335 A 
ATOM     12  C   UNL     1      33.059 -14.544 -25.910  0.00  0.00    +0.136 C 
ATOM     13  C   UNL     1      35.544 -18.077 -23.462  0.00  0.00    +0.138 C 
ATOM     14  C   UNL     1      32.438 -13.329 -21.940  0.00  0.00    +0.205 C 
ATOM     15  H   UNL     1      33.250 -14.425 -20.330  0.00  0.00    +0.149 HD
ATOM     16  H   UNL     1      32.047 -12.889 -23.928  0.00  0.00    +0.150 HD
ENDROOT
TORSDOF 0
ENDMDL
MODEL 5
REMARK VINA RESULT:      -7.3      9.522     11.551
REMARK  Name = 11808
REMARK  0 active torsions:
REMARK  status: ('A' for Active; 'I' for Inactive)
REMARK                            x       y       z     vdW  Elec       q    Type
REMARK                         _______ _______ _______ _____ _____    ______ ____
ROOT
ATOM      1 BR   UNL     1      31.463 -23.552 -13.703  0.00  0.00    -0.037 Br
ATOM      2  O   UNL     1      36.591 -25.808 -11.982  0.00  0.00    -0.265 OA
ATOM      3  O   UNL     1      38.776 -23.615 -15.513  0.00  0.00    -0.246 OA
ATOM      4  N   UNL     1      36.476 -23.332 -15.296  0.00  0.00    -0.266 N 
ATOM      5  N   UNL     1      37.712 -24.718 -13.742  0.00  0.00    -0.246 N 
ATOM      6  N   UNL     1      34.096 -24.551 -13.033  0.00  0.00    -0.304 N 
ATOM      7  N   UNL     1      34.064 -23.221 -14.823  0.00  0.00    -0.295 N 
ATOM      8  C   UNL     1      35.338 -23.653 -14.569  0.00  0.00    +0.132 A 
ATOM      9  C   UNL     1      35.386 -24.472 -13.474  0.00  0.00    +0.134 A 
ATOM     10  C   UNL     1      36.575 -25.075 -12.967  0.00  0.00    +0.280 A 
ATOM     11  C   UNL     1      37.729 -23.863 -14.903  0.00  0.00    +0.335 A 
ATOM     12  C   UNL     1      36.373 -22.454 -16.455  0.00  0.00    +0.136 C 
ATOM     13  C   UNL     1      38.992 -25.275 -13.319  0.00  0.00    +0.138 C 
ATOM     14  C   UNL     1      33.338 -23.782 -13.877  0.00  0.00    +0.205 C 
ATOM     15  H   UNL     1      33.773 -25.063 -12.258  0.00  0.00    +0.149 HD
ATOM     16  H   UNL     1      33.759 -22.627 -15.546  0.00  0.00    +0.150 HD
ENDROOT
TORSDOF 0
ENDMDL
MODEL 6
REMARK VINA RESULT:      -7.2      2.995      4.247
REMARK  Name = 11808
REMARK  0 active torsions:
REMARK  status: ('A' for Active; 'I' for Inactive)
REMARK                            x       y       z     vdW  Elec       q    Type
REMARK                         _______ _______ _______ _____ _____    ______ ____
ROOT
ATOM      1 BR   UNL     1      33.460 -12.030 -23.706  0.00  0.00    -0.037 Br
ATOM      2  O   UNL     1      35.138 -16.340 -20.107  0.00  0.00    -0.265 OA
ATOM      3  O   UNL     1      35.115 -19.380 -23.684  0.00  0.00    -0.246 OA
ATOM      4  N   UNL     1      34.534 -17.168 -24.116  0.00  0.00    -0.266 N 
ATOM      5  N   UNL     1      35.137 -17.884 -21.882  0.00  0.00    -0.246 N 
ATOM      6  N   UNL     1      34.285 -14.304 -22.115  0.00  0.00    -0.304 N 
ATOM      7  N   UNL     1      33.966 -14.779 -24.270  0.00  0.00    -0.295 N 
ATOM      8  C   UNL     1      34.353 -15.899 -23.585  0.00  0.00    +0.132 A 
ATOM      9  C   UNL     1      34.556 -15.635 -22.257  0.00  0.00    +0.134 A 
ATOM     10  C   UNL     1      34.964 -16.603 -21.293  0.00  0.00    +0.280 A 
ATOM     11  C   UNL     1      34.940 -18.229 -23.268  0.00  0.00    +0.335 A 
ATOM     12  C   UNL     1      34.307 -17.399 -25.537  0.00  0.00    +0.136 C 
ATOM     13  C   UNL     1      35.556 -18.962 -20.993  0.00  0.00    +0.138 C 
ATOM     14  C   UNL     1      33.935 -13.833 -23.354  0.00  0.00    +0.205 C 
ATOM     15  H   UNL     1      34.332 -13.783 -21.282  0.00  0.00    +0.149 HD
ATOM     16  H   UNL     1      33.759 -14.699 -25.229  0.00  0.00    +0.150 HD
ENDROOT
TORSDOF 0
ENDMDL
MODEL 7
REMARK VINA RESULT:      -7.2     11.599     12.411
REMARK  Name = 11808
REMARK  0 active torsions:
REMARK  status: ('A' for Active; 'I' for Inactive)
REMARK                            x       y       z     vdW  Elec       q    Type
REMARK                         _______ _______ _______ _____ _____    ______ ____
ROOT
ATOM      1 BR   UNL     1      31.731 -23.656 -13.712  0.00  0.00    -0.037 Br
ATOM      2  O   UNL     1      36.366 -26.559 -15.818  0.00  0.00    -0.265 OA
ATOM      3  O   UNL     1      39.172 -24.360 -12.762  0.00  0.00    -0.246 OA
ATOM      4  N   UNL     1      36.900 -23.855 -12.732  0.00  0.00    -0.266 N 
ATOM      5  N   UNL     1      37.795 -25.473 -14.295  0.00  0.00    -0.246 N 
ATOM      6  N   UNL     1      34.153 -24.974 -14.595  0.00  0.00    -0.304 N 
ATOM      7  N   UNL     1      34.470 -23.523 -12.931  0.00  0.00    -0.295 N 
ATOM      8  C   UNL     1      35.656 -24.104 -13.293  0.00  0.00    +0.132 A 
ATOM      9  C   UNL     1      35.490 -25.001 -14.314  0.00  0.00    +0.134 A 
ATOM     10  C   UNL     1      36.543 -25.761 -14.902  0.00  0.00    +0.280 A 
ATOM     11  C   UNL     1      38.038 -24.543 -13.221  0.00  0.00    +0.335 A 
ATOM     12  C   UNL     1      37.026 -22.891 -11.645  0.00  0.00    +0.136 C 
ATOM     13  C   UNL     1      38.954 -26.193 -14.813  0.00  0.00    +0.138 C 
ATOM     14  C   UNL     1      33.583 -24.070 -13.736  0.00  0.00    +0.205 C 
ATOM     15  H   UNL     1      33.689 -25.504 -15.282  0.00  0.00    +0.149 HD
ATOM     16  H   UNL     1      34.316 -22.850 -12.230  0.00  0.00    +0.150 HD
ENDROOT
TORSDOF 0
ENDMDL
MODEL 8
REMARK VINA RESULT:      -7.1      8.435     10.320
REMARK  Name = 11808
REMARK  0 active torsions:
REMARK  status: ('A' for Active; 'I' for Inactive)
REMARK                            x       y       z     vdW  Elec       q    Type
REMARK                         _______ _______ _______ _____ _____    ______ ____
ROOT
ATOM      1 BR   UNL     1      27.988 -22.703 -16.472  0.00  0.00    -0.037 Br
ATOM      2  O   UNL     1      32.419 -24.572 -13.124  0.00  0.00    -0.265 OA
ATOM      3  O   UNL     1      35.476 -23.531 -16.533  0.00  0.00    -0.246 OA
ATOM      4  N   UNL     1      33.218 -23.116 -16.914  0.00  0.00    -0.266 N 
ATOM      5  N   UNL     1      33.973 -24.057 -14.814  0.00  0.00    -0.246 N 
ATOM      6  N   UNL     1      30.322 -23.570 -14.996  0.00  0.00    -0.304 N 
ATOM      7  N   UNL     1      30.782 -22.791 -17.034  0.00  0.00    -0.295 N 
ATOM      8  C   UNL     1      31.930 -23.180 -16.400  0.00  0.00    +0.132 A 
ATOM      9  C   UNL     1      31.677 -23.663 -15.144  0.00  0.00    +0.134 A 
ATOM     10  C   UNL     1      32.675 -24.143 -14.245  0.00  0.00    +0.280 A 
ATOM     11  C   UNL     1      34.308 -23.561 -16.126  0.00  0.00    +0.335 A 
ATOM     12  C   UNL     1      33.437 -22.593 -18.257  0.00  0.00    +0.136 C 
ATOM     13  C   UNL     1      35.082 -24.520 -13.987  0.00  0.00    +0.138 C 
ATOM     14  C   UNL     1      29.829 -23.039 -16.159  0.00  0.00    +0.205 C 
ATOM     15  H   UNL     1      29.801 -23.833 -14.204  0.00  0.00    +0.149 HD
ATOM     16  H   UNL     1      30.689 -22.412 -17.938  0.00  0.00    +0.150 HD
ENDROOT
TORSDOF 0
ENDMDL
MODEL 9
REMARK VINA RESULT:      -7.1      3.244      5.221
REMARK  Name = 11808
REMARK  0 active torsions:
REMARK  status: ('A' for Active; 'I' for Inactive)
REMARK                            x       y       z     vdW  Elec       q    Type
REMARK                         _______ _______ _______ _____ _____    ______ ____
ROOT
ATOM      1 BR   UNL     1      33.529 -11.446 -24.137  0.00  0.00    -0.037 Br
ATOM      2  O   UNL     1      34.330 -16.980 -25.892  0.00  0.00    -0.265 OA
ATOM      3  O   UNL     1      34.998 -18.327 -21.443  0.00  0.00    -0.246 OA
ATOM      4  N   UNL     1      34.561 -16.079 -21.860  0.00  0.00    -0.266 N 
ATOM      5  N   UNL     1      34.666 -17.683 -23.671  0.00  0.00    -0.246 N 
ATOM      6  N   UNL     1      33.956 -14.237 -24.777  0.00  0.00    -0.304 N 
ATOM      7  N   UNL     1      34.087 -13.780 -22.598  0.00  0.00    -0.295 N 
ATOM      8  C   UNL     1      34.299 -15.114 -22.822  0.00  0.00    +0.132 A 
ATOM      9  C   UNL     1      34.224 -15.422 -24.153  0.00  0.00    +0.134 A 
ATOM     10  C   UNL     1      34.401 -16.731 -24.692  0.00  0.00    +0.280 A 
ATOM     11  C   UNL     1      34.759 -17.425 -22.255  0.00  0.00    +0.335 A 
ATOM     12  C   UNL     1      34.631 -15.701 -20.454  0.00  0.00    +0.136 C 
ATOM     13  C   UNL     1      34.865 -19.063 -24.100  0.00  0.00    +0.138 C 
ATOM     14  C   UNL     1      33.883 -13.279 -23.799  0.00  0.00    +0.205 C 
ATOM     15  H   UNL     1      33.838 -14.098 -25.744  0.00  0.00    +0.149 HD
ATOM     16  H   UNL     1      34.087 -13.304 -21.736  0.00  0.00    +0.150 HD
ENDROOT
TORSDOF 0
ENDMDL
