MODEL 1
REMARK VINA RESULT:     -10.1      0.000      0.000
REMARK  Name = 25150855
REMARK  7 active torsions:
REMARK  status: ('A' for Active; 'I' for Inactive)
REMARK    1  A    between atoms: C_2  and  C_10
REMARK    2  A    between atoms: C_3  and  C_18
REMARK    3  A    between atoms: C_5  and  O_26
REMARK    4  A    between atoms: N_17  and  C_20
REMARK    5  A    between atoms: C_20  and  C_21
REMARK    6  A    between atoms: C_21  and  C_23
REMARK    7  A    between atoms: C_23  and  O_24
REMARK                            x       y       z     vdW  Elec       q    Type
REMARK                         _______ _______ _______ _____ _____    ______ ____
ROOT
ATOM      1  I   UNL     1      29.783 -24.617 -15.271  0.00  0.00    -0.039 I 
ATOM      2  C   UNL     1      33.682 -23.169 -16.503  0.00  0.00    +0.003 C 
ATOM      3  C   UNL     1      34.020 -24.134 -14.315  0.00  0.00    +0.087 C 
ATOM      4  C   UNL     1      34.528 -23.486 -15.441  0.00  0.00    +0.008 C 
ATOM      5  C   UNL     1      32.667 -24.465 -14.251  0.00  0.00    +0.143 C 
ATOM      6  C   UNL     1      32.328 -23.500 -16.439  0.00  0.00    +0.009 C 
ATOM      7  C   UNL     1      31.821 -24.148 -15.314  0.00  0.00    +0.064 C 
ENDROOT
BRANCH   2  10
ATOM      8  F   UNL     1      36.417 -22.600 -16.797  0.00  0.00    -0.204 F 
ATOM      9  F   UNL     1      35.695 -20.572 -21.008  0.00  0.00    -0.204 F 
ATOM     10  C   UNL     1      34.208 -22.495 -17.670  0.00  0.00    +0.028 C 
ATOM     11  C   UNL     1      35.574 -22.234 -17.774  0.00  0.00    +0.142 C 
ATOM     12  C   UNL     1      33.344 -22.107 -18.695  0.00  0.00    +0.005 C 
ATOM     13  C   UNL     1      36.077 -21.583 -18.901  0.00  0.00    +0.059 C 
ATOM     14  C   UNL     1      33.846 -21.458 -19.822  0.00  0.00    +0.030 C 
ATOM     15  C   UNL     1      35.212 -21.196 -19.925  0.00  0.00    +0.142 C 
ENDBRANCH   2  10
BRANCH   3  18
ATOM     16  O   UNL     1      34.751 -23.951 -12.094  0.00  0.00    -0.270 OA
ATOM     17  N   UNL     1      35.964 -25.354 -13.486  0.00  0.00    -0.300 N 
ATOM     18  C   UNL     1      34.942 -24.459 -13.196  0.00  0.00    +0.249 C 
ATOM     19  H   UNL     1      36.036 -25.708 -14.402  0.00  0.00    +0.150 HD
BRANCH  17  20
ATOM     20  C   UNL     1      36.922 -25.786 -12.503  0.00  0.00    +0.101 C 
BRANCH  20  21
ATOM     21  C   UNL     1      38.319 -25.247 -12.782  0.00  0.00    +0.131 C 
BRANCH  21  23
ATOM     22  O   UNL     1      38.280 -23.910 -14.818  0.00  0.00    -0.250 OA
ATOM     23  C   UNL     1      38.558 -24.956 -14.249  0.00  0.00    +0.319 C 
BRANCH  23  24
ATOM     24  O   UNL     1      39.122 -26.057 -14.829  0.00  0.00    -0.444 OA
ATOM     25  C   UNL     1      40.546 -26.152 -14.713  0.00  0.00    +0.256 C 
ENDBRANCH  23  24
ENDBRANCH  21  23
ENDBRANCH  20  21
ENDBRANCH  17  20
ENDBRANCH   3  18
BRANCH   5  26
ATOM     26  O   UNL     1      32.191 -25.099 -13.139  0.00  0.00    -0.505 OA
ATOM     27  H   UNL     1      31.507 -25.733 -13.218  0.00  0.00    +0.292 HD
ENDBRANCH   5  26
TORSDOF 7
ENDMDL
MODEL 2
REMARK VINA RESULT:     -10.0      2.920      5.737
REMARK  Name = 25150855
REMARK  7 active torsions:
REMARK  status: ('A' for Active; 'I' for Inactive)
REMARK    1  A    between atoms: C_2  and  C_10
REMARK    2  A    between atoms: C_3  and  C_18
REMARK    3  A    between atoms: C_5  and  O_26
REMARK    4  A    between atoms: N_17  and  C_20
REMARK    5  A    between atoms: C_20  and  C_21
REMARK    6  A    between atoms: C_21  and  C_23
REMARK    7  A    between atoms: C_23  and  O_24
REMARK                            x       y       z     vdW  Elec       q    Type
REMARK                         _______ _______ _______ _____ _____    ______ ____
ROOT
ATOM      1  I   UNL     1      37.372 -24.721 -12.909  0.00  0.00    -0.039 I 
ATOM      2  C   UNL     1      34.897 -23.106 -16.084  0.00  0.00    +0.003 C 
ATOM      3  C   UNL     1      33.350 -23.873 -14.395  0.00  0.00    +0.087 C 
ATOM      4  C   UNL     1      33.588 -23.282 -15.635  0.00  0.00    +0.008 C 
ATOM      5  C   UNL     1      34.421 -24.288 -13.603  0.00  0.00    +0.143 C 
ATOM      6  C   UNL     1      35.967 -23.522 -15.293  0.00  0.00    +0.009 C 
ATOM      7  C   UNL     1      35.730 -24.113 -14.052  0.00  0.00    +0.064 C 
ENDROOT
BRANCH   2  10
ATOM      8  F   UNL     1      37.371 -21.949 -16.743  0.00  0.00    -0.204 F 
ATOM      9  F   UNL     1      35.832 -20.750 -21.051  0.00  0.00    -0.204 F 
ATOM     10  C   UNL     1      35.144 -22.494 -17.372  0.00  0.00    +0.028 C 
ATOM     11  C   UNL     1      36.388 -21.932 -17.655  0.00  0.00    +0.142 C 
ATOM     12  C   UNL     1      34.131 -22.467 -18.331  0.00  0.00    +0.005 C 
ATOM     13  C   UNL     1      36.620 -21.342 -18.898  0.00  0.00    +0.059 C 
ATOM     14  C   UNL     1      34.363 -21.878 -19.574  0.00  0.00    +0.030 C 
ATOM     15  C   UNL     1      35.608 -21.315 -19.857  0.00  0.00    +0.142 C 
ENDBRANCH   2  10
BRANCH   3  18
ATOM     16  O   UNL     1      31.624 -23.658 -12.822  0.00  0.00    -0.270 OA
ATOM     17  N   UNL     1      31.080 -24.642 -14.850  0.00  0.00    -0.300 N 
ATOM     18  C   UNL     1      31.947 -24.050 -13.940  0.00  0.00    +0.249 C 
ATOM     19  H   UNL     1      31.434 -24.925 -15.724  0.00  0.00    +0.150 HD
BRANCH  17  20
ATOM     20  C   UNL     1      29.686 -24.860 -14.567  0.00  0.00    +0.101 C 
BRANCH  20  21
ATOM     21  C   UNL     1      28.784 -24.345 -15.681  0.00  0.00    +0.131 C 
BRANCH  21  23
ATOM     22  O   UNL     1      30.073 -22.645 -16.855  0.00  0.00    -0.250 OA
ATOM     23  C   UNL     1      29.137 -22.942 -16.127  0.00  0.00    +0.319 C 
BRANCH  23  24
ATOM     24  O   UNL     1      28.246 -22.067 -15.572  0.00  0.00    -0.444 OA
ATOM     25  C   UNL     1      26.909 -22.149 -16.075  0.00  0.00    +0.256 C 
ENDBRANCH  23  24
ENDBRANCH  21  23
ENDBRANCH  20  21
ENDBRANCH  17  20
ENDBRANCH   3  18
BRANCH   5  26
ATOM     26  O   UNL     1      34.165 -24.866 -12.392  0.00  0.00    -0.505 OA
ATOM     27  H   UNL     1      34.170 -24.344 -11.614  0.00  0.00    +0.292 HD
ENDBRANCH   5  26
TORSDOF 7
ENDMDL
MODEL 3
REMARK VINA RESULT:     -10.0      3.984      7.634
REMARK  Name = 25150855
REMARK  7 active torsions:
REMARK  status: ('A' for Active; 'I' for Inactive)
REMARK    1  A    between atoms: C_2  and  C_10
REMARK    2  A    between atoms: C_3  and  C_18
REMARK    3  A    between atoms: C_5  and  O_26
REMARK    4  A    between atoms: N_17  and  C_20
REMARK    5  A    between atoms: C_20  and  C_21
REMARK    6  A    between atoms: C_21  and  C_23
REMARK    7  A    between atoms: C_23  and  O_24
REMARK                            x       y       z     vdW  Elec       q    Type
REMARK                         _______ _______ _______ _____ _____    ______ ____
ROOT
ATOM      1  I   UNL     1      34.289 -22.064 -19.294  0.00  0.00    -0.039 I 
ATOM      2  C   UNL     1      34.777 -23.890 -15.389  0.00  0.00    +0.003 C 
ATOM      3  C   UNL     1      32.409 -23.464 -15.605  0.00  0.00    +0.087 C 
ATOM      4  C   UNL     1      33.486 -23.947 -14.863  0.00  0.00    +0.008 C 
ATOM      5  C   UNL     1      32.622 -22.924 -16.873  0.00  0.00    +0.143 C 
ATOM      6  C   UNL     1      34.989 -23.350 -16.657  0.00  0.00    +0.009 C 
ATOM      7  C   UNL     1      33.912 -22.867 -17.399  0.00  0.00    +0.064 C 
ENDROOT
BRANCH   2  10
ATOM      8  F   UNL     1      35.813 -26.475 -15.761  0.00  0.00    -0.204 F 
ATOM      9  F   UNL     1      39.085 -25.805 -12.412  0.00  0.00    -0.204 F 
ATOM     10  C   UNL     1      35.894 -24.391 -14.619  0.00  0.00    +0.028 C 
ATOM     11  C   UNL     1      36.376 -25.681 -14.838  0.00  0.00    +0.142 C 
ATOM     12  C   UNL     1      36.490 -23.578 -13.654  0.00  0.00    +0.005 C 
ATOM     13  C   UNL     1      37.453 -26.160 -14.092  0.00  0.00    +0.059 C 
ATOM     14  C   UNL     1      37.568 -24.055 -12.909  0.00  0.00    +0.030 C 
ATOM     15  C   UNL     1      38.049 -25.346 -13.128  0.00  0.00    +0.142 C 
ENDBRANCH   2  10
BRANCH   3  18
ATOM     16  O   UNL     1      30.861 -23.130 -13.875  0.00  0.00    -0.270 OA
ATOM     17  N   UNL     1      30.051 -24.045 -15.846  0.00  0.00    -0.300 N 
ATOM     18  C   UNL     1      31.045 -23.534 -15.021  0.00  0.00    +0.249 C 
ATOM     19  H   UNL     1      30.298 -24.345 -16.751  0.00  0.00    +0.150 HD
BRANCH  17  20
ATOM     20  C   UNL     1      28.678 -24.155 -15.434  0.00  0.00    +0.101 C 
BRANCH  20  21
ATOM     21  C   UNL     1      27.913 -22.851 -15.622  0.00  0.00    +0.131 C 
BRANCH  21  23
ATOM     22  O   UNL     1      27.753 -23.343 -18.001  0.00  0.00    -0.250 OA
ATOM     23  C   UNL     1      27.551 -22.581 -17.067  0.00  0.00    +0.319 C 
BRANCH  23  24
ATOM     24  O   UNL     1      26.975 -21.345 -17.153  0.00  0.00    -0.444 OA
ATOM     25  C   UNL     1      25.993 -21.194 -18.183  0.00  0.00    +0.256 C 
ENDBRANCH  23  24
ENDBRANCH  21  23
ENDBRANCH  20  21
ENDBRANCH  17  20
ENDBRANCH   3  18
BRANCH   5  26
ATOM     26  O   UNL     1      31.552 -22.455 -17.582  0.00  0.00    -0.505 OA
ATOM     27  H   UNL     1      30.805 -22.114 -17.132  0.00  0.00    +0.292 HD
ENDBRANCH   5  26
TORSDOF 7
ENDMDL
MODEL 4
REMARK VINA RESULT:      -9.8      3.644      6.743
REMARK  Name = 25150855
REMARK  7 active torsions:
REMARK  status: ('A' for Active; 'I' for Inactive)
REMARK    1  A    between atoms: C_2  and  C_10
REMARK    2  A    between atoms: C_3  and  C_18
REMARK    3  A    between atoms: C_5  and  O_26
REMARK    4  A    between atoms: N_17  and  C_20
REMARK    5  A    between atoms: C_20  and  C_21
REMARK    6  A    between atoms: C_21  and  C_23
REMARK    7  A    between atoms: C_23  and  O_24
REMARK                            x       y       z     vdW  Elec       q    Type
REMARK                         _______ _______ _______ _____ _____    ______ ____
ROOT
ATOM      1  I   UNL     1      30.418 -23.512 -14.185  0.00  0.00    -0.039 I 
ATOM      2  C   UNL     1      34.593 -23.837 -15.314  0.00  0.00    +0.003 C 
ATOM      3  C   UNL     1      33.444 -23.124 -17.315  0.00  0.00    +0.087 C 
ATOM      4  C   UNL     1      34.624 -23.479 -16.661  0.00  0.00    +0.008 C 
ATOM      5  C   UNL     1      32.234 -23.127 -16.621  0.00  0.00    +0.143 C 
ATOM      6  C   UNL     1      33.384 -23.841 -14.620  0.00  0.00    +0.009 C 
ATOM      7  C   UNL     1      32.204 -23.486 -15.274  0.00  0.00    +0.064 C 
ENDROOT
BRANCH   2  10
ATOM      8  F   UNL     1      35.818 -26.338 -15.691  0.00  0.00    -0.204 F 
ATOM      9  F   UNL     1      39.311 -25.247 -12.695  0.00  0.00    -0.204 F 
ATOM     10  C   UNL     1      35.817 -24.207 -14.636  0.00  0.00    +0.028 C 
ATOM     11  C   UNL     1      36.390 -25.460 -14.854  0.00  0.00    +0.142 C 
ATOM     12  C   UNL     1      36.425 -23.305 -13.762  0.00  0.00    +0.005 C 
ATOM     13  C   UNL     1      37.569 -25.812 -14.198  0.00  0.00    +0.059 C 
ATOM     14  C   UNL     1      37.604 -23.656 -13.106  0.00  0.00    +0.030 C 
ATOM     15  C   UNL     1      38.176 -24.910 -13.324  0.00  0.00    +0.142 C 
ENDBRANCH   2  10
BRANCH   3  18
ATOM     16  O   UNL     1      33.900 -23.571 -19.571  0.00  0.00    -0.270 OA
ATOM     17  N   UNL     1      33.073 -21.465 -19.065  0.00  0.00    -0.300 N 
ATOM     18  C   UNL     1      33.503 -22.748 -18.751  0.00  0.00    +0.249 C 
ATOM     19  H   UNL     1      32.773 -20.876 -18.336  0.00  0.00    +0.150 HD
BRANCH  17  20
ATOM     20  C   UNL     1      33.047 -20.962 -20.413  0.00  0.00    +0.101 C 
BRANCH  20  21
ATOM     21  C   UNL     1      33.858 -19.682 -20.567  0.00  0.00    +0.131 C 
BRANCH  21  23
ATOM     22  O   UNL     1      35.891 -21.022 -20.536  0.00  0.00    -0.250 OA
ATOM     23  C   UNL     1      35.352 -19.925 -20.566  0.00  0.00    +0.319 C 
BRANCH  23  24
ATOM     24  O   UNL     1      35.994 -18.719 -20.591  0.00  0.00    -0.444 OA
ATOM     25  C   UNL     1      35.333 -17.686 -21.330  0.00  0.00    +0.256 C 
ENDBRANCH  23  24
ENDBRANCH  21  23
ENDBRANCH  20  21
ENDBRANCH  17  20
ENDBRANCH   3  18
BRANCH   5  26
ATOM     26  O   UNL     1      31.091 -22.776 -17.281  0.00  0.00    -0.505 OA
ATOM     27  H   UNL     1      30.979 -21.900 -17.590  0.00  0.00    +0.292 HD
ENDBRANCH   5  26
TORSDOF 7
ENDMDL
MODEL 5
REMARK VINA RESULT:      -9.5      3.042      5.047
REMARK  Name = 25150855
REMARK  7 active torsions:
REMARK  status: ('A' for Active; 'I' for Inactive)
REMARK    1  A    between atoms: C_2  and  C_10
REMARK    2  A    between atoms: C_3  and  C_18
REMARK    3  A    between atoms: C_5  and  O_26
REMARK    4  A    between atoms: N_17  and  C_20
REMARK    5  A    between atoms: C_20  and  C_21
REMARK    6  A    between atoms: C_21  and  C_23
REMARK    7  A    between atoms: C_23  and  O_24
REMARK                            x       y       z     vdW  Elec       q    Type
REMARK                         _______ _______ _______ _____ _____    ______ ____
ROOT
ATOM      1  I   UNL     1      35.233 -21.660 -19.571  0.00  0.00    -0.039 I 
ATOM      2  C   UNL     1      33.449 -23.345 -15.994  0.00  0.00    +0.003 C 
ATOM      3  C   UNL     1      35.778 -23.006 -15.448  0.00  0.00    +0.087 C 
ATOM      4  C   UNL     1      34.501 -23.430 -15.081  0.00  0.00    +0.008 C 
ATOM      5  C   UNL     1      36.003 -22.496 -16.727  0.00  0.00    +0.143 C 
ATOM      6  C   UNL     1      33.675 -22.836 -17.272  0.00  0.00    +0.009 C 
ATOM      7  C   UNL     1      34.952 -22.412 -17.639  0.00  0.00    +0.064 C 
ENDROOT
BRANCH   2  10
ATOM      8  F   UNL     1      31.123 -22.257 -17.134  0.00  0.00    -0.204 F 
ATOM      9  F   UNL     1      28.352 -25.058 -14.517  0.00  0.00    -0.204 F 
ATOM     10  C   UNL     1      32.125 -23.787 -15.614  0.00  0.00    +0.028 C 
ATOM     11  C   UNL     1      30.998 -23.219 -16.207  0.00  0.00    +0.142 C 
ATOM     12  C   UNL     1      31.978 -24.785 -14.650  0.00  0.00    +0.005 C 
ATOM     13  C   UNL     1      29.723 -23.647 -15.836  0.00  0.00    +0.059 C 
ATOM     14  C   UNL     1      30.704 -25.215 -14.280  0.00  0.00    +0.030 C 
ATOM     15  C   UNL     1      29.577 -24.645 -14.872  0.00  0.00    +0.142 C 
ENDBRANCH   2  10
BRANCH   3  18
ATOM     16  O   UNL     1      38.019 -23.352 -14.851  0.00  0.00    -0.270 OA
ATOM     17  N   UNL     1      36.533 -22.893 -13.131  0.00  0.00    -0.300 N 
ATOM     18  C   UNL     1      36.881 -23.108 -14.458  0.00  0.00    +0.249 C 
ATOM     19  H   UNL     1      35.592 -22.704 -12.914  0.00  0.00    +0.150 HD
BRANCH  17  20
ATOM     20  C   UNL     1      37.493 -22.934 -12.060  0.00  0.00    +0.101 C 
BRANCH  20  21
ATOM     21  C   UNL     1      37.931 -24.355 -11.731  0.00  0.00    +0.131 C 
BRANCH  21  23
ATOM     22  O   UNL     1      35.681 -25.064 -11.127  0.00  0.00    -0.250 OA
ATOM     23  C   UNL     1      36.770 -25.321 -11.620  0.00  0.00    +0.319 C 
BRANCH  23  24
ATOM     24  O   UNL     1      37.146 -26.523 -12.149  0.00  0.00    -0.444 OA
ATOM     25  C   UNL     1      37.203 -26.576 -13.578  0.00  0.00    +0.256 C 
ENDBRANCH  23  24
ENDBRANCH  21  23
ENDBRANCH  20  21
ENDBRANCH  17  20
ENDBRANCH   3  18
BRANCH   5  26
ATOM     26  O   UNL     1      37.262 -22.087 -17.065  0.00  0.00    -0.505 OA
ATOM     27  H   UNL     1      37.420 -21.705 -17.906  0.00  0.00    +0.292 HD
ENDBRANCH   5  26
TORSDOF 7
ENDMDL
MODEL 6
REMARK VINA RESULT:      -9.5      1.579      2.345
REMARK  Name = 25150855
REMARK  7 active torsions:
REMARK  status: ('A' for Active; 'I' for Inactive)
REMARK    1  A    between atoms: C_2  and  C_10
REMARK    2  A    between atoms: C_3  and  C_18
REMARK    3  A    between atoms: C_5  and  O_26
REMARK    4  A    between atoms: N_17  and  C_20
REMARK    5  A    between atoms: C_20  and  C_21
REMARK    6  A    between atoms: C_21  and  C_23
REMARK    7  A    between atoms: C_23  and  O_24
REMARK                            x       y       z     vdW  Elec       q    Type
REMARK                         _______ _______ _______ _____ _____    ______ ____
ROOT
ATOM      1  I   UNL     1      30.952 -23.631 -14.369  0.00  0.00    -0.039 I 
ATOM      2  C   UNL     1      34.180 -22.833 -17.155  0.00  0.00    +0.003 C 
ATOM      3  C   UNL     1      35.132 -24.279 -15.471  0.00  0.00    +0.087 C 
ATOM      4  C   UNL     1      35.270 -23.537 -16.644  0.00  0.00    +0.008 C 
ATOM      5  C   UNL     1      33.905 -24.317 -14.810  0.00  0.00    +0.143 C 
ATOM      6  C   UNL     1      32.953 -22.871 -16.494  0.00  0.00    +0.009 C 
ATOM      7  C   UNL     1      32.815 -23.613 -15.321  0.00  0.00    +0.064 C 
ENDROOT
BRANCH   2  10
ATOM      8  F   UNL     1      36.694 -22.127 -18.193  0.00  0.00    -0.204 F 
ATOM      9  F   UNL     1      34.716 -19.861 -21.843  0.00  0.00    -0.204 F 
ATOM     10  C   UNL     1      34.323 -22.062 -18.371  0.00  0.00    +0.028 C 
ATOM     11  C   UNL     1      35.592 -21.735 -18.849  0.00  0.00    +0.142 C 
ATOM     12  C   UNL     1      33.187 -21.646 -19.066  0.00  0.00    +0.005 C 
ATOM     13  C   UNL     1      35.725 -20.990 -20.022  0.00  0.00    +0.059 C 
ATOM     14  C   UNL     1      33.320 -20.903 -20.239  0.00  0.00    +0.030 C 
ATOM     15  C   UNL     1      34.589 -20.575 -20.716  0.00  0.00    +0.142 C 
ENDBRANCH   2  10
BRANCH   3  18
ATOM     16  O   UNL     1      36.267 -26.245 -14.883  0.00  0.00    -0.270 OA
ATOM     17  N   UNL     1      37.402 -24.246 -14.578  0.00  0.00    -0.300 N 
ATOM     18  C   UNL     1      36.309 -25.019 -14.947  0.00  0.00    +0.249 C 
ATOM     19  H   UNL     1      37.339 -23.267 -14.665  0.00  0.00    +0.150 HD
BRANCH  17  20
ATOM     20  C   UNL     1      38.624 -24.817 -14.076  0.00  0.00    +0.101 C 
BRANCH  20  21
ATOM     21  C   UNL     1      38.594 -25.005 -12.565  0.00  0.00    +0.131 C 
BRANCH  21  23
ATOM     22  O   UNL     1      38.227 -22.653 -12.050  0.00  0.00    -0.250 OA
ATOM     23  C   UNL     1      37.977 -23.830 -11.835  0.00  0.00    +0.319 C 
BRANCH  23  24
ATOM     24  O   UNL     1      37.107 -24.305 -10.894  0.00  0.00    -0.444 OA
ATOM     25  C   UNL     1      35.724 -24.032 -11.141  0.00  0.00    +0.256 C 
ENDBRANCH  23  24
ENDBRANCH  21  23
ENDBRANCH  20  21
ENDBRANCH  17  20
ENDBRANCH   3  18
BRANCH   5  26
ATOM     26  O   UNL     1      33.792 -25.050 -13.663  0.00  0.00    -0.505 OA
ATOM     27  H   UNL     1      34.287 -25.839 -13.560  0.00  0.00    +0.292 HD
ENDBRANCH   5  26
TORSDOF 7
ENDMDL
MODEL 7
REMARK VINA RESULT:      -9.5      3.119      5.070
REMARK  Name = 25150855
REMARK  7 active torsions:
REMARK  status: ('A' for Active; 'I' for Inactive)
REMARK    1  A    between atoms: C_2  and  C_10
REMARK    2  A    between atoms: C_3  and  C_18
REMARK    3  A    between atoms: C_5  and  O_26
REMARK    4  A    between atoms: N_17  and  C_20
REMARK    5  A    between atoms: C_20  and  C_21
REMARK    6  A    between atoms: C_21  and  C_23
REMARK    7  A    between atoms: C_23  and  O_24
REMARK                            x       y       z     vdW  Elec       q    Type
REMARK                         _______ _______ _______ _____ _____    ______ ____
ROOT
ATOM      1  I   UNL     1      34.719 -21.465 -19.858  0.00  0.00    -0.039 I 
ATOM      2  C   UNL     1      33.355 -23.382 -16.213  0.00  0.00    +0.003 C 
ATOM      3  C   UNL     1      35.745 -23.146 -15.956  0.00  0.00    +0.087 C 
ATOM      4  C   UNL     1      34.512 -23.565 -15.456  0.00  0.00    +0.008 C 
ATOM      5  C   UNL     1      35.821 -22.544 -17.211  0.00  0.00    +0.143 C 
ATOM      6  C   UNL     1      33.431 -22.779 -17.468  0.00  0.00    +0.009 C 
ATOM      7  C   UNL     1      34.664 -22.360 -17.968  0.00  0.00    +0.064 C 
ENDROOT
BRANCH   2  10
ATOM      8  F   UNL     1      33.138 -25.001 -13.927  0.00  0.00    -0.204 F 
ATOM      9  F   UNL     1      28.419 -25.054 -14.230  0.00  0.00    -0.204 F 
ATOM     10  C   UNL     1      32.076 -23.817 -15.695  0.00  0.00    +0.028 C 
ATOM     11  C   UNL     1      32.017 -24.621 -14.557  0.00  0.00    +0.142 C 
ATOM     12  C   UNL     1      30.900 -23.432 -16.339  0.00  0.00    +0.005 C 
ATOM     13  C   UNL     1      30.781 -25.039 -14.062  0.00  0.00    +0.059 C 
ATOM     14  C   UNL     1      29.665 -23.849 -15.844  0.00  0.00    +0.030 C 
ATOM     15  C   UNL     1      29.606 -24.653 -14.706  0.00  0.00    +0.142 C 
ENDBRANCH   2  10
BRANCH   3  18
ATOM     16  O   UNL     1      37.577 -22.379 -14.708  0.00  0.00    -0.270 OA
ATOM     17  N   UNL     1      37.311 -24.676 -14.877  0.00  0.00    -0.300 N 
ATOM     18  C   UNL     1      36.963 -23.355 -15.131  0.00  0.00    +0.249 C 
ATOM     19  H   UNL     1      36.755 -25.392 -15.261  0.00  0.00    +0.150 HD
BRANCH  17  20
ATOM     20  C   UNL     1      38.448 -25.040 -14.075  0.00  0.00    +0.101 C 
BRANCH  20  21
ATOM     21  C   UNL     1      38.057 -25.394 -12.646  0.00  0.00    +0.131 C 
BRANCH  21  23
ATOM     22  O   UNL     1      38.769 -23.263 -11.707  0.00  0.00    -0.250 OA
ATOM     23  C   UNL     1      37.965 -24.183 -11.742  0.00  0.00    +0.319 C 
BRANCH  23  24
ATOM     24  O   UNL     1      36.845 -24.297 -10.967  0.00  0.00    -0.444 OA
ATOM     25  C   UNL     1      35.605 -24.059 -11.640  0.00  0.00    +0.256 C 
ENDBRANCH  23  24
ENDBRANCH  21  23
ENDBRANCH  20  21
ENDBRANCH  17  20
ENDBRANCH   3  18
BRANCH   5  26
ATOM     26  O   UNL     1      37.039 -22.141 -17.681  0.00  0.00    -0.505 OA
ATOM     27  H   UNL     1      37.421 -22.571 -18.420  0.00  0.00    +0.292 HD
ENDBRANCH   5  26
TORSDOF 7
ENDMDL
MODEL 8
REMARK VINA RESULT:      -9.2      8.991     11.457
REMARK  Name = 25150855
REMARK  7 active torsions:
REMARK  status: ('A' for Active; 'I' for Inactive)
REMARK    1  A    between atoms: C_2  and  C_10
REMARK    2  A    between atoms: C_3  and  C_18
REMARK    3  A    between atoms: C_5  and  O_26
REMARK    4  A    between atoms: N_17  and  C_20
REMARK    5  A    between atoms: C_20  and  C_21
REMARK    6  A    between atoms: C_21  and  C_23
REMARK    7  A    between atoms: C_23  and  O_24
REMARK                            x       y       z     vdW  Elec       q    Type
REMARK                         _______ _______ _______ _____ _____    ______ ____
ROOT
ATOM      1  I   UNL     1      33.051 -14.613 -26.298  0.00  0.00    -0.039 I 
ATOM      2  C   UNL     1      32.824 -13.427 -22.131  0.00  0.00    +0.003 C 
ATOM      3  C   UNL     1      33.835 -15.621 -22.118  0.00  0.00    +0.087 C 
ATOM      4  C   UNL     1      33.371 -14.500 -21.428  0.00  0.00    +0.008 C 
ATOM      5  C   UNL     1      33.751 -15.668 -23.509  0.00  0.00    +0.143 C 
ATOM      6  C   UNL     1      32.740 -13.474 -23.522  0.00  0.00    +0.009 C 
ATOM      7  C   UNL     1      33.204 -14.595 -24.212  0.00  0.00    +0.064 C 
ENDROOT
BRANCH   2  10
ATOM      8  F   UNL     1      32.669 -10.889 -23.328  0.00  0.00    -0.204 F 
ATOM      9  F   UNL     1      30.963  -8.959 -19.362  0.00  0.00    -0.204 F 
ATOM     10  C   UNL     1      32.341 -12.265 -21.416  0.00  0.00    +0.028 C 
ATOM     11  C   UNL     1      32.282 -11.025 -22.051  0.00  0.00    +0.142 C 
ATOM     12  C   UNL     1      31.935 -12.389 -20.087  0.00  0.00    +0.005 C 
ATOM     13  C   UNL     1      31.817  -9.908 -21.357  0.00  0.00    +0.059 C 
ATOM     14  C   UNL     1      31.470 -11.273 -19.393  0.00  0.00    +0.030 C 
ATOM     15  C   UNL     1      31.411 -10.032 -20.028  0.00  0.00    +0.142 C 
ENDBRANCH   2  10
BRANCH   3  18
ATOM     16  O   UNL     1      35.247 -16.519 -20.475  0.00  0.00    -0.270 OA
ATOM     17  N   UNL     1      33.932 -18.016 -21.662  0.00  0.00    -0.300 N 
ATOM     18  C   UNL     1      34.412 -16.751 -21.345  0.00  0.00    +0.249 C 
ATOM     19  H   UNL     1      33.262 -18.101 -22.378  0.00  0.00    +0.150 HD
BRANCH  17  20
ATOM     20  C   UNL     1      34.375 -19.207 -20.987  0.00  0.00    +0.101 C 
BRANCH  20  21
ATOM     21  C   UNL     1      33.216 -20.119 -20.608  0.00  0.00    +0.131 C 
BRANCH  21  23
ATOM     22  O   UNL     1      32.865 -22.049 -19.164  0.00  0.00    -0.250 OA
ATOM     23  C   UNL     1      33.624 -21.232 -19.665  0.00  0.00    +0.319 C 
BRANCH  23  24
ATOM     24  O   UNL     1      34.973 -21.161 -19.459  0.00  0.00    -0.444 OA
ATOM     25  C   UNL     1      35.497 -22.078 -18.493  0.00  0.00    +0.256 C 
ENDBRANCH  23  24
ENDBRANCH  21  23
ENDBRANCH  20  21
ENDBRANCH  17  20
ENDBRANCH   3  18
BRANCH   5  26
ATOM     26  O   UNL     1      34.211 -16.775 -24.163  0.00  0.00    -0.505 OA
ATOM     27  H   UNL     1      34.625 -17.465 -23.683  0.00  0.00    +0.292 HD
ENDBRANCH   5  26
TORSDOF 7
ENDMDL
MODEL 9
REMARK VINA RESULT:      -9.1      1.999      2.994
REMARK  Name = 25150855
REMARK  7 active torsions:
REMARK  status: ('A' for Active; 'I' for Inactive)
REMARK    1  A    between atoms: C_2  and  C_10
REMARK    2  A    between atoms: C_3  and  C_18
REMARK    3  A    between atoms: C_5  and  O_26
REMARK    4  A    between atoms: N_17  and  C_20
REMARK    5  A    between atoms: C_20  and  C_21
REMARK    6  A    between atoms: C_21  and  C_23
REMARK    7  A    between atoms: C_23  and  O_24
REMARK                            x       y       z     vdW  Elec       q    Type
REMARK                         _______ _______ _______ _____ _____    ______ ____
ROOT
ATOM      1  I   UNL     1      30.562 -23.793 -16.181  0.00  0.00    -0.039 I 
ATOM      2  C   UNL     1      34.108 -22.174 -18.084  0.00  0.00    +0.003 C 
ATOM      3  C   UNL     1      34.898 -23.255 -16.074  0.00  0.00    +0.087 C 
ATOM      4  C   UNL     1      35.157 -22.530 -17.237  0.00  0.00    +0.008 C 
ATOM      5  C   UNL     1      33.591 -23.625 -15.759  0.00  0.00    +0.143 C 
ATOM      6  C   UNL     1      32.801 -22.543 -17.769  0.00  0.00    +0.009 C 
ATOM      7  C   UNL     1      32.542 -23.269 -16.606  0.00  0.00    +0.064 C 
ENDROOT
BRANCH   2  10
ATOM      8  F   UNL     1      32.151 -20.581 -19.321  0.00  0.00    -0.204 F 
ATOM      9  F   UNL     1      35.158 -19.274 -22.730  0.00  0.00    -0.204 F 
ATOM     10  C   UNL     1      34.376 -21.420 -19.290  0.00  0.00    +0.028 C 
ATOM     11  C   UNL     1      33.374 -20.642 -19.869  0.00  0.00    +0.142 C 
ATOM     12  C   UNL     1      35.643 -21.473 -19.872  0.00  0.00    +0.005 C 
ATOM     13  C   UNL     1      33.638 -19.918 -21.032  0.00  0.00    +0.059 C 
ATOM     14  C   UNL     1      35.907 -20.748 -21.034  0.00  0.00    +0.030 C 
ATOM     15  C   UNL     1      34.904 -19.971 -21.614  0.00  0.00    +0.142 C 
ENDBRANCH   2  10
BRANCH   3  18
ATOM     16  O   UNL     1      36.805 -24.511 -15.536  0.00  0.00    -0.270 OA
ATOM     17  N   UNL     1      36.149 -22.892 -14.011  0.00  0.00    -0.300 N 
ATOM     18  C   UNL     1      36.033 -23.621 -15.188  0.00  0.00    +0.249 C 
ATOM     19  H   UNL     1      35.479 -22.197 -13.819  0.00  0.00    +0.150 HD
BRANCH  17  20
ATOM     20  C   UNL     1      37.208 -23.111 -13.062  0.00  0.00    +0.101 C 
BRANCH  20  21
ATOM     21  C   UNL     1      36.681 -23.513 -11.691  0.00  0.00    +0.131 C 
BRANCH  21  23
ATOM     22  O   UNL     1      34.490 -24.531 -12.003  0.00  0.00    -0.250 OA
ATOM     23  C   UNL     1      35.681 -24.649 -11.752  0.00  0.00    +0.319 C 
BRANCH  23  24
ATOM     24  O   UNL     1      36.327 -25.819 -11.471  0.00  0.00    -0.444 OA
ATOM     25  C   UNL     1      37.295 -26.236 -12.439  0.00  0.00    +0.256 C 
ENDBRANCH  23  24
ENDBRANCH  21  23
ENDBRANCH  20  21
ENDBRANCH  17  20
ENDBRANCH   3  18
BRANCH   5  26
ATOM     26  O   UNL     1      33.360 -24.335 -14.615  0.00  0.00    -0.505 OA
ATOM     27  H   UNL     1      33.969 -24.993 -14.341  0.00  0.00    +0.292 HD
ENDBRANCH   5  26
TORSDOF 7
ENDMDL
