MODEL 1
REMARK VINA RESULT:      -6.9      0.000      0.000
REMARK  Name = 11861988
REMARK  2 active torsions:
REMARK  status: ('A' for Active; 'I' for Inactive)
REMARK    1  A    between atoms: C_1  and  C_4
REMARK    2  A    between atoms: C_2  and  N_10
REMARK                            x       y       z     vdW  Elec       q    Type
REMARK                         _______ _______ _______ _____ _____    ______ ____
ROOT
ATOM      1  C   UNL     1      34.448 -18.824 -22.070  0.00  0.00    +0.000 C 
ATOM      2  C   UNL     1      35.711 -18.344 -22.716  0.00  0.00    -0.061 C 
ATOM      3  C   UNL     1      34.744 -19.191 -23.491  0.00  0.00    -0.019 C 
ENDROOT
BRANCH   1   4
ATOM      4  C   UNL     1      34.527 -19.877 -21.017  0.00  0.00    -0.025 C 
ATOM      5  C   UNL     1      35.771 -20.329 -20.575  0.00  0.00    -0.004 C 
ATOM      6  C   UNL     1      33.358 -20.410 -20.476  0.00  0.00    -0.004 C 
ATOM      7  C   UNL     1      35.845 -21.314 -19.591  0.00  0.00    -0.000 C 
ATOM      8  C   UNL     1      33.432 -21.397 -19.492  0.00  0.00    -0.000 C 
ATOM      9  C   UNL     1      34.675 -21.848 -19.049  0.00  0.00    -0.000 C 
ENDBRANCH   1   4
BRANCH   2  10
ATOM     10  N   UNL     1      35.779 -16.921 -23.066  0.00  0.00    +0.382 N 
ATOM     11  H   UNL     1      36.755 -16.626 -23.100  0.00  0.00    -0.089 HD
ATOM     12  H   UNL     1      35.282 -16.374 -22.362  0.00  0.00    -0.089 HD
ATOM     13  H   UNL     1      35.347 -16.774 -23.978  0.00  0.00    -0.089 HD
ENDBRANCH   2  10
TORSDOF 2
ENDMDL
MODEL 2
REMARK VINA RESULT:      -6.8      0.840      1.805
REMARK  Name = 11861988
REMARK  2 active torsions:
REMARK  status: ('A' for Active; 'I' for Inactive)
REMARK    1  A    between atoms: C_1  and  C_4
REMARK    2  A    between atoms: C_2  and  N_10
REMARK                            x       y       z     vdW  Elec       q    Type
REMARK                         _______ _______ _______ _____ _____    ______ ____
ROOT
ATOM      1  C   UNL     1      34.447 -18.774 -21.618  0.00  0.00    +0.000 C 
ATOM      2  C   UNL     1      35.327 -17.601 -21.316  0.00  0.00    -0.061 C 
ATOM      3  C   UNL     1      35.633 -18.491 -22.485  0.00  0.00    -0.019 C 
ENDROOT
BRANCH   1   4
ATOM      4  C   UNL     1      34.477 -19.956 -20.709  0.00  0.00    -0.025 C 
ATOM      5  C   UNL     1      33.284 -20.490 -20.220  0.00  0.00    -0.004 C 
ATOM      6  C   UNL     1      35.697 -20.525 -20.346  0.00  0.00    -0.004 C 
ATOM      7  C   UNL     1      33.313 -21.594 -19.369  0.00  0.00    -0.000 C 
ATOM      8  C   UNL     1      35.725 -21.629 -19.493  0.00  0.00    -0.000 C 
ATOM      9  C   UNL     1      34.533 -22.164 -19.005  0.00  0.00    -0.000 C 
ENDBRANCH   1   4
BRANCH   2  10
ATOM     10  N   UNL     1      34.788 -16.271 -21.615  0.00  0.00    +0.382 N 
ATOM     11  H   UNL     1      33.783 -16.339 -21.774  0.00  0.00    -0.089 HD
ATOM     12  H   UNL     1      35.240 -15.900 -22.452  0.00  0.00    -0.089 HD
ATOM     13  H   UNL     1      34.967 -15.646 -20.828  0.00  0.00    -0.089 HD
ENDBRANCH   2  10
TORSDOF 2
ENDMDL
MODEL 3
REMARK VINA RESULT:      -6.2      2.286      4.724
REMARK  Name = 11861988
REMARK  2 active torsions:
REMARK  status: ('A' for Active; 'I' for Inactive)
REMARK    1  A    between atoms: C_1  and  C_4
REMARK    2  A    between atoms: C_2  and  N_10
REMARK                            x       y       z     vdW  Elec       q    Type
REMARK                         _______ _______ _______ _____ _____    ______ ____
ROOT
ATOM      1  C   UNL     1      34.340 -18.927 -20.983  0.00  0.00    +0.000 C 
ATOM      2  C   UNL     1      33.646 -20.252 -20.932  0.00  0.00    -0.061 C 
ATOM      3  C   UNL     1      35.119 -20.164 -20.663  0.00  0.00    -0.019 C 
ENDROOT
BRANCH   1   4
ATOM      4  C   UNL     1      34.540 -18.264 -22.303  0.00  0.00    -0.025 C 
ATOM      5  C   UNL     1      34.731 -16.883 -22.369  0.00  0.00    -0.004 C 
ATOM      6  C   UNL     1      34.534 -19.024 -23.473  0.00  0.00    -0.004 C 
ATOM      7  C   UNL     1      34.916 -16.264 -23.604  0.00  0.00    -0.000 C 
ATOM      8  C   UNL     1      34.719 -18.403 -24.709  0.00  0.00    -0.000 C 
ATOM      9  C   UNL     1      34.910 -17.023 -24.775  0.00  0.00    -0.000 C 
ENDBRANCH   1   4
BRANCH   2  10
ATOM     10  N   UNL     1      32.772 -20.501 -19.780  0.00  0.00    +0.382 N 
ATOM     11  H   UNL     1      32.214 -19.669 -19.591  0.00  0.00    -0.089 HD
ATOM     12  H   UNL     1      33.342 -20.722 -18.963  0.00  0.00    -0.089 HD
ATOM     13  H   UNL     1      32.154 -21.286 -19.985  0.00  0.00    -0.089 HD
ENDBRANCH   2  10
TORSDOF 2
ENDMDL
MODEL 4
REMARK VINA RESULT:      -6.2      2.290      4.741
REMARK  Name = 11861988
REMARK  2 active torsions:
REMARK  status: ('A' for Active; 'I' for Inactive)
REMARK    1  A    between atoms: C_1  and  C_4
REMARK    2  A    between atoms: C_2  and  N_10
REMARK                            x       y       z     vdW  Elec       q    Type
REMARK                         _______ _______ _______ _____ _____    ______ ____
ROOT
ATOM      1  C   UNL     1      34.353 -18.934 -20.957  0.00  0.00    +0.000 C 
ATOM      2  C   UNL     1      33.647 -20.254 -20.917  0.00  0.00    -0.061 C 
ATOM      3  C   UNL     1      35.124 -20.182 -20.660  0.00  0.00    -0.019 C 
ENDROOT
BRANCH   1   4
ATOM      4  C   UNL     1      34.548 -18.256 -22.271  0.00  0.00    -0.025 C 
ATOM      5  C   UNL     1      34.553 -19.005 -23.448  0.00  0.00    -0.004 C 
ATOM      6  C   UNL     1      34.727 -16.874 -22.321  0.00  0.00    -0.004 C 
ATOM      7  C   UNL     1      34.737 -18.370 -24.676  0.00  0.00    -0.000 C 
ATOM      8  C   UNL     1      34.912 -16.240 -23.551  0.00  0.00    -0.000 C 
ATOM      9  C   UNL     1      34.916 -16.987 -24.728  0.00  0.00    -0.000 C 
ENDBRANCH   1   4
BRANCH   2  10
ATOM     10  N   UNL     1      32.781 -20.510 -19.762  0.00  0.00    +0.382 N 
ATOM     11  H   UNL     1      33.128 -21.321 -19.249  0.00  0.00    -0.089 HD
ATOM     12  H   UNL     1      31.830 -20.692 -20.083  0.00  0.00    -0.089 HD
ATOM     13  H   UNL     1      32.782 -19.694 -19.149  0.00  0.00    -0.089 HD
ENDBRANCH   2  10
TORSDOF 2
ENDMDL
MODEL 5
REMARK VINA RESULT:      -6.1      3.579      5.576
REMARK  Name = 11861988
REMARK  2 active torsions:
REMARK  status: ('A' for Active; 'I' for Inactive)
REMARK    1  A    between atoms: C_1  and  C_4
REMARK    2  A    between atoms: C_2  and  N_10
REMARK                            x       y       z     vdW  Elec       q    Type
REMARK                         _______ _______ _______ _____ _____    ______ ____
ROOT
ATOM      1  C   UNL     1      33.864 -23.216 -18.048  0.00  0.00    +0.000 C 
ATOM      2  C   UNL     1      34.106 -23.020 -16.583  0.00  0.00    -0.061 C 
ATOM      3  C   UNL     1      32.703 -23.109 -17.109  0.00  0.00    -0.019 C 
ENDROOT
BRANCH   1   4
ATOM      4  C   UNL     1      34.145 -22.092 -18.986  0.00  0.00    -0.025 C 
ATOM      5  C   UNL     1      33.093 -21.327 -19.492  0.00  0.00    -0.004 C 
ATOM      6  C   UNL     1      35.458 -21.807 -19.358  0.00  0.00    -0.004 C 
ATOM      7  C   UNL     1      33.357 -20.277 -20.371  0.00  0.00    -0.000 C 
ATOM      8  C   UNL     1      35.721 -20.757 -20.239  0.00  0.00    -0.000 C 
ATOM      9  C   UNL     1      34.671 -19.991 -20.744  0.00  0.00    -0.000 C 
ENDBRANCH   1   4
BRANCH   2  10
ATOM     10  N   UNL     1      34.611 -24.174 -15.832  0.00  0.00    +0.382 N 
ATOM     11  H   UNL     1      34.457 -25.026 -16.373  0.00  0.00    -0.089 HD
ATOM     12  H   UNL     1      34.119 -24.242 -14.941  0.00  0.00    -0.089 HD
ATOM     13  H   UNL     1      35.610 -24.057 -15.660  0.00  0.00    -0.089 HD
ENDBRANCH   2  10
TORSDOF 2
ENDMDL
MODEL 6
REMARK VINA RESULT:      -6.1      3.423      5.011
REMARK  Name = 11861988
REMARK  2 active torsions:
REMARK  status: ('A' for Active; 'I' for Inactive)
REMARK    1  A    between atoms: C_1  and  C_4
REMARK    2  A    between atoms: C_2  and  N_10
REMARK                            x       y       z     vdW  Elec       q    Type
REMARK                         _______ _______ _______ _____ _____    ______ ____
ROOT
ATOM      1  C   UNL     1      34.498 -14.895 -22.974  0.00  0.00    +0.000 C 
ATOM      2  C   UNL     1      33.651 -13.973 -23.795  0.00  0.00    -0.061 C 
ATOM      3  C   UNL     1      33.183 -14.419 -22.441  0.00  0.00    -0.019 C 
ENDROOT
BRANCH   1   4
ATOM      4  C   UNL     1      34.639 -16.318 -23.396  0.00  0.00    -0.025 C 
ATOM      5  C   UNL     1      35.066 -17.278 -22.478  0.00  0.00    -0.004 C 
ATOM      6  C   UNL     1      34.346 -16.688 -24.708  0.00  0.00    -0.004 C 
ATOM      7  C   UNL     1      35.199 -18.609 -22.873  0.00  0.00    -0.000 C 
ATOM      8  C   UNL     1      34.480 -18.020 -25.103  0.00  0.00    -0.000 C 
ATOM      9  C   UNL     1      34.906 -18.980 -24.186  0.00  0.00    -0.000 C 
ENDBRANCH   1   4
BRANCH   2  10
ATOM     10  N   UNL     1      34.107 -12.584 -23.919  0.00  0.00    +0.382 N 
ATOM     11  H   UNL     1      33.389 -12.031 -24.386  0.00  0.00    -0.089 HD
ATOM     12  H   UNL     1      34.969 -12.556 -24.465  0.00  0.00    -0.089 HD
ATOM     13  H   UNL     1      34.282 -12.200 -22.989  0.00  0.00    -0.089 HD
ENDBRANCH   2  10
TORSDOF 2
ENDMDL
MODEL 7
REMARK VINA RESULT:      -6.1      3.414      5.063
REMARK  Name = 11861988
REMARK  2 active torsions:
REMARK  status: ('A' for Active; 'I' for Inactive)
REMARK    1  A    between atoms: C_1  and  C_4
REMARK    2  A    between atoms: C_2  and  N_10
REMARK                            x       y       z     vdW  Elec       q    Type
REMARK                         _______ _______ _______ _____ _____    ______ ____
ROOT
ATOM      1  C   UNL     1      34.498 -14.902 -22.964  0.00  0.00    +0.000 C 
ATOM      2  C   UNL     1      33.652 -13.977 -23.783  0.00  0.00    -0.061 C 
ATOM      3  C   UNL     1      33.183 -14.428 -22.431  0.00  0.00    -0.019 C 
ENDROOT
BRANCH   1   4
ATOM      4  C   UNL     1      34.639 -16.324 -23.391  0.00  0.00    -0.025 C 
ATOM      5  C   UNL     1      34.355 -16.689 -24.708  0.00  0.00    -0.004 C 
ATOM      6  C   UNL     1      35.052 -17.289 -22.473  0.00  0.00    -0.004 C 
ATOM      7  C   UNL     1      34.485 -18.019 -25.105  0.00  0.00    -0.000 C 
ATOM      8  C   UNL     1      35.180 -18.620 -22.871  0.00  0.00    -0.000 C 
ATOM      9  C   UNL     1      34.898 -18.985 -24.187  0.00  0.00    -0.000 C 
ENDBRANCH   1   4
BRANCH   2  10
ATOM     10  N   UNL     1      34.109 -12.588 -23.901  0.00  0.00    +0.382 N 
ATOM     11  H   UNL     1      34.914 -12.547 -24.526  0.00  0.00    -0.089 HD
ATOM     12  H   UNL     1      34.375 -12.238 -22.980  0.00  0.00    -0.089 HD
ATOM     13  H   UNL     1      33.355 -12.013 -24.278  0.00  0.00    -0.089 HD
ENDBRANCH   2  10
TORSDOF 2
ENDMDL
MODEL 8
REMARK VINA RESULT:      -6.0      2.936      4.995
REMARK  Name = 11861988
REMARK  2 active torsions:
REMARK  status: ('A' for Active; 'I' for Inactive)
REMARK    1  A    between atoms: C_1  and  C_4
REMARK    2  A    between atoms: C_2  and  N_10
REMARK                            x       y       z     vdW  Elec       q    Type
REMARK                         _______ _______ _______ _____ _____    ______ ____
ROOT
ATOM      1  C   UNL     1      35.603 -18.292 -21.894  0.00  0.00    +0.000 C 
ATOM      2  C   UNL     1      34.948 -19.229 -20.927  0.00  0.00    -0.061 C 
ATOM      3  C   UNL     1      34.767 -19.424 -22.404  0.00  0.00    -0.019 C 
ENDROOT
BRANCH   1   4
ATOM      4  C   UNL     1      35.088 -16.898 -22.014  0.00  0.00    -0.025 C 
ATOM      5  C   UNL     1      34.949 -16.312 -23.273  0.00  0.00    -0.004 C 
ATOM      6  C   UNL     1      34.748 -16.180 -20.868  0.00  0.00    -0.004 C 
ATOM      7  C   UNL     1      34.469 -15.007 -23.384  0.00  0.00    -0.000 C 
ATOM      8  C   UNL     1      34.268 -14.874 -20.980  0.00  0.00    -0.000 C 
ATOM      9  C   UNL     1      34.128 -14.288 -22.238  0.00  0.00    -0.000 C 
ENDBRANCH   1   4
BRANCH   2  10
ATOM     10  N   UNL     1      35.819 -20.182 -20.231  0.00  0.00    +0.382 N 
ATOM     11  H   UNL     1      35.689 -20.089 -19.224  0.00  0.00    -0.089 HD
ATOM     12  H   UNL     1      36.793 -19.988 -20.468  0.00  0.00    -0.089 HD
ATOM     13  H   UNL     1      35.583 -21.132 -20.519  0.00  0.00    -0.089 HD
ENDBRANCH   2  10
TORSDOF 2
ENDMDL
MODEL 9
REMARK VINA RESULT:      -6.0      2.910      5.530
REMARK  Name = 11861988
REMARK  2 active torsions:
REMARK  status: ('A' for Active; 'I' for Inactive)
REMARK    1  A    between atoms: C_1  and  C_4
REMARK    2  A    between atoms: C_2  and  N_10
REMARK                            x       y       z     vdW  Elec       q    Type
REMARK                         _______ _______ _______ _____ _____    ______ ____
ROOT
ATOM      1  C   UNL     1      35.568 -18.043 -22.914  0.00  0.00    +0.000 C 
ATOM      2  C   UNL     1      35.145 -18.468 -21.542  0.00  0.00    -0.061 C 
ATOM      3  C   UNL     1      34.829 -19.331 -22.728  0.00  0.00    -0.019 C 
ENDROOT
BRANCH   1   4
ATOM      4  C   UNL     1      34.873 -16.894 -23.562  0.00  0.00    -0.025 C 
ATOM      5  C   UNL     1      34.423 -17.004 -24.879  0.00  0.00    -0.004 C 
ATOM      6  C   UNL     1      34.675 -15.709 -22.854  0.00  0.00    -0.004 C 
ATOM      7  C   UNL     1      33.775 -15.929 -25.486  0.00  0.00    -0.000 C 
ATOM      8  C   UNL     1      34.027 -14.633 -23.462  0.00  0.00    -0.000 C 
ATOM      9  C   UNL     1      33.576 -14.743 -24.777  0.00  0.00    -0.000 C 
ENDBRANCH   1   4
BRANCH   2  10
ATOM     10  N   UNL     1      36.199 -18.939 -20.637  0.00  0.00    +0.382 N 
ATOM     11  H   UNL     1      36.069 -19.933 -20.451  0.00  0.00    -0.089 HD
ATOM     12  H   UNL     1      36.152 -18.419 -19.760  0.00  0.00    -0.089 HD
ATOM     13  H   UNL     1      37.111 -18.791 -21.071  0.00  0.00    -0.089 HD
ENDBRANCH   2  10
TORSDOF 2
ENDMDL
