MODEL 1
REMARK VINA RESULT:     -11.7      0.000      0.000
REMARK  Name = 24795070
REMARK  5 active torsions:
REMARK  status: ('A' for Active; 'I' for Inactive)
REMARK    1  A    between atoms: N_1  and  C_23
REMARK    2  A    between atoms: C_9  and  C_12
REMARK    3  A    between atoms: C_15  and  O_18
REMARK    4  A    between atoms: O_18  and  C_22
REMARK    5  A    between atoms: C_23  and  C_25
REMARK                            x       y       z     vdW  Elec       q    Type
REMARK                         _______ _______ _______ _____ _____    ______ ____
ROOT
ATOM      1  N   UNL     1      32.720 -22.607 -18.544  0.00  0.00    -0.317 N 
ATOM      2  N   UNL     1      33.625 -23.556 -15.290  0.00  0.00    -0.170 N 
ATOM      3  N   UNL     1      33.783 -23.225 -16.599  0.00  0.00    -0.158 NA
ATOM      4  N   UNL     1      32.653 -23.978 -13.328  0.00  0.00    -0.226 NA
ATOM      5  C   UNL     1      32.673 -22.946 -17.239  0.00  0.00    +0.147 C 
ATOM      6  C   UNL     1      31.325 -22.990 -16.574  0.00  0.00    +0.039 C 
ATOM      7  C   UNL     1      32.443 -23.626 -14.580  0.00  0.00    +0.155 C 
ATOM      8  C   UNL     1      31.257 -23.325 -15.281  0.00  0.00    +0.039 C 
ATOM      9  C   UNL     1      34.634 -23.885 -14.422  0.00  0.00    +0.095 C 
ATOM     10  C   UNL     1      34.011 -24.140 -13.224  0.00  0.00    +0.117 C 
ATOM     11  H   UNL     1      31.875 -22.401 -19.005  0.00  0.00    +0.148 HD
ENDROOT
BRANCH   9  12
ATOM     12  C   UNL     1      36.032 -23.929 -14.779  0.00  0.00    +0.020 C 
ATOM     13  C   UNL     1      36.836 -24.971 -14.319  0.00  0.00    +0.039 C 
ATOM     14  C   UNL     1      36.577 -22.928 -15.584  0.00  0.00    +0.002 C 
ATOM     15  C   UNL     1      38.187 -25.013 -14.664  0.00  0.00    +0.147 C 
ATOM     16  C   UNL     1      37.928 -22.971 -15.928  0.00  0.00    +0.003 C 
ATOM     17  C   UNL     1      38.733 -24.012 -15.468  0.00  0.00    +0.037 C 
BRANCH  15  18
ATOM     18  O   UNL     1      38.973 -26.030 -14.216  0.00  0.00    -0.404 OA
BRANCH  18  22
ATOM     19  F   UNL     1      40.769 -25.931 -15.627  0.00  0.00    -0.133 F 
ATOM     20  F   UNL     1      40.977 -26.926 -13.693  0.00  0.00    -0.133 F 
ATOM     21  F   UNL     1      40.811 -24.747 -13.761  0.00  0.00    -0.133 F 
ATOM     22  C   UNL     1      40.384 -25.893 -14.334  0.00  0.00    +0.575 C 
ENDBRANCH  18  22
ENDBRANCH  15  18
ENDBRANCH   9  12
BRANCH   1  23
ATOM     23  C   UNL     1      33.945 -22.528 -19.294  0.00  0.00    +0.088 C 
BRANCH  23  25
ATOM     24  N   UNL     1      34.789 -19.021 -21.670  0.00  0.00    +0.386 N 
ATOM     25  C   UNL     1      34.242 -21.075 -19.650  0.00  0.00    +0.015 C 
ATOM     26  C   UNL     1      33.146 -20.492 -20.548  0.00  0.00    -0.021 C 
ATOM     27  C   UNL     1      35.603 -20.944 -20.342  0.00  0.00    -0.021 C 
ATOM     28  C   UNL     1      33.487 -19.068 -20.990  0.00  0.00    -0.077 C 
ATOM     29  C   UNL     1      35.863 -19.504 -20.791  0.00  0.00    -0.077 C 
ATOM     30  C   UNL     1      35.076 -17.663 -22.132  0.00  0.00    -0.101 C 
ATOM     31  H   UNL     1      34.742 -19.639 -22.480  0.00  0.00    -0.080 HD
ENDBRANCH  23  25
ENDBRANCH   1  23
TORSDOF 5
ENDMDL
MODEL 2
REMARK VINA RESULT:     -11.7     13.380     16.902
REMARK  Name = 24795070
REMARK  5 active torsions:
REMARK  status: ('A' for Active; 'I' for Inactive)
REMARK    1  A    between atoms: N_1  and  C_23
REMARK    2  A    between atoms: C_9  and  C_12
REMARK    3  A    between atoms: C_15  and  O_18
REMARK    4  A    between atoms: O_18  and  C_22
REMARK    5  A    between atoms: C_23  and  C_25
REMARK                            x       y       z     vdW  Elec       q    Type
REMARK                         _______ _______ _______ _____ _____    ______ ____
ROOT
ATOM      1  N   UNL     1      32.049 -12.508 -22.518  0.00  0.00    -0.317 N 
ATOM      2  N   UNL     1      32.242  -9.293 -21.127  0.00  0.00    -0.170 N 
ATOM      3  N   UNL     1      32.332 -10.269 -22.069  0.00  0.00    -0.158 NA
ATOM      4  N   UNL     1      31.870  -8.277 -19.178  0.00  0.00    -0.226 NA
ATOM      5  C   UNL     1      31.994 -11.469 -21.660  0.00  0.00    +0.147 C 
ATOM      6  C   UNL     1      31.541 -11.744 -20.253  0.00  0.00    +0.039 C 
ATOM      7  C   UNL     1      31.840  -9.431 -19.814  0.00  0.00    +0.155 C 
ATOM      8  C   UNL     1      31.481 -10.726 -19.387  0.00  0.00    +0.039 C 
ATOM      9  C   UNL     1      32.540  -7.969 -21.319  0.00  0.00    +0.095 C 
ATOM     10  C   UNL     1      32.304  -7.367 -20.107  0.00  0.00    +0.117 C 
ATOM     11  H   UNL     1      31.790 -13.400 -22.190  0.00  0.00    +0.148 HD
ENDROOT
BRANCH   9  12
ATOM     12  C   UNL     1      33.001  -7.412 -22.568  0.00  0.00    +0.020 C 
ATOM     13  C   UNL     1      32.144  -6.625 -23.338  0.00  0.00    +0.039 C 
ATOM     14  C   UNL     1      34.302  -7.661 -23.004  0.00  0.00    +0.002 C 
ATOM     15  C   UNL     1      32.590  -6.087 -24.546  0.00  0.00    +0.147 C 
ATOM     16  C   UNL     1      34.746  -7.123 -24.212  0.00  0.00    +0.003 C 
ATOM     17  C   UNL     1      33.891  -6.336 -24.983  0.00  0.00    +0.037 C 
BRANCH  15  18
ATOM     18  O   UNL     1      31.755  -5.319 -25.297  0.00  0.00    -0.404 OA
BRANCH  18  22
ATOM     19  F   UNL     1      32.036  -3.569 -23.853  0.00  0.00    -0.133 F 
ATOM     20  F   UNL     1      30.628  -3.375 -25.512  0.00  0.00    -0.133 F 
ATOM     21  F   UNL     1      32.775  -3.370 -25.926  0.00  0.00    -0.133 F 
ATOM     22  C   UNL     1      31.815  -3.906 -25.141  0.00  0.00    +0.575 C 
ENDBRANCH  18  22
ENDBRANCH  15  18
ENDBRANCH   9  12
BRANCH   1  23
ATOM     23  C   UNL     1      32.465 -12.378 -23.889  0.00  0.00    +0.088 C 
BRANCH  23  25
ATOM     24  N   UNL     1      34.012 -16.373 -24.442  0.00  0.00    +0.386 N 
ATOM     25  C   UNL     1      33.428 -13.506 -24.246  0.00  0.00    +0.015 C 
ATOM     26  C   UNL     1      32.856 -14.388 -25.361  0.00  0.00    -0.021 C 
ATOM     27  C   UNL     1      33.748 -14.366 -23.019  0.00  0.00    -0.021 C 
ATOM     28  C   UNL     1      33.771 -15.578 -25.655  0.00  0.00    -0.077 C 
ATOM     29  C   UNL     1      34.634 -15.558 -23.389  0.00  0.00    -0.077 C 
ATOM     30  C   UNL     1      34.845 -17.535 -24.750  0.00  0.00    -0.101 C 
ATOM     31  H   UNL     1      33.110 -16.700 -24.096  0.00  0.00    -0.080 HD
ENDBRANCH  23  25
ENDBRANCH   1  23
TORSDOF 5
ENDMDL
MODEL 3
REMARK VINA RESULT:     -11.4      5.685      7.473
REMARK  Name = 24795070
REMARK  5 active torsions:
REMARK  status: ('A' for Active; 'I' for Inactive)
REMARK    1  A    between atoms: N_1  and  C_23
REMARK    2  A    between atoms: C_9  and  C_12
REMARK    3  A    between atoms: C_15  and  O_18
REMARK    4  A    between atoms: O_18  and  C_22
REMARK    5  A    between atoms: C_23  and  C_25
REMARK                            x       y       z     vdW  Elec       q    Type
REMARK                         _______ _______ _______ _____ _____    ______ ____
ROOT
ATOM      1  N   UNL     1      34.713 -22.571 -18.132  0.00  0.00    -0.317 N 
ATOM      2  N   UNL     1      32.932 -23.587 -15.285  0.00  0.00    -0.170 N 
ATOM      3  N   UNL     1      33.147 -23.223 -16.577  0.00  0.00    -0.158 NA
ATOM      4  N   UNL     1      33.317 -24.073 -13.144  0.00  0.00    -0.226 NA
ATOM      5  C   UNL     1      34.394 -22.944 -16.876  0.00  0.00    +0.147 C 
ATOM      6  C   UNL     1      35.503 -23.021 -15.863  0.00  0.00    +0.039 C 
ATOM      7  C   UNL     1      33.871 -23.693 -14.278  0.00  0.00    +0.155 C 
ATOM      8  C   UNL     1      35.206 -23.389 -14.612  0.00  0.00    +0.039 C 
ATOM      9  C   UNL     1      31.720 -23.924 -14.742  0.00  0.00    +0.095 C 
ATOM     10  C   UNL     1      31.983 -24.217 -13.426  0.00  0.00    +0.117 C 
ATOM     11  H   UNL     1      35.655 -22.366 -18.334  0.00  0.00    +0.148 HD
ENDROOT
BRANCH   9  12
ATOM     12  C   UNL     1      30.476 -23.938 -15.475  0.00  0.00    +0.020 C 
ATOM     13  C   UNL     1      29.857 -22.737 -15.821  0.00  0.00    +0.039 C 
ATOM     14  C   UNL     1      29.894 -25.153 -15.836  0.00  0.00    +0.002 C 
ATOM     15  C   UNL     1      28.655 -22.751 -16.528  0.00  0.00    +0.147 C 
ATOM     16  C   UNL     1      28.692 -25.166 -16.543  0.00  0.00    +0.003 C 
ATOM     17  C   UNL     1      28.072 -23.966 -16.889  0.00  0.00    +0.037 C 
BRANCH  15  18
ATOM     18  O   UNL     1      28.051 -21.580 -16.866  0.00  0.00    -0.404 OA
BRANCH  18  22
ATOM     19  F   UNL     1      26.550 -22.367 -18.402  0.00  0.00    -0.133 F 
ATOM     20  F   UNL     1      26.288 -20.362 -17.575  0.00  0.00    -0.133 F 
ATOM     21  F   UNL     1      25.894 -22.099 -16.308  0.00  0.00    -0.133 F 
ATOM     22  C   UNL     1      26.692 -21.619 -17.287  0.00  0.00    +0.575 C 
ENDBRANCH  18  22
ENDBRANCH  15  18
ENDBRANCH   9  12
BRANCH   1  23
ATOM     23  C   UNL     1      33.746 -22.458 -19.191  0.00  0.00    +0.088 C 
BRANCH  23  25
ATOM     24  N   UNL     1      35.000 -18.652 -20.803  0.00  0.00    +0.386 N 
ATOM     25  C   UNL     1      34.204 -21.408 -20.200  0.00  0.00    +0.015 C 
ATOM     26  C   UNL     1      35.582 -20.849 -19.827  0.00  0.00    -0.021 C 
ATOM     27  C   UNL     1      33.191 -20.263 -20.300  0.00  0.00    -0.021 C 
ATOM     28  C   UNL     1      36.002 -19.726 -20.777  0.00  0.00    -0.077 C 
ATOM     29  C   UNL     1      33.690 -19.159 -21.235  0.00  0.00    -0.077 C 
ATOM     30  C   UNL     1      35.441 -17.563 -21.675  0.00  0.00    -0.101 C 
ATOM     31  H   UNL     1      34.901 -18.291 -19.854  0.00  0.00    -0.080 HD
ENDBRANCH  23  25
ENDBRANCH   1  23
TORSDOF 5
ENDMDL
MODEL 4
REMARK VINA RESULT:     -11.4      8.395     12.737
REMARK  Name = 24795070
REMARK  5 active torsions:
REMARK  status: ('A' for Active; 'I' for Inactive)
REMARK    1  A    between atoms: N_1  and  C_23
REMARK    2  A    between atoms: C_9  and  C_12
REMARK    3  A    between atoms: C_15  and  O_18
REMARK    4  A    between atoms: O_18  and  C_22
REMARK    5  A    between atoms: C_23  and  C_25
REMARK                            x       y       z     vdW  Elec       q    Type
REMARK                         _______ _______ _______ _____ _____    ______ ____
ROOT
ATOM      1  N   UNL     1      33.870 -10.708 -24.980  0.00  0.00    -0.317 N 
ATOM      2  N   UNL     1      33.646 -14.206 -25.121  0.00  0.00    -0.170 N 
ATOM      3  N   UNL     1      33.823 -12.973 -24.577  0.00  0.00    -0.158 NA
ATOM      4  N   UNL     1      33.254 -15.808 -26.622  0.00  0.00    -0.226 NA
ATOM      5  C   UNL     1      33.711 -11.973 -25.419  0.00  0.00    +0.147 C 
ATOM      6  C   UNL     1      33.408 -12.176 -26.878  0.00  0.00    +0.039 C 
ATOM      7  C   UNL     1      33.363 -14.508 -26.439  0.00  0.00    +0.155 C 
ATOM      8  C   UNL     1      33.246 -13.424 -27.332  0.00  0.00    +0.039 C 
ATOM      9  C   UNL     1      33.714 -15.395 -24.443  0.00  0.00    +0.095 C 
ATOM     10  C   UNL     1      33.471 -16.363 -25.387  0.00  0.00    +0.117 C 
ATOM     11  H   UNL     1      33.781  -9.972 -25.629  0.00  0.00    +0.148 HD
ENDROOT
BRANCH   9  12
ATOM     12  C   UNL     1      33.992 -15.511 -23.031  0.00  0.00    +0.020 C 
ATOM     13  C   UNL     1      34.658 -16.635 -22.542  0.00  0.00    +0.039 C 
ATOM     14  C   UNL     1      33.593 -14.499 -22.158  0.00  0.00    +0.002 C 
ATOM     15  C   UNL     1      34.925 -16.747 -21.177  0.00  0.00    +0.147 C 
ATOM     16  C   UNL     1      33.861 -14.612 -20.793  0.00  0.00    +0.003 C 
ATOM     17  C   UNL     1      34.525 -15.736 -20.303  0.00  0.00    +0.037 C 
BRANCH  15  18
ATOM     18  O   UNL     1      35.574 -17.843 -20.699  0.00  0.00    -0.404 OA
BRANCH  18  22
ATOM     19  F   UNL     1      33.695 -19.147 -20.707  0.00  0.00    -0.133 F 
ATOM     20  F   UNL     1      35.616 -20.036 -20.166  0.00  0.00    -0.133 F 
ATOM     21  F   UNL     1      35.240 -19.492 -22.249  0.00  0.00    -0.133 F 
ATOM     22  C   UNL     1      35.019 -19.126 -20.968  0.00  0.00    +0.575 C 
ENDBRANCH  18  22
ENDBRANCH  15  18
ENDBRANCH   9  12
BRANCH   1  23
ATOM     23  C   UNL     1      34.163 -10.379 -23.610  0.00  0.00    +0.088 C 
BRANCH  23  25
ATOM     24  N   UNL     1      31.839  -6.758 -23.983  0.00  0.00    +0.386 N 
ATOM     25  C   UNL     1      33.444  -9.090 -23.223  0.00  0.00    +0.015 C 
ATOM     26  C   UNL     1      31.944  -9.185 -23.516  0.00  0.00    -0.021 C 
ATOM     27  C   UNL     1      34.041  -7.886 -23.959  0.00  0.00    -0.021 C 
ATOM     28  C   UNL     1      31.234  -7.862 -23.225  0.00  0.00    -0.077 C 
ATOM     29  C   UNL     1      33.262  -6.604 -23.651  0.00  0.00    -0.077 C 
ATOM     30  C   UNL     1      31.117  -5.510 -23.733  0.00  0.00    -0.101 C 
ATOM     31  H   UNL     1      31.769  -6.982 -24.975  0.00  0.00    -0.080 HD
ENDBRANCH  23  25
ENDBRANCH   1  23
TORSDOF 5
ENDMDL
MODEL 5
REMARK VINA RESULT:     -10.6     11.132     15.082
REMARK  Name = 24795070
REMARK  5 active torsions:
REMARK  status: ('A' for Active; 'I' for Inactive)
REMARK    1  A    between atoms: N_1  and  C_23
REMARK    2  A    between atoms: C_9  and  C_12
REMARK    3  A    between atoms: C_15  and  O_18
REMARK    4  A    between atoms: O_18  and  C_22
REMARK    5  A    between atoms: C_23  and  C_25
REMARK                            x       y       z     vdW  Elec       q    Type
REMARK                         _______ _______ _______ _____ _____    ______ ____
ROOT
ATOM      1  N   UNL     1      31.819 -12.734 -21.657  0.00  0.00    -0.317 N 
ATOM      2  N   UNL     1      32.226  -9.329 -20.912  0.00  0.00    -0.170 N 
ATOM      3  N   UNL     1      32.283 -10.480 -21.634  0.00  0.00    -0.158 NA
ATOM      4  N   UNL     1      31.828  -7.914 -19.237  0.00  0.00    -0.226 NA
ATOM      5  C   UNL     1      31.808 -11.541 -21.027  0.00  0.00    +0.147 C 
ATOM      6  C   UNL     1      31.242 -11.488 -19.635  0.00  0.00    +0.039 C 
ATOM      7  C   UNL     1      31.729  -9.166 -19.635  0.00  0.00    +0.155 C 
ATOM      8  C   UNL     1      31.223 -10.315 -18.993  0.00  0.00    +0.039 C 
ATOM      9  C   UNL     1      32.660  -8.100 -21.335  0.00  0.00    +0.095 C 
ATOM     10  C   UNL     1      32.404  -7.248 -20.288  0.00  0.00    +0.117 C 
ATOM     11  H   UNL     1      31.457 -13.517 -21.182  0.00  0.00    +0.148 HD
ENDROOT
BRANCH   9  12
ATOM     12  C   UNL     1      33.250  -7.845 -22.627  0.00  0.00    +0.020 C 
ATOM     13  C   UNL     1      34.020  -8.829 -23.248  0.00  0.00    +0.039 C 
ATOM     14  C   UNL     1      33.050  -6.616 -23.255  0.00  0.00    +0.002 C 
ATOM     15  C   UNL     1      34.591  -8.583 -24.496  0.00  0.00    +0.147 C 
ATOM     16  C   UNL     1      33.621  -6.370 -24.504  0.00  0.00    +0.003 C 
ATOM     17  C   UNL     1      34.392  -7.353 -25.124  0.00  0.00    +0.037 C 
BRANCH  15  18
ATOM     18  O   UNL     1      35.343  -9.542 -25.102  0.00  0.00    -0.404 OA
BRANCH  18  22
ATOM     19  F   UNL     1      34.938 -11.736 -24.597  0.00  0.00    -0.133 F 
ATOM     20  F   UNL     1      35.207 -11.146 -26.684  0.00  0.00    -0.133 F 
ATOM     21  F   UNL     1      33.373 -10.574 -25.640  0.00  0.00    -0.133 F 
ATOM     22  C   UNL     1      34.704 -10.752 -25.492  0.00  0.00    +0.575 C 
ENDBRANCH  18  22
ENDBRANCH  15  18
ENDBRANCH   9  12
BRANCH   1  23
ATOM     23  C   UNL     1      32.332 -12.917 -22.988  0.00  0.00    +0.088 C 
BRANCH  23  25
ATOM     24  N   UNL     1      34.835 -16.379 -23.628  0.00  0.00    +0.386 N 
ATOM     25  C   UNL     1      32.742 -14.373 -23.188  0.00  0.00    +0.015 C 
ATOM     26  C   UNL     1      33.682 -14.840 -22.072  0.00  0.00    -0.021 C 
ATOM     27  C   UNL     1      33.416 -14.573 -24.550  0.00  0.00    -0.021 C 
ATOM     28  C   UNL     1      34.176 -16.266 -22.319  0.00  0.00    -0.077 C 
ATOM     29  C   UNL     1      33.919 -16.009 -24.716  0.00  0.00    -0.077 C 
ATOM     30  C   UNL     1      35.347 -17.735 -23.828  0.00  0.00    -0.101 C 
ATOM     31  H   UNL     1      35.620 -15.728 -23.642  0.00  0.00    -0.080 HD
ENDBRANCH  23  25
ENDBRANCH   1  23
TORSDOF 5
ENDMDL
MODEL 6
REMARK VINA RESULT:     -10.1      8.346     12.830
REMARK  Name = 24795070
REMARK  5 active torsions:
REMARK  status: ('A' for Active; 'I' for Inactive)
REMARK    1  A    between atoms: N_1  and  C_23
REMARK    2  A    between atoms: C_9  and  C_12
REMARK    3  A    between atoms: C_15  and  O_18
REMARK    4  A    between atoms: O_18  and  C_22
REMARK    5  A    between atoms: C_23  and  C_25
REMARK                            x       y       z     vdW  Elec       q    Type
REMARK                         _______ _______ _______ _____ _____    ______ ____
ROOT
ATOM      1  N   UNL     1      35.412 -18.195 -22.460  0.00  0.00    -0.317 N 
ATOM      2  N   UNL     1      33.748 -15.687 -24.262  0.00  0.00    -0.170 N 
ATOM      3  N   UNL     1      34.236 -16.354 -23.183  0.00  0.00    -0.158 NA
ATOM      4  N   UNL     1      33.275 -15.167 -26.378  0.00  0.00    -0.226 NA
ATOM      5  C   UNL     1      34.888 -17.458 -23.461  0.00  0.00    +0.147 C 
ATOM      6  C   UNL     1      35.081 -17.949 -24.868  0.00  0.00    +0.039 C 
ATOM      7  C   UNL     1      33.867 -16.043 -25.591  0.00  0.00    +0.155 C 
ATOM      8  C   UNL     1      34.569 -17.232 -25.875  0.00  0.00    +0.039 C 
ATOM      9  C   UNL     1      33.038 -14.516 -24.222  0.00  0.00    +0.095 C 
ATOM     10  C   UNL     1      32.758 -14.218 -25.534  0.00  0.00    +0.117 C 
ATOM     11  H   UNL     1      35.898 -19.020 -22.691  0.00  0.00    +0.148 HD
ENDROOT
BRANCH   9  12
ATOM     12  C   UNL     1      32.698 -13.812 -23.009  0.00  0.00    +0.020 C 
ATOM     13  C   UNL     1      32.099 -12.554 -23.077  0.00  0.00    +0.039 C 
ATOM     14  C   UNL     1      32.970 -14.390 -21.768  0.00  0.00    +0.002 C 
ATOM     15  C   UNL     1      31.772 -11.873 -21.904  0.00  0.00    +0.147 C 
ATOM     16  C   UNL     1      32.642 -13.708 -20.596  0.00  0.00    +0.003 C 
ATOM     17  C   UNL     1      32.044 -12.450 -20.664  0.00  0.00    +0.037 C 
BRANCH  15  18
ATOM     18  O   UNL     1      31.187 -10.646 -21.970  0.00  0.00    -0.404 OA
BRANCH  18  22
ATOM     19  F   UNL     1      32.354  -9.195 -20.642  0.00  0.00    -0.133 F 
ATOM     20  F   UNL     1      31.353  -8.443 -22.433  0.00  0.00    -0.133 F 
ATOM     21  F   UNL     1      33.145  -9.677 -22.649  0.00  0.00    -0.133 F 
ATOM     22  C   UNL     1      32.025  -9.497 -21.916  0.00  0.00    +0.575 C 
ENDBRANCH  18  22
ENDBRANCH  15  18
ENDBRANCH   9  12
BRANCH   1  23
ATOM     23  C   UNL     1      35.297 -17.835 -21.072  0.00  0.00    +0.088 C 
BRANCH  23  25
ATOM     24  N   UNL     1      34.402 -21.946 -20.093  0.00  0.00    +0.386 N 
ATOM     25  C   UNL     1      34.965 -19.073 -20.243  0.00  0.00    +0.015 C 
ATOM     26  C   UNL     1      36.063 -20.134 -20.372  0.00  0.00    -0.021 C 
ATOM     27  C   UNL     1      33.617 -19.669 -20.660  0.00  0.00    -0.021 C 
ATOM     28  C   UNL     1      35.690 -21.415 -19.624  0.00  0.00    -0.077 C 
ATOM     29  C   UNL     1      33.324 -20.967 -19.902  0.00  0.00    -0.077 C 
ATOM     30  C   UNL     1      34.085 -23.198 -19.406  0.00  0.00    -0.101 C 
ATOM     31  H   UNL     1      34.485 -22.134 -21.092  0.00  0.00    -0.080 HD
ENDBRANCH  23  25
ENDBRANCH   1  23
TORSDOF 5
ENDMDL
MODEL 7
REMARK VINA RESULT:     -10.1     10.011     15.239
REMARK  Name = 24795070
REMARK  5 active torsions:
REMARK  status: ('A' for Active; 'I' for Inactive)
REMARK    1  A    between atoms: N_1  and  C_23
REMARK    2  A    between atoms: C_9  and  C_12
REMARK    3  A    between atoms: C_15  and  O_18
REMARK    4  A    between atoms: O_18  and  C_22
REMARK    5  A    between atoms: C_23  and  C_25
REMARK                            x       y       z     vdW  Elec       q    Type
REMARK                         _______ _______ _______ _____ _____    ______ ____
ROOT
ATOM      1  N   UNL     1      33.470 -12.677 -23.996  0.00  0.00    -0.317 N 
ATOM      2  N   UNL     1      34.018  -9.212 -23.963  0.00  0.00    -0.170 N 
ATOM      3  N   UNL     1      33.555 -10.421 -23.549  0.00  0.00    -0.158 NA
ATOM      4  N   UNL     1      35.056  -7.660 -25.182  0.00  0.00    -0.226 NA
ATOM      5  C   UNL     1      33.881 -11.433 -24.318  0.00  0.00    +0.147 C 
ATOM      6  C   UNL     1      34.706 -11.267 -25.564  0.00  0.00    +0.039 C 
ATOM      7  C   UNL     1      34.781  -8.945 -25.082  0.00  0.00    +0.155 C 
ATOM      8  C   UNL     1      35.123 -10.041 -25.899  0.00  0.00    +0.039 C 
ATOM      9  C   UNL     1      33.808  -8.016 -23.326  0.00  0.00    +0.095 C 
ATOM     10  C   UNL     1      34.455  -7.079 -24.095  0.00  0.00    +0.117 C 
ATOM     11  H   UNL     1      33.727 -13.422 -24.587  0.00  0.00    +0.148 HD
ENDROOT
BRANCH   9  12
ATOM     12  C   UNL     1      33.050  -7.866 -22.107  0.00  0.00    +0.020 C 
ATOM     13  C   UNL     1      33.079  -8.873 -21.140  0.00  0.00    +0.039 C 
ATOM     14  C   UNL     1      32.290  -6.716 -21.895  0.00  0.00    +0.002 C 
ATOM     15  C   UNL     1      32.346  -8.728 -19.962  0.00  0.00    +0.147 C 
ATOM     16  C   UNL     1      31.558  -6.572 -20.717  0.00  0.00    +0.003 C 
ATOM     17  C   UNL     1      31.585  -7.578 -19.751  0.00  0.00    +0.037 C 
BRANCH  15  18
ATOM     18  O   UNL     1      32.373  -9.709 -19.020  0.00  0.00    -0.404 OA
BRANCH  18  22
ATOM     19  F   UNL     1      30.396 -10.461 -19.890  0.00  0.00    -0.133 F 
ATOM     20  F   UNL     1      31.058 -11.191 -17.939  0.00  0.00    -0.133 F 
ATOM     21  F   UNL     1      32.099 -11.862 -19.741  0.00  0.00    -0.133 F 
ATOM     22  C   UNL     1      31.481 -10.808 -19.165  0.00  0.00    +0.575 C 
ENDBRANCH  18  22
ENDBRANCH  15  18
ENDBRANCH   9  12
BRANCH   1  23
ATOM     23  C   UNL     1      32.677 -12.969 -22.832  0.00  0.00    +0.088 C 
BRANCH  23  25
ATOM     24  N   UNL     1      34.950 -16.431 -21.605  0.00  0.00    +0.386 N 
ATOM     25  C   UNL     1      32.989 -14.377 -22.334  0.00  0.00    +0.015 C 
ATOM     26  C   UNL     1      33.772 -14.336 -21.018  0.00  0.00    -0.021 C 
ATOM     27  C   UNL     1      33.778 -15.169 -23.382  0.00  0.00    -0.021 C 
ATOM     28  C   UNL     1      34.174 -15.741 -20.565  0.00  0.00    -0.077 C 
ATOM     29  C   UNL     1      34.180 -16.547 -22.851  0.00  0.00    -0.077 C 
ATOM     30  C   UNL     1      35.371 -17.751 -21.138  0.00  0.00    -0.101 C 
ATOM     31  H   UNL     1      35.781 -15.872 -21.799  0.00  0.00    -0.080 HD
ENDBRANCH  23  25
ENDBRANCH   1  23
TORSDOF 5
ENDMDL
MODEL 8
REMARK VINA RESULT:      -9.9     12.145     15.588
REMARK  Name = 24795070
REMARK  5 active torsions:
REMARK  status: ('A' for Active; 'I' for Inactive)
REMARK    1  A    between atoms: N_1  and  C_23
REMARK    2  A    between atoms: C_9  and  C_12
REMARK    3  A    between atoms: C_15  and  O_18
REMARK    4  A    between atoms: O_18  and  C_22
REMARK    5  A    between atoms: C_23  and  C_25
REMARK                            x       y       z     vdW  Elec       q    Type
REMARK                         _______ _______ _______ _____ _____    ______ ____
ROOT
ATOM      1  N   UNL     1      31.539  -8.942 -22.042  0.00  0.00    -0.317 N 
ATOM      2  N   UNL     1      32.325 -12.359 -22.146  0.00  0.00    -0.170 N 
ATOM      3  N   UNL     1      32.149 -11.090 -22.598  0.00  0.00    -0.158 NA
ATOM      4  N   UNL     1      32.393 -14.113 -20.770  0.00  0.00    -0.226 NA
ATOM      5  C   UNL     1      31.744 -10.229 -21.695  0.00  0.00    +0.147 C 
ATOM      6  C   UNL     1      31.493 -10.618 -20.265  0.00  0.00    +0.039 C 
ATOM      7  C   UNL     1      32.127 -12.826 -20.861  0.00  0.00    +0.155 C 
ATOM      8  C   UNL     1      31.691 -11.890 -19.901  0.00  0.00    +0.039 C 
ATOM      9  C   UNL     1      32.741 -13.425 -22.900  0.00  0.00    +0.095 C 
ATOM     10  C   UNL     1      32.774 -14.490 -22.033  0.00  0.00    +0.117 C 
ATOM     11  H   UNL     1      31.235  -8.312 -21.348  0.00  0.00    +0.148 HD
ENDROOT
BRANCH   9  12
ATOM     12  C   UNL     1      33.056 -13.352 -24.307  0.00  0.00    +0.020 C 
ATOM     13  C   UNL     1      33.748 -12.250 -24.810  0.00  0.00    +0.039 C 
ATOM     14  C   UNL     1      32.668 -14.384 -25.162  0.00  0.00    +0.002 C 
ATOM     15  C   UNL     1      34.052 -12.180 -26.169  0.00  0.00    +0.147 C 
ATOM     16  C   UNL     1      32.972 -14.313 -26.521  0.00  0.00    +0.003 C 
ATOM     17  C   UNL     1      33.663 -13.211 -27.025  0.00  0.00    +0.037 C 
BRANCH  15  18
ATOM     18  O   UNL     1      34.726 -11.106 -26.661  0.00  0.00    -0.404 OA
BRANCH  18  22
ATOM     19  F   UNL     1      35.193  -8.973 -25.981  0.00  0.00    -0.133 F 
ATOM     20  F   UNL     1      36.763 -10.491 -25.906  0.00  0.00    -0.133 F 
ATOM     21  F   UNL     1      35.118 -10.583 -24.469  0.00  0.00    -0.133 F 
ATOM     22  C   UNL     1      35.437 -10.279 -25.746  0.00  0.00    +0.575 C 
ENDBRANCH  18  22
ENDBRANCH  15  18
ENDBRANCH   9  12
BRANCH   1  23
ATOM     23  C   UNL     1      31.743  -8.443 -23.376  0.00  0.00    +0.088 C 
BRANCH  23  25
ATOM     24  N   UNL     1      31.505  -4.131 -23.292  0.00  0.00    +0.386 N 
ATOM     25  C   UNL     1      31.165  -7.036 -23.496  0.00  0.00    +0.015 C 
ATOM     26  C   UNL     1      31.914  -6.219 -24.554  0.00  0.00    -0.021 C 
ATOM     27  C   UNL     1      31.211  -6.306 -22.149  0.00  0.00    -0.021 C 
ATOM     28  C   UNL     1      31.406  -4.778 -24.608  0.00  0.00    -0.077 C 
ATOM     29  C   UNL     1      30.726  -4.860 -22.282  0.00  0.00    -0.077 C 
ATOM     30  C   UNL     1      31.064  -2.738 -23.372  0.00  0.00    -0.101 C 
ATOM     31  H   UNL     1      32.484  -4.147 -23.007  0.00  0.00    -0.080 HD
ENDBRANCH  23  25
ENDBRANCH   1  23
TORSDOF 5
ENDMDL
MODEL 9
REMARK VINA RESULT:      -9.7      4.262      7.378
REMARK  Name = 24795070
REMARK  5 active torsions:
REMARK  status: ('A' for Active; 'I' for Inactive)
REMARK    1  A    between atoms: N_1  and  C_23
REMARK    2  A    between atoms: C_9  and  C_12
REMARK    3  A    between atoms: C_15  and  O_18
REMARK    4  A    between atoms: O_18  and  C_22
REMARK    5  A    between atoms: C_23  and  C_25
REMARK                            x       y       z     vdW  Elec       q    Type
REMARK                         _______ _______ _______ _____ _____    ______ ____
ROOT
ATOM      1  N   UNL     1      34.832 -23.734 -12.515  0.00  0.00    -0.317 N 
ATOM      2  N   UNL     1      33.181 -23.436 -15.595  0.00  0.00    -0.170 N 
ATOM      3  N   UNL     1      34.193 -23.353 -14.692  0.00  0.00    -0.158 NA
ATOM      4  N   UNL     1      31.175 -23.849 -16.477  0.00  0.00    -0.226 NA
ATOM      5  C   UNL     1      33.897 -23.775 -13.486  0.00  0.00    +0.147 C 
ATOM      6  C   UNL     1      32.538 -24.311 -13.129  0.00  0.00    +0.039 C 
ATOM      7  C   UNL     1      31.902 -23.910 -15.380  0.00  0.00    +0.155 C 
ATOM      8  C   UNL     1      31.597 -24.359 -14.079  0.00  0.00    +0.039 C 
ATOM      9  C   UNL     1      33.251 -23.058 -16.911  0.00  0.00    +0.095 C 
ATOM     10  C   UNL     1      32.007 -23.321 -17.430  0.00  0.00    +0.117 C 
ATOM     11  H   UNL     1      34.589 -24.057 -11.616  0.00  0.00    +0.148 HD
ENDROOT
BRANCH   9  12
ATOM     12  C   UNL     1      34.430 -22.506 -17.536  0.00  0.00    +0.020 C 
ATOM     13  C   UNL     1      34.385 -22.097 -18.869  0.00  0.00    +0.039 C 
ATOM     14  C   UNL     1      35.613 -22.383 -16.806  0.00  0.00    +0.002 C 
ATOM     15  C   UNL     1      35.524 -21.564 -19.473  0.00  0.00    +0.147 C 
ATOM     16  C   UNL     1      36.751 -21.850 -17.411  0.00  0.00    +0.003 C 
ATOM     17  C   UNL     1      36.708 -21.442 -18.744  0.00  0.00    +0.037 C 
BRANCH  15  18
ATOM     18  O   UNL     1      35.482 -21.165 -20.773  0.00  0.00    -0.404 OA
BRANCH  18  22
ATOM     19  F   UNL     1      33.890 -19.558 -20.436  0.00  0.00    -0.133 F 
ATOM     20  F   UNL     1      34.859 -19.717 -22.388  0.00  0.00    -0.133 F 
ATOM     21  F   UNL     1      35.996 -18.937 -20.692  0.00  0.00    -0.133 F 
ATOM     22  C   UNL     1      35.056 -19.837 -21.056  0.00  0.00    +0.575 C 
ENDBRANCH  18  22
ENDBRANCH  15  18
ENDBRANCH   9  12
BRANCH   1  23
ATOM     23  C   UNL     1      36.168 -23.245 -12.727  0.00  0.00    +0.088 C 
BRANCH  23  25
ATOM     24  N   UNL     1      39.691 -25.360 -14.057  0.00  0.00    +0.386 N 
ATOM     25  C   UNL     1      37.044 -24.359 -13.291  0.00  0.00    +0.015 C 
ATOM     26  C   UNL     1      38.078 -24.825 -12.260  0.00  0.00    -0.021 C 
ATOM     27  C   UNL     1      37.756 -23.906 -14.570  0.00  0.00    -0.021 C 
ATOM     28  C   UNL     1      39.023 -25.871 -12.852  0.00  0.00    -0.077 C 
ATOM     29  C   UNL     1      38.713 -24.983 -15.086  0.00  0.00    -0.077 C 
ATOM     30  C   UNL     1      40.630 -26.352 -14.581  0.00  0.00    -0.101 C 
ATOM     31  H   UNL     1      40.213 -24.523 -13.796  0.00  0.00    -0.080 HD
ENDBRANCH  23  25
ENDBRANCH   1  23
TORSDOF 5
ENDMDL
