MODEL 1
REMARK VINA RESULT:      -6.6      0.000      0.000
REMARK  Name = 82755
REMARK  5 active torsions:
REMARK  status: ('A' for Active; 'I' for Inactive)
REMARK    1  A    between atoms: C_1  and  C_11
REMARK    2  A    between atoms: C_4  and  O_7
REMARK    3  A    between atoms: C_6  and  O_9
REMARK    4  A    between atoms: C_11  and  C_12
REMARK    5  A    between atoms: C_12  and  O_13
REMARK                            x       y       z     vdW  Elec       q    Type
REMARK                         _______ _______ _______ _____ _____    ______ ____
ROOT
ATOM      1  C   UNL     1      35.176 -19.535 -20.995  0.00  0.00    -0.016 C 
ATOM      2  C   UNL     1      35.718 -20.562 -20.222  0.00  0.00    +0.036 C 
ATOM      3  C   UNL     1      33.792 -19.379 -21.078  0.00  0.00    -0.001 C 
ATOM      4  C   UNL     1      34.875 -21.435 -19.534  0.00  0.00    +0.167 C 
ATOM      5  C   UNL     1      32.950 -20.252 -20.388  0.00  0.00    +0.039 C 
ATOM      6  C   UNL     1      33.492 -21.280 -19.616  0.00  0.00    +0.167 C 
ENDROOT
BRANCH   4   7
ATOM      7  O   UNL     1      35.416 -22.436 -18.784  0.00  0.00    -0.503 OA
ATOM      8  H   UNL     1      36.329 -22.635 -18.857  0.00  0.00    +0.292 HD
ENDBRANCH   4   7
BRANCH   6   9
ATOM      9  O   UNL     1      32.659 -22.126 -18.948  0.00  0.00    -0.503 OA
ATOM     10  H   UNL     1      32.240 -22.827 -19.404  0.00  0.00    +0.292 HD
ENDBRANCH   6   9
BRANCH   1  11
ATOM     11  C   UNL     1      36.077 -18.602 -21.732  0.00  0.00    +0.058 C 
BRANCH  11  12
ATOM     12  C   UNL     1      35.535 -18.214 -23.111  0.00  0.00    +0.142 C 
BRANCH  12  13
ATOM     13  O   UNL     1      35.737 -16.822 -23.327  0.00  0.00    -0.382 OA
ATOM     14  H   UNL     1      34.954 -16.445 -23.759  0.00  0.00    +0.210 HD
ENDBRANCH  12  13
ENDBRANCH  11  12
ENDBRANCH   1  11
TORSDOF 5
ENDMDL
MODEL 2
REMARK VINA RESULT:      -6.4      0.962      2.117
REMARK  Name = 82755
REMARK  5 active torsions:
REMARK  status: ('A' for Active; 'I' for Inactive)
REMARK    1  A    between atoms: C_1  and  C_11
REMARK    2  A    between atoms: C_4  and  O_7
REMARK    3  A    between atoms: C_6  and  O_9
REMARK    4  A    between atoms: C_11  and  C_12
REMARK    5  A    between atoms: C_12  and  O_13
REMARK                            x       y       z     vdW  Elec       q    Type
REMARK                         _______ _______ _______ _____ _____    ______ ____
ROOT
ATOM      1  C   UNL     1      34.514 -19.921 -20.813  0.00  0.00    -0.016 C 
ATOM      2  C   UNL     1      33.409 -20.528 -20.217  0.00  0.00    +0.036 C 
ATOM      3  C   UNL     1      35.804 -20.321 -20.461  0.00  0.00    -0.001 C 
ATOM      4  C   UNL     1      33.593 -21.535 -19.270  0.00  0.00    +0.167 C 
ATOM      5  C   UNL     1      35.988 -21.329 -19.515  0.00  0.00    +0.039 C 
ATOM      6  C   UNL     1      34.883 -21.936 -18.919  0.00  0.00    +0.167 C 
ENDROOT
BRANCH   4   7
ATOM      7  O   UNL     1      32.506 -22.120 -18.693  0.00  0.00    -0.503 OA
ATOM      8  H   UNL     1      32.568 -22.472 -17.827  0.00  0.00    +0.292 HD
ENDBRANCH   4   7
BRANCH   6   9
ATOM      9  O   UNL     1      35.075 -22.919 -17.995  0.00  0.00    -0.503 OA
ATOM     10  H   UNL     1      35.835 -22.906 -17.449  0.00  0.00    +0.292 HD
ENDBRANCH   6   9
BRANCH   1  11
ATOM     11  C   UNL     1      34.318 -18.843 -21.824  0.00  0.00    +0.058 C 
BRANCH  11  12
ATOM     12  C   UNL     1      34.939 -19.177 -23.183  0.00  0.00    +0.142 C 
BRANCH  12  13
ATOM     13  O   UNL     1      35.884 -18.175 -23.535  0.00  0.00    -0.382 OA
ATOM     14  H   UNL     1      36.581 -18.566 -24.085  0.00  0.00    +0.210 HD
ENDBRANCH  12  13
ENDBRANCH  11  12
ENDBRANCH   1  11
TORSDOF 5
ENDMDL
MODEL 3
REMARK VINA RESULT:      -6.2      1.711      5.542
REMARK  Name = 82755
REMARK  5 active torsions:
REMARK  status: ('A' for Active; 'I' for Inactive)
REMARK    1  A    between atoms: C_1  and  C_11
REMARK    2  A    between atoms: C_4  and  O_7
REMARK    3  A    between atoms: C_6  and  O_9
REMARK    4  A    between atoms: C_11  and  C_12
REMARK    5  A    between atoms: C_12  and  O_13
REMARK                            x       y       z     vdW  Elec       q    Type
REMARK                         _______ _______ _______ _____ _____    ______ ____
ROOT
ATOM      1  C   UNL     1      34.552 -18.782 -22.232  0.00  0.00    -0.016 C 
ATOM      2  C   UNL     1      34.733 -17.400 -22.194  0.00  0.00    +0.036 C 
ATOM      3  C   UNL     1      34.510 -19.448 -23.458  0.00  0.00    -0.001 C 
ATOM      4  C   UNL     1      34.872 -16.683 -23.383  0.00  0.00    +0.167 C 
ATOM      5  C   UNL     1      34.650 -18.730 -24.646  0.00  0.00    +0.039 C 
ATOM      6  C   UNL     1      34.831 -17.347 -24.608  0.00  0.00    +0.167 C 
ENDROOT
BRANCH   4   7
ATOM      7  O   UNL     1      35.047 -15.332 -23.333  0.00  0.00    -0.503 OA
ATOM      8  H   UNL     1      35.467 -14.888 -24.043  0.00  0.00    +0.292 HD
ENDBRANCH   4   7
BRANCH   6   9
ATOM      9  O   UNL     1      34.966 -16.657 -25.775  0.00  0.00    -0.503 OA
ATOM     10  H   UNL     1      34.605 -15.797 -25.854  0.00  0.00    +0.292 HD
ENDBRANCH   6   9
BRANCH   1  11
ATOM     11  C   UNL     1      34.402 -19.550 -20.962  0.00  0.00    +0.058 C 
BRANCH  11  12
ATOM     12  C   UNL     1      32.947 -19.911 -20.650  0.00  0.00    +0.142 C 
BRANCH  12  13
ATOM     13  O   UNL     1      32.912 -20.946 -19.675  0.00  0.00    -0.382 OA
ATOM     14  H   UNL     1      32.658 -20.572 -18.816  0.00  0.00    +0.210 HD
ENDBRANCH  12  13
ENDBRANCH  11  12
ENDBRANCH   1  11
TORSDOF 5
ENDMDL
MODEL 4
REMARK VINA RESULT:      -6.0      7.255      8.452
REMARK  Name = 82755
REMARK  5 active torsions:
REMARK  status: ('A' for Active; 'I' for Inactive)
REMARK    1  A    between atoms: C_1  and  C_11
REMARK    2  A    between atoms: C_4  and  O_7
REMARK    3  A    between atoms: C_6  and  O_9
REMARK    4  A    between atoms: C_11  and  C_12
REMARK    5  A    between atoms: C_12  and  O_13
REMARK                            x       y       z     vdW  Elec       q    Type
REMARK                         _______ _______ _______ _____ _____    ______ ____
ROOT
ATOM      1  C   UNL     1      30.436 -23.247 -15.752  0.00  0.00    -0.016 C 
ATOM      2  C   UNL     1      29.998 -23.856 -14.575  0.00  0.00    +0.036 C 
ATOM      3  C   UNL     1      31.801 -23.173 -16.033  0.00  0.00    -0.001 C 
ATOM      4  C   UNL     1      30.925 -24.390 -13.681  0.00  0.00    +0.167 C 
ATOM      5  C   UNL     1      32.727 -23.708 -15.138  0.00  0.00    +0.039 C 
ATOM      6  C   UNL     1      32.289 -24.316 -13.962  0.00  0.00    +0.167 C 
ENDROOT
BRANCH   4   7
ATOM      7  O   UNL     1      30.485 -24.981 -12.534  0.00  0.00    -0.503 OA
ATOM      8  H   UNL     1      29.567 -25.032 -12.356  0.00  0.00    +0.292 HD
ENDBRANCH   4   7
BRANCH   6   9
ATOM      9  O   UNL     1      33.203 -24.835 -13.095  0.00  0.00    -0.503 OA
ATOM     10  H   UNL     1      33.710 -24.264 -12.552  0.00  0.00    +0.292 HD
ENDBRANCH   6   9
BRANCH   1  11
ATOM     11  C   UNL     1      29.445 -22.675 -16.708  0.00  0.00    +0.058 C 
BRANCH  11  12
ATOM     12  C   UNL     1      28.073 -23.347 -16.623  0.00  0.00    +0.142 C 
BRANCH  12  13
ATOM     13  O   UNL     1      27.429 -23.281 -17.889  0.00  0.00    -0.382 OA
ATOM     14  H   UNL     1      26.876 -24.068 -18.012  0.00  0.00    +0.210 HD
ENDBRANCH  12  13
ENDBRANCH  11  12
ENDBRANCH   1  11
TORSDOF 5
ENDMDL
MODEL 5
REMARK VINA RESULT:      -5.9      1.452      5.241
REMARK  Name = 82755
REMARK  5 active torsions:
REMARK  status: ('A' for Active; 'I' for Inactive)
REMARK    1  A    between atoms: C_1  and  C_11
REMARK    2  A    between atoms: C_4  and  O_7
REMARK    3  A    between atoms: C_6  and  O_9
REMARK    4  A    between atoms: C_11  and  C_12
REMARK    5  A    between atoms: C_12  and  O_13
REMARK                            x       y       z     vdW  Elec       q    Type
REMARK                         _______ _______ _______ _____ _____    ______ ____
ROOT
ATOM      1  C   UNL     1      34.649 -19.003 -21.510  0.00  0.00    -0.016 C 
ATOM      2  C   UNL     1      34.583 -19.180 -22.892  0.00  0.00    +0.036 C 
ATOM      3  C   UNL     1      34.976 -17.753 -20.982  0.00  0.00    -0.001 C 
ATOM      4  C   UNL     1      34.844 -18.108 -23.745  0.00  0.00    +0.167 C 
ATOM      5  C   UNL     1      35.237 -16.682 -21.836  0.00  0.00    +0.039 C 
ATOM      6  C   UNL     1      35.170 -16.859 -23.218  0.00  0.00    +0.167 C 
ENDROOT
BRANCH   4   7
ATOM      7  O   UNL     1      34.778 -18.294 -25.094  0.00  0.00    -0.503 OA
ATOM      8  H   UNL     1      34.674 -19.158 -25.443  0.00  0.00    +0.292 HD
ENDBRANCH   4   7
BRANCH   6   9
ATOM      9  O   UNL     1      35.427 -15.805 -24.042  0.00  0.00    -0.503 OA
ATOM     10  H   UNL     1      35.590 -14.957 -23.680  0.00  0.00    +0.292 HD
ENDBRANCH   6   9
BRANCH   1  11
ATOM     11  C   UNL     1      34.371 -20.149 -20.597  0.00  0.00    +0.058 C 
BRANCH  11  12
ATOM     12  C   UNL     1      32.894 -20.263 -20.212  0.00  0.00    +0.142 C 
BRANCH  12  13
ATOM     13  O   UNL     1      32.740 -21.249 -19.198  0.00  0.00    -0.382 OA
ATOM     14  H   UNL     1      33.063 -20.897 -18.353  0.00  0.00    +0.210 HD
ENDBRANCH  12  13
ENDBRANCH  11  12
ENDBRANCH   1  11
TORSDOF 5
ENDMDL
MODEL 6
REMARK VINA RESULT:      -5.9      3.410      4.958
REMARK  Name = 82755
REMARK  5 active torsions:
REMARK  status: ('A' for Active; 'I' for Inactive)
REMARK    1  A    between atoms: C_1  and  C_11
REMARK    2  A    between atoms: C_4  and  O_7
REMARK    3  A    between atoms: C_6  and  O_9
REMARK    4  A    between atoms: C_11  and  C_12
REMARK    5  A    between atoms: C_12  and  O_13
REMARK                            x       y       z     vdW  Elec       q    Type
REMARK                         _______ _______ _______ _____ _____    ______ ____
ROOT
ATOM      1  C   UNL     1      34.538 -16.699 -24.127  0.00  0.00    -0.016 C 
ATOM      2  C   UNL     1      34.520 -15.947 -22.952  0.00  0.00    +0.036 C 
ATOM      3  C   UNL     1      34.999 -18.016 -24.105  0.00  0.00    -0.001 C 
ATOM      4  C   UNL     1      34.963 -16.512 -21.757  0.00  0.00    +0.167 C 
ATOM      5  C   UNL     1      35.442 -18.580 -22.909  0.00  0.00    +0.039 C 
ATOM      6  C   UNL     1      35.424 -17.828 -21.734  0.00  0.00    +0.167 C 
ENDROOT
BRANCH   4   7
ATOM      7  O   UNL     1      34.943 -15.766 -20.616  0.00  0.00    -0.503 OA
ATOM      8  H   UNL     1      35.578 -15.089 -20.487  0.00  0.00    +0.292 HD
ENDBRANCH   4   7
BRANCH   6   9
ATOM      9  O   UNL     1      35.859 -18.389 -20.572  0.00  0.00    -0.503 OA
ATOM     10  H   UNL     1      36.777 -18.481 -20.411  0.00  0.00    +0.292 HD
ENDBRANCH   6   9
BRANCH   1  11
ATOM     11  C   UNL     1      34.065 -16.096 -25.406  0.00  0.00    +0.058 C 
BRANCH  11  12
ATOM     12  C   UNL     1      33.255 -14.813 -25.200  0.00  0.00    +0.142 C 
BRANCH  12  13
ATOM     13  O   UNL     1      32.350 -14.641 -26.284  0.00  0.00    -0.382 OA
ATOM     14  H   UNL     1      31.724 -15.382 -26.303  0.00  0.00    +0.210 HD
ENDBRANCH  12  13
ENDBRANCH  11  12
ENDBRANCH   1  11
TORSDOF 5
ENDMDL
MODEL 7
REMARK VINA RESULT:      -5.9      1.461      4.513
REMARK  Name = 82755
REMARK  5 active torsions:
REMARK  status: ('A' for Active; 'I' for Inactive)
REMARK    1  A    between atoms: C_1  and  C_11
REMARK    2  A    between atoms: C_4  and  O_7
REMARK    3  A    between atoms: C_6  and  O_9
REMARK    4  A    between atoms: C_11  and  C_12
REMARK    5  A    between atoms: C_12  and  O_13
REMARK                            x       y       z     vdW  Elec       q    Type
REMARK                         _______ _______ _______ _____ _____    ______ ____
ROOT
ATOM      1  C   UNL     1      34.953 -20.927 -19.820  0.00  0.00    -0.016 C 
ATOM      2  C   UNL     1      36.056 -20.257 -20.347  0.00  0.00    +0.036 C 
ATOM      3  C   UNL     1      33.661 -20.534 -20.175  0.00  0.00    -0.001 C 
ATOM      4  C   UNL     1      35.868 -19.193 -21.231  0.00  0.00    +0.167 C 
ATOM      5  C   UNL     1      33.474 -19.472 -21.059  0.00  0.00    +0.039 C 
ATOM      6  C   UNL     1      34.578 -18.801 -21.587  0.00  0.00    +0.167 C 
ENDROOT
BRANCH   4   7
ATOM      7  O   UNL     1      36.954 -18.545 -21.739  0.00  0.00    -0.503 OA
ATOM      8  H   UNL     1      37.747 -19.016 -21.900  0.00  0.00    +0.292 HD
ENDBRANCH   4   7
BRANCH   6   9
ATOM      9  O   UNL     1      34.382 -17.764 -22.449  0.00  0.00    -0.503 OA
ATOM     10  H   UNL     1      34.357 -17.921 -23.371  0.00  0.00    +0.292 HD
ENDBRANCH   6   9
BRANCH   1  11
ATOM     11  C   UNL     1      35.152 -22.063 -18.874  0.00  0.00    +0.058 C 
BRANCH  11  12
ATOM     12  C   UNL     1      33.869 -22.856 -18.612  0.00  0.00    +0.142 C 
BRANCH  12  13
ATOM     13  O   UNL     1      33.864 -24.032 -19.412  0.00  0.00    -0.382 OA
ATOM     14  H   UNL     1      34.041 -24.805 -18.852  0.00  0.00    +0.210 HD
ENDBRANCH  12  13
ENDBRANCH  11  12
ENDBRANCH   1  11
TORSDOF 5
ENDMDL
MODEL 8
REMARK VINA RESULT:      -5.8      8.321      9.320
REMARK  Name = 82755
REMARK  5 active torsions:
REMARK  status: ('A' for Active; 'I' for Inactive)
REMARK    1  A    between atoms: C_1  and  C_11
REMARK    2  A    between atoms: C_4  and  O_7
REMARK    3  A    between atoms: C_6  and  O_9
REMARK    4  A    between atoms: C_11  and  C_12
REMARK    5  A    between atoms: C_12  and  O_13
REMARK                            x       y       z     vdW  Elec       q    Type
REMARK                         _______ _______ _______ _____ _____    ______ ____
ROOT
ATOM      1  C   UNL     1      37.256 -25.537 -14.051  0.00  0.00    -0.016 C 
ATOM      2  C   UNL     1      37.018 -25.632 -12.680  0.00  0.00    +0.036 C 
ATOM      3  C   UNL     1      36.417 -24.762 -14.853  0.00  0.00    -0.001 C 
ATOM      4  C   UNL     1      35.942 -24.951 -12.110  0.00  0.00    +0.167 C 
ATOM      5  C   UNL     1      35.342 -24.080 -14.283  0.00  0.00    +0.039 C 
ATOM      6  C   UNL     1      35.104 -24.175 -12.911  0.00  0.00    +0.167 C 
ENDROOT
BRANCH   4   7
ATOM      7  O   UNL     1      35.719 -25.052 -10.770  0.00  0.00    -0.503 OA
ATOM      8  H   UNL     1      36.145 -24.462 -10.178  0.00  0.00    +0.292 HD
ENDBRANCH   4   7
BRANCH   6   9
ATOM      9  O   UNL     1      34.051 -23.505 -12.366  0.00  0.00    -0.503 OA
ATOM     10  H   UNL     1      33.970 -23.437 -11.435  0.00  0.00    +0.292 HD
ENDBRANCH   6   9
BRANCH   1  11
ATOM     11  C   UNL     1      38.404 -26.267 -14.661  0.00  0.00    +0.058 C 
BRANCH  11  12
ATOM     12  C   UNL     1      39.631 -25.376 -14.879  0.00  0.00    +0.142 C 
BRANCH  12  13
ATOM     13  O   UNL     1      40.388 -25.868 -15.978  0.00  0.00    -0.382 OA
ATOM     14  H   UNL     1      40.780 -25.123 -16.460  0.00  0.00    +0.210 HD
ENDBRANCH  12  13
ENDBRANCH  11  12
ENDBRANCH   1  11
TORSDOF 5
ENDMDL
MODEL 9
REMARK VINA RESULT:      -5.8      9.093      9.952
REMARK  Name = 82755
REMARK  5 active torsions:
REMARK  status: ('A' for Active; 'I' for Inactive)
REMARK    1  A    between atoms: C_1  and  C_11
REMARK    2  A    between atoms: C_4  and  O_7
REMARK    3  A    between atoms: C_6  and  O_9
REMARK    4  A    between atoms: C_11  and  C_12
REMARK    5  A    between atoms: C_12  and  O_13
REMARK                            x       y       z     vdW  Elec       q    Type
REMARK                         _______ _______ _______ _____ _____    ______ ____
ROOT
ATOM      1  C   UNL     1      37.480 -25.547 -13.515  0.00  0.00    -0.016 C 
ATOM      2  C   UNL     1      36.216 -25.047 -13.205  0.00  0.00    +0.036 C 
ATOM      3  C   UNL     1      38.617 -24.981 -12.935  0.00  0.00    -0.001 C 
ATOM      4  C   UNL     1      36.087 -23.981 -12.315  0.00  0.00    +0.167 C 
ATOM      5  C   UNL     1      38.487 -23.915 -12.044  0.00  0.00    +0.039 C 
ATOM      6  C   UNL     1      37.222 -23.415 -11.734  0.00  0.00    +0.167 C 
ENDROOT
BRANCH   4   7
ATOM      7  O   UNL     1      34.846 -23.500 -12.021  0.00  0.00    -0.503 OA
ATOM      8  H   UNL     1      34.084 -23.942 -12.343  0.00  0.00    +0.292 HD
ENDBRANCH   4   7
BRANCH   6   9
ATOM      9  O   UNL     1      37.108 -22.374 -10.863  0.00  0.00    -0.503 OA
ATOM     10  H   UNL     1      37.724 -22.278 -10.165  0.00  0.00    +0.292 HD
ENDBRANCH   6   9
BRANCH   1  11
ATOM     11  C   UNL     1      37.619 -26.686 -14.468  0.00  0.00    +0.058 C 
BRANCH  11  12
ATOM     12  C   UNL     1      36.457 -26.781 -15.461  0.00  0.00    +0.142 C 
BRANCH  12  13
ATOM     13  O   UNL     1      36.858 -27.543 -16.593  0.00  0.00    -0.382 OA
ATOM     14  H   UNL     1      37.518 -27.045 -17.101  0.00  0.00    +0.210 HD
ENDBRANCH  12  13
ENDBRANCH  11  12
ENDBRANCH   1  11
TORSDOF 5
ENDMDL
