MODEL 1
REMARK VINA RESULT:      -5.8      0.000      0.000
REMARK  Name = 71792
REMARK  3 active torsions:
REMARK  status: ('A' for Active; 'I' for Inactive)
REMARK    1  A    between atoms: C_3  and  O_10
REMARK    2  A    between atoms: O_10  and  C_11
REMARK    3  A    between atoms: C_11  and  C_12
REMARK                            x       y       z     vdW  Elec       q    Type
REMARK                         _______ _______ _______ _____ _____    ______ ____
ROOT
ATOM      1  N   UNL     1      35.954 -18.043 -23.273  0.00  0.00    +0.389 N 
ATOM      2  C   UNL     1      34.731 -18.634 -21.058  0.00  0.00    +0.021 C 
ATOM      3  C   UNL     1      34.514 -17.157 -21.434  0.00  0.00    +0.096 C 
ATOM      4  C   UNL     1      36.243 -18.897 -20.943  0.00  0.00    -0.021 C 
ATOM      5  C   UNL     1      34.202 -19.485 -22.221  0.00  0.00    -0.021 C 
ATOM      6  C   UNL     1      35.296 -16.837 -22.719  0.00  0.00    -0.047 C 
ATOM      7  C   UNL     1      36.924 -18.549 -22.277  0.00  0.00    -0.077 C 
ATOM      8  C   UNL     1      34.930 -19.084 -23.515  0.00  0.00    -0.077 C 
ATOM      9  H   UNL     1      36.430 -17.815 -24.146  0.00  0.00    -0.080 HD
ENDROOT
BRANCH   3  10
ATOM     10  O   UNL     1      34.954 -16.324 -20.366  0.00  0.00    -0.345 OA
BRANCH  10  11
ATOM     11  C   UNL     1      34.808 -14.948 -20.688  0.00  0.00    +0.219 C 
BRANCH  11  12
ATOM     12  C   UNL     1      33.392 -14.582 -20.743  0.00  0.00    -0.045 C 
ATOM     13  C   UNL     1      32.231 -14.280 -20.789  0.00  0.00    -0.012 C 
ENDBRANCH  11  12
ENDBRANCH  10  11
ENDBRANCH   3  10
TORSDOF 3
ENDMDL
MODEL 2
REMARK VINA RESULT:      -5.7      2.319      4.381
REMARK  Name = 71792
REMARK  3 active torsions:
REMARK  status: ('A' for Active; 'I' for Inactive)
REMARK    1  A    between atoms: C_3  and  O_10
REMARK    2  A    between atoms: O_10  and  C_11
REMARK    3  A    between atoms: C_11  and  C_12
REMARK                            x       y       z     vdW  Elec       q    Type
REMARK                         _______ _______ _______ _____ _____    ______ ____
ROOT
ATOM      1  N   UNL     1      36.123 -17.789 -22.823  0.00  0.00    +0.389 N 
ATOM      2  C   UNL     1      34.329 -18.951 -21.347  0.00  0.00    +0.021 C 
ATOM      3  C   UNL     1      35.749 -19.276 -20.850  0.00  0.00    +0.096 C 
ATOM      4  C   UNL     1      34.206 -19.391 -22.816  0.00  0.00    -0.021 C 
ATOM      5  C   UNL     1      34.167 -17.425 -21.307  0.00  0.00    -0.021 C 
ATOM      6  C   UNL     1      36.779 -18.613 -21.781  0.00  0.00    -0.047 C 
ATOM      7  C   UNL     1      35.274 -18.671 -23.655  0.00  0.00    -0.077 C 
ATOM      8  C   UNL     1      35.264 -16.777 -22.169  0.00  0.00    -0.077 C 
ATOM      9  H   UNL     1      36.825 -17.327 -23.401  0.00  0.00    -0.080 HD
ENDROOT
BRANCH   3  10
ATOM     10  O   UNL     1      35.936 -20.687 -20.830  0.00  0.00    -0.345 OA
BRANCH  10  11
ATOM     11  C   UNL     1      36.005 -21.182 -19.500  0.00  0.00    +0.219 C 
BRANCH  11  12
ATOM     12  C   UNL     1      34.766 -21.877 -19.148  0.00  0.00    -0.045 C 
ATOM     13  C   UNL     1      33.750 -22.446 -18.858  0.00  0.00    -0.012 C 
ENDBRANCH  11  12
ENDBRANCH  10  11
ENDBRANCH   3  10
TORSDOF 3
ENDMDL
MODEL 3
REMARK VINA RESULT:      -5.6      2.304      3.402
REMARK  Name = 71792
REMARK  3 active torsions:
REMARK  status: ('A' for Active; 'I' for Inactive)
REMARK    1  A    between atoms: C_3  and  O_10
REMARK    2  A    between atoms: O_10  and  C_11
REMARK    3  A    between atoms: C_11  and  C_12
REMARK                            x       y       z     vdW  Elec       q    Type
REMARK                         _______ _______ _______ _____ _____    ______ ____
ROOT
ATOM      1  N   UNL     1      34.921 -18.418 -20.828  0.00  0.00    +0.389 N 
ATOM      2  C   UNL     1      35.633 -18.252 -23.320  0.00  0.00    +0.021 C 
ATOM      3  C   UNL     1      35.158 -16.888 -22.788  0.00  0.00    +0.096 C 
ATOM      4  C   UNL     1      34.500 -19.276 -23.135  0.00  0.00    -0.021 C 
ATOM      5  C   UNL     1      36.809 -18.701 -22.442  0.00  0.00    -0.021 C 
ATOM      6  C   UNL     1      34.697 -17.042 -21.328  0.00  0.00    -0.047 C 
ATOM      7  C   UNL     1      34.121 -19.353 -21.647  0.00  0.00    -0.077 C 
ATOM      8  C   UNL     1      36.354 -18.758 -20.975  0.00  0.00    -0.077 C 
ATOM      9  H   UNL     1      34.648 -18.484 -19.847  0.00  0.00    -0.080 HD
ENDROOT
BRANCH   3  10
ATOM     10  O   UNL     1      34.089 -16.407 -23.597  0.00  0.00    -0.345 OA
BRANCH  10  11
ATOM     11  C   UNL     1      34.458 -16.354 -24.967  0.00  0.00    +0.219 C 
BRANCH  11  12
ATOM     12  C   UNL     1      33.563 -15.460 -25.705  0.00  0.00    -0.045 C 
ATOM     13  C   UNL     1      32.828 -14.728 -26.308  0.00  0.00    -0.012 C 
ENDBRANCH  11  12
ENDBRANCH  10  11
ENDBRANCH   3  10
TORSDOF 3
ENDMDL
MODEL 4
REMARK VINA RESULT:      -5.6      8.247      9.798
REMARK  Name = 71792
REMARK  3 active torsions:
REMARK  status: ('A' for Active; 'I' for Inactive)
REMARK    1  A    between atoms: C_3  and  O_10
REMARK    2  A    between atoms: O_10  and  C_11
REMARK    3  A    between atoms: C_11  and  C_12
REMARK                            x       y       z     vdW  Elec       q    Type
REMARK                         _______ _______ _______ _____ _____    ______ ____
ROOT
ATOM      1  N   UNL     1      35.661 -25.394 -13.743  0.00  0.00    +0.389 N 
ATOM      2  C   UNL     1      37.162 -23.317 -14.171  0.00  0.00    +0.021 C 
ATOM      3  C   UNL     1      35.915 -23.295 -15.074  0.00  0.00    +0.096 C 
ATOM      4  C   UNL     1      37.935 -24.622 -14.430  0.00  0.00    -0.021 C 
ATOM      5  C   UNL     1      36.674 -23.351 -12.716  0.00  0.00    -0.021 C 
ATOM      6  C   UNL     1      35.083 -24.565 -14.826  0.00  0.00    -0.047 C 
ATOM      7  C   UNL     1      37.016 -25.823 -14.151  0.00  0.00    -0.077 C 
ATOM      8  C   UNL     1      35.768 -24.577 -12.514  0.00  0.00    -0.077 C 
ATOM      9  H   UNL     1      35.070 -26.207 -13.569  0.00  0.00    -0.080 HD
ENDROOT
BRANCH   3  10
ATOM     10  O   UNL     1      36.315 -23.223 -16.438  0.00  0.00    -0.345 OA
BRANCH  10  11
ATOM     11  C   UNL     1      36.886 -21.959 -16.745  0.00  0.00    +0.219 C 
BRANCH  11  12
ATOM     12  C   UNL     1      36.620 -21.602 -18.140  0.00  0.00    -0.045 C 
ATOM     13  C   UNL     1      36.403 -21.309 -19.284  0.00  0.00    -0.012 C 
ENDBRANCH  11  12
ENDBRANCH  10  11
ENDBRANCH   3  10
TORSDOF 3
ENDMDL
MODEL 5
REMARK VINA RESULT:      -5.5      2.309      3.384
REMARK  Name = 71792
REMARK  3 active torsions:
REMARK  status: ('A' for Active; 'I' for Inactive)
REMARK    1  A    between atoms: C_3  and  O_10
REMARK    2  A    between atoms: O_10  and  C_11
REMARK    3  A    between atoms: C_11  and  C_12
REMARK                            x       y       z     vdW  Elec       q    Type
REMARK                         _______ _______ _______ _____ _____    ______ ____
ROOT
ATOM      1  N   UNL     1      36.300 -18.301 -21.438  0.00  0.00    +0.389 N 
ATOM      2  C   UNL     1      33.958 -19.345 -21.853  0.00  0.00    +0.021 C 
ATOM      3  C   UNL     1      34.776 -19.284 -23.156  0.00  0.00    +0.096 C 
ATOM      4  C   UNL     1      33.837 -17.922 -21.280  0.00  0.00    -0.021 C 
ATOM      5  C   UNL     1      34.761 -20.181 -20.847  0.00  0.00    -0.021 C 
ATOM      6  C   UNL     1      36.132 -18.613 -22.876  0.00  0.00    -0.047 C 
ATOM      7  C   UNL     1      35.242 -17.349 -21.036  0.00  0.00    -0.077 C 
ATOM      8  C   UNL     1      36.147 -19.546 -20.652  0.00  0.00    -0.077 C 
ATOM      9  H   UNL     1      37.222 -17.897 -21.271  0.00  0.00    -0.080 HD
ENDROOT
BRANCH   3  10
ATOM     10  O   UNL     1      34.054 -18.550 -24.139  0.00  0.00    -0.345 OA
BRANCH  10  11
ATOM     11  C   UNL     1      34.890 -17.618 -24.809  0.00  0.00    +0.219 C 
BRANCH  11  12
ATOM     12  C   UNL     1      34.109 -16.469 -25.271  0.00  0.00    -0.045 C 
ATOM     13  C   UNL     1      33.470 -15.526 -25.651  0.00  0.00    -0.012 C 
ENDBRANCH  11  12
ENDBRANCH  10  11
ENDBRANCH   3  10
TORSDOF 3
ENDMDL
MODEL 6
REMARK VINA RESULT:      -5.5      8.102      9.872
REMARK  Name = 71792
REMARK  3 active torsions:
REMARK  status: ('A' for Active; 'I' for Inactive)
REMARK    1  A    between atoms: C_3  and  O_10
REMARK    2  A    between atoms: O_10  and  C_11
REMARK    3  A    between atoms: C_11  and  C_12
REMARK                            x       y       z     vdW  Elec       q    Type
REMARK                         _______ _______ _______ _____ _____    ______ ____
ROOT
ATOM      1  N   UNL     1      31.278  -6.969 -23.016  0.00  0.00    +0.389 N 
ATOM      2  C   UNL     1      33.616  -8.099 -23.079  0.00  0.00    +0.021 C 
ATOM      3  C   UNL     1      32.512  -9.087 -23.497  0.00  0.00    +0.096 C 
ATOM      4  C   UNL     1      33.295  -7.568 -21.670  0.00  0.00    -0.021 C 
ATOM      5  C   UNL     1      33.556  -6.909 -24.046  0.00  0.00    -0.021 C 
ATOM      6  C   UNL     1      31.142  -8.394 -23.396  0.00  0.00    -0.047 C 
ATOM      7  C   UNL     1      31.912  -6.896 -21.682  0.00  0.00    -0.077 C 
ATOM      8  C   UNL     1      32.150  -6.288 -23.999  0.00  0.00    -0.077 C 
ATOM      9  H   UNL     1      30.361  -6.521 -22.997  0.00  0.00    -0.080 HD
ENDROOT
BRANCH   3  10
ATOM     10  O   UNL     1      32.551 -10.232 -22.652  0.00  0.00    -0.345 OA
BRANCH  10  11
ATOM     11  C   UNL     1      31.263 -10.546 -22.142  0.00  0.00    +0.219 C 
BRANCH  11  12
ATOM     12  C   UNL     1      31.330 -10.797 -20.701  0.00  0.00    -0.045 C 
ATOM     13  C   UNL     1      31.386 -11.005 -19.520  0.00  0.00    -0.012 C 
ENDBRANCH  11  12
ENDBRANCH  10  11
ENDBRANCH   3  10
TORSDOF 3
ENDMDL
MODEL 7
REMARK VINA RESULT:      -5.5      1.571      2.461
REMARK  Name = 71792
REMARK  3 active torsions:
REMARK  status: ('A' for Active; 'I' for Inactive)
REMARK    1  A    between atoms: C_3  and  O_10
REMARK    2  A    between atoms: O_10  and  C_11
REMARK    3  A    between atoms: C_11  and  C_12
REMARK                            x       y       z     vdW  Elec       q    Type
REMARK                         _______ _______ _______ _____ _____    ______ ____
ROOT
ATOM      1  N   UNL     1      34.948 -18.613 -20.799  0.00  0.00    +0.389 N 
ATOM      2  C   UNL     1      35.698 -18.073 -23.227  0.00  0.00    +0.021 C 
ATOM      3  C   UNL     1      35.203 -16.806 -22.505  0.00  0.00    +0.096 C 
ATOM      4  C   UNL     1      34.571 -19.120 -23.216  0.00  0.00    -0.021 C 
ATOM      5  C   UNL     1      36.864 -18.641 -22.406  0.00  0.00    -0.021 C 
ATOM      6  C   UNL     1      34.720 -17.179 -21.093  0.00  0.00    -0.047 C 
ATOM      7  C   UNL     1      34.169 -19.420 -21.763  0.00  0.00    -0.077 C 
ATOM      8  C   UNL     1      36.386 -18.919 -20.972  0.00  0.00    -0.077 C 
ATOM      9  H   UNL     1      34.660 -18.827 -19.844  0.00  0.00    -0.080 HD
ENDROOT
BRANCH   3  10
ATOM     10  O   UNL     1      34.143 -16.216 -23.251  0.00  0.00    -0.345 OA
BRANCH  10  11
ATOM     11  C   UNL     1      34.270 -14.802 -23.304  0.00  0.00    +0.219 C 
BRANCH  11  12
ATOM     12  C   UNL     1      33.189 -14.163 -22.553  0.00  0.00    -0.045 C 
ATOM     13  C   UNL     1      32.301 -13.638 -21.938  0.00  0.00    -0.012 C 
ENDBRANCH  11  12
ENDBRANCH  10  11
ENDBRANCH   3  10
TORSDOF 3
ENDMDL
MODEL 8
REMARK VINA RESULT:      -5.4      9.412     10.923
REMARK  Name = 71792
REMARK  3 active torsions:
REMARK  status: ('A' for Active; 'I' for Inactive)
REMARK    1  A    between atoms: C_3  and  O_10
REMARK    2  A    between atoms: O_10  and  C_11
REMARK    3  A    between atoms: C_11  and  C_12
REMARK                            x       y       z     vdW  Elec       q    Type
REMARK                         _______ _______ _______ _____ _____    ______ ____
ROOT
ATOM      1  N   UNL     1      37.759 -24.719 -12.726  0.00  0.00    +0.389 N 
ATOM      2  C   UNL     1      37.765 -25.971 -15.003  0.00  0.00    +0.021 C 
ATOM      3  C   UNL     1      37.005 -24.636 -15.106  0.00  0.00    +0.096 C 
ATOM      4  C   UNL     1      37.113 -26.826 -13.902  0.00  0.00    -0.021 C 
ATOM      5  C   UNL     1      39.196 -25.649 -14.550  0.00  0.00    -0.021 C 
ATOM      6  C   UNL     1      36.981 -23.954 -13.728  0.00  0.00    -0.047 C 
ATOM      7  C   UNL     1      37.144 -26.055 -12.572  0.00  0.00    -0.077 C 
ATOM      8  C   UNL     1      39.146 -24.885 -13.216  0.00  0.00    -0.077 C 
ATOM      9  H   UNL     1      37.764 -24.226 -11.833  0.00  0.00    -0.080 HD
ENDROOT
BRANCH   3  10
ATOM     10  O   UNL     1      35.678 -24.877 -15.563  0.00  0.00    -0.345 OA
BRANCH  10  11
ATOM     11  C   UNL     1      34.821 -23.784 -15.268  0.00  0.00    +0.219 C 
BRANCH  11  12
ATOM     12  C   UNL     1      34.001 -23.446 -16.433  0.00  0.00    -0.045 C 
ATOM     13  C   UNL     1      33.328 -23.172 -17.388  0.00  0.00    -0.012 C 
ENDBRANCH  11  12
ENDBRANCH  10  11
ENDBRANCH   3  10
TORSDOF 3
ENDMDL
MODEL 9
REMARK VINA RESULT:      -5.4      8.052      9.352
REMARK  Name = 71792
REMARK  3 active torsions:
REMARK  status: ('A' for Active; 'I' for Inactive)
REMARK    1  A    between atoms: C_3  and  O_10
REMARK    2  A    between atoms: O_10  and  C_11
REMARK    3  A    between atoms: C_11  and  C_12
REMARK                            x       y       z     vdW  Elec       q    Type
REMARK                         _______ _______ _______ _____ _____    ______ ____
ROOT
ATOM      1  N   UNL     1      32.300 -23.744 -14.006  0.00  0.00    +0.389 N 
ATOM      2  C   UNL     1      30.515 -23.845 -15.891  0.00  0.00    +0.021 C 
ATOM      3  C   UNL     1      31.938 -23.795 -16.477  0.00  0.00    +0.096 C 
ATOM      4  C   UNL     1      30.307 -22.610 -14.996  0.00  0.00    -0.021 C 
ATOM      5  C   UNL     1      30.434 -25.086 -14.991  0.00  0.00    -0.021 C 
ATOM      6  C   UNL     1      32.959 -23.683 -15.332  0.00  0.00    -0.047 C 
ATOM      7  C   UNL     1      31.373 -22.598 -13.888  0.00  0.00    -0.077 C 
ATOM      8  C   UNL     1      31.524 -25.000 -13.910  0.00  0.00    -0.077 C 
ATOM      9  H   UNL     1      33.000 -23.711 -13.264  0.00  0.00    -0.080 HD
ENDROOT
BRANCH   3  10
ATOM     10  O   UNL     1      32.054 -22.679 -17.354  0.00  0.00    -0.345 OA
BRANCH  10  11
ATOM     11  C   UNL     1      33.271 -22.718 -18.086  0.00  0.00    +0.219 C 
BRANCH  11  12
ATOM     12  C   UNL     1      33.275 -21.690 -19.127  0.00  0.00    -0.045 C 
ATOM     13  C   UNL     1      33.280 -20.847 -19.983  0.00  0.00    -0.012 C 
ENDBRANCH  11  12
ENDBRANCH  10  11
ENDBRANCH   3  10
TORSDOF 3
ENDMDL
