MODEL 1
REMARK VINA RESULT:      -8.3      0.000      0.000
REMARK  Name = 24764440
REMARK  2 active torsions:
REMARK  status: ('A' for Active; 'I' for Inactive)
REMARK    1  A    between atoms: C_10  and  C_12
REMARK    2  A    between atoms: C_13  and  N_18
REMARK                            x       y       z     vdW  Elec       q    Type
REMARK                         _______ _______ _______ _____ _____    ______ ____
ROOT
ATOM      1  O   UNL     1      34.568 -10.964 -24.977  0.00  0.00    -0.270 OA
ATOM      2  N   UNL     1      32.813 -10.659 -23.461  0.00  0.00    -0.276 N 
ATOM      3  C   UNL     1      32.961  -8.518 -22.253  0.00  0.00    +0.020 C 
ATOM      4  C   UNL     1      31.963 -10.575 -21.150  0.00  0.00    +0.020 C 
ATOM      5  C   UNL     1      31.925  -9.040 -21.244  0.00  0.00    +0.003 C 
ATOM      6  C   UNL     1      32.785  -9.204 -23.614  0.00  0.00    +0.094 C 
ATOM      7  C   UNL     1      31.803 -11.199 -22.541  0.00  0.00    +0.094 C 
ATOM      8  C   UNL     1      32.863  -7.001 -22.396  0.00  0.00    +0.002 C 
ATOM      9  C   UNL     1      30.883 -11.087 -20.200  0.00  0.00    +0.002 C 
ATOM     10  C   UNL     1      33.739 -11.413 -24.187  0.00  0.00    +0.250 C 
ENDROOT
BRANCH  10  12
ATOM     11 BR   UNL     1      34.445 -15.448 -20.806  0.00  0.00    -0.049 Br
ATOM     12  C   UNL     1      33.746 -12.869 -23.997  0.00  0.00    +0.067 C 
ATOM     13  C   UNL     1      33.470 -13.739 -25.052  0.00  0.00    +0.046 C 
ATOM     14  C   UNL     1      34.037 -13.378 -22.732  0.00  0.00    +0.012 C 
ATOM     15  C   UNL     1      33.484 -15.117 -24.841  0.00  0.00    +0.015 C 
ATOM     16  C   UNL     1      34.051 -14.756 -22.521  0.00  0.00    +0.035 C 
ATOM     17  C   UNL     1      33.775 -15.626 -23.575  0.00  0.00    +0.008 C 
BRANCH  13  18
ATOM     18  N   UNL     1      33.173 -13.244 -26.341  0.00  0.00    -0.357 N 
ATOM     19  H   UNL     1      33.094 -12.274 -26.490  0.00  0.00    +0.142 HD
ATOM     20  H   UNL     1      33.046 -13.870 -27.091  0.00  0.00    +0.142 HD
ENDBRANCH  13  18
ENDBRANCH  10  12
TORSDOF 2
ENDMDL
MODEL 2
REMARK VINA RESULT:      -8.0      3.228      6.521
REMARK  Name = 24764440
REMARK  2 active torsions:
REMARK  status: ('A' for Active; 'I' for Inactive)
REMARK    1  A    between atoms: C_10  and  C_12
REMARK    2  A    between atoms: C_13  and  N_18
REMARK                            x       y       z     vdW  Elec       q    Type
REMARK                         _______ _______ _______ _____ _____    ______ ____
ROOT
ATOM      1  O   UNL     1      31.039 -11.064 -20.673  0.00  0.00    -0.270 OA
ATOM      2  N   UNL     1      32.137 -11.178 -22.736  0.00  0.00    -0.276 N 
ATOM      3  C   UNL     1      33.360 -13.292 -23.046  0.00  0.00    +0.020 C 
ATOM      4  C   UNL     1      34.206 -11.130 -24.072  0.00  0.00    +0.020 C 
ATOM      5  C   UNL     1      34.115 -12.657 -24.225  0.00  0.00    +0.003 C 
ATOM      6  C   UNL     1      31.989 -12.628 -22.861  0.00  0.00    +0.094 C 
ATOM      7  C   UNL     1      32.810 -10.530 -23.869  0.00  0.00    +0.094 C 
ATOM      8  C   UNL     1      33.208 -14.798 -23.247  0.00  0.00    +0.002 C 
ATOM      9  C   UNL     1      34.895 -10.502 -25.282  0.00  0.00    +0.002 C 
ATOM     10  C   UNL     1      31.626 -10.524 -21.611  0.00  0.00    +0.250 C 
ENDROOT
BRANCH  10  12
ATOM     11 BR   UNL     1      31.229  -5.827 -24.057  0.00  0.00    -0.049 Br
ATOM     12  C   UNL     1      31.805  -9.070 -21.514  0.00  0.00    +0.067 C 
ATOM     13  C   UNL     1      32.277  -8.475 -20.344  0.00  0.00    +0.046 C 
ATOM     14  C   UNL     1      31.493  -8.282 -22.620  0.00  0.00    +0.012 C 
ATOM     15  C   UNL     1      32.436  -7.091 -20.280  0.00  0.00    +0.015 C 
ATOM     16  C   UNL     1      31.652  -6.898 -22.557  0.00  0.00    +0.035 C 
ATOM     17  C   UNL     1      32.123  -6.302 -21.387  0.00  0.00    +0.008 C 
BRANCH  13  18
ATOM     18  N   UNL     1      32.598  -9.256 -19.211  0.00  0.00    -0.357 N 
ATOM     19  H   UNL     1      32.100  -9.134 -18.371  0.00  0.00    +0.142 HD
ATOM     20  H   UNL     1      33.321  -9.923 -19.263  0.00  0.00    +0.142 HD
ENDBRANCH  13  18
ENDBRANCH  10  12
TORSDOF 2
ENDMDL
MODEL 3
REMARK VINA RESULT:      -7.9      2.227      5.673
REMARK  Name = 24764440
REMARK  2 active torsions:
REMARK  status: ('A' for Active; 'I' for Inactive)
REMARK    1  A    between atoms: C_10  and  C_12
REMARK    2  A    between atoms: C_13  and  N_18
REMARK                            x       y       z     vdW  Elec       q    Type
REMARK                         _______ _______ _______ _____ _____    ______ ____
ROOT
ATOM      1  O   UNL     1      33.283 -13.868 -25.798  0.00  0.00    -0.270 OA
ATOM      2  N   UNL     1      34.299 -14.693 -23.858  0.00  0.00    -0.276 N 
ATOM      3  C   UNL     1      34.131 -17.142 -23.665  0.00  0.00    +0.020 C 
ATOM      4  C   UNL     1      34.142 -15.665 -21.600  0.00  0.00    +0.020 C 
ATOM      5  C   UNL     1      34.537 -17.031 -22.186  0.00  0.00    +0.003 C 
ATOM      6  C   UNL     1      34.693 -15.962 -24.470  0.00  0.00    +0.094 C 
ATOM      7  C   UNL     1      34.713 -14.531 -22.459  0.00  0.00    +0.094 C 
ATOM      8  C   UNL     1      34.596 -18.470 -24.257  0.00  0.00    +0.002 C 
ATOM      9  C   UNL     1      34.612 -15.538 -20.153  0.00  0.00    +0.002 C 
ATOM     10  C   UNL     1      33.608 -13.743 -24.618  0.00  0.00    +0.250 C 
ENDROOT
BRANCH  10  12
ATOM     11 BR   UNL     1      30.759 -11.429 -20.780  0.00  0.00    -0.049 Br
ATOM     12  C   UNL     1      33.217 -12.487 -23.966  0.00  0.00    +0.067 C 
ATOM     13  C   UNL     1      33.708 -11.258 -24.409  0.00  0.00    +0.046 C 
ATOM     14  C   UNL     1      32.339 -12.539 -22.885  0.00  0.00    +0.012 C 
ATOM     15  C   UNL     1      33.320 -10.082 -23.770  0.00  0.00    +0.015 C 
ATOM     16  C   UNL     1      31.950 -11.361 -22.246  0.00  0.00    +0.035 C 
ATOM     17  C   UNL     1      32.441 -10.133 -22.688  0.00  0.00    +0.008 C 
BRANCH  13  18
ATOM     18  N   UNL     1      34.599 -11.185 -25.502  0.00  0.00    -0.357 N 
ATOM     19  H   UNL     1      35.365 -11.802 -25.556  0.00  0.00    +0.142 HD
ATOM     20  H   UNL     1      34.454 -10.517 -26.212  0.00  0.00    +0.142 HD
ENDBRANCH  13  18
ENDBRANCH  10  12
TORSDOF 2
ENDMDL
MODEL 4
REMARK VINA RESULT:      -7.7      4.365      6.159
REMARK  Name = 24764440
REMARK  2 active torsions:
REMARK  status: ('A' for Active; 'I' for Inactive)
REMARK    1  A    between atoms: C_10  and  C_12
REMARK    2  A    between atoms: C_13  and  N_18
REMARK                            x       y       z     vdW  Elec       q    Type
REMARK                         _______ _______ _______ _____ _____    ______ ____
ROOT
ATOM      1  O   UNL     1      35.455 -17.914 -24.355  0.00  0.00    -0.270 OA
ATOM      2  N   UNL     1      34.026 -16.614 -23.037  0.00  0.00    -0.276 N 
ATOM      3  C   UNL     1      34.067 -14.231 -23.658  0.00  0.00    +0.020 C 
ATOM      4  C   UNL     1      33.670 -14.950 -21.256  0.00  0.00    +0.020 C 
ATOM      5  C   UNL     1      33.362 -13.896 -22.333  0.00  0.00    +0.003 C 
ATOM      6  C   UNL     1      33.728 -15.659 -24.105  0.00  0.00    +0.094 C 
ATOM      7  C   UNL     1      33.331 -16.354 -21.770  0.00  0.00    +0.094 C 
ATOM      8  C   UNL     1      33.693 -13.222 -24.741  0.00  0.00    +0.002 C 
ATOM      9  C   UNL     1      32.910 -14.647 -19.967  0.00  0.00    +0.002 C 
ATOM     10  C   UNL     1      34.893 -17.682 -23.286  0.00  0.00    +0.250 C 
ENDROOT
BRANCH  10  12
ATOM     11 BR   UNL     1      32.920 -21.093 -19.725  0.00  0.00    -0.049 Br
ATOM     12  C   UNL     1      35.179 -18.612 -22.186  0.00  0.00    +0.067 C 
ATOM     13  C   UNL     1      36.483 -18.826 -21.741  0.00  0.00    +0.046 C 
ATOM     14  C   UNL     1      34.117 -19.286 -21.586  0.00  0.00    +0.012 C 
ATOM     15  C   UNL     1      36.725 -19.716 -20.695  0.00  0.00    +0.015 C 
ATOM     16  C   UNL     1      34.359 -20.177 -20.540  0.00  0.00    +0.035 C 
ATOM     17  C   UNL     1      35.663 -20.391 -20.094  0.00  0.00    +0.008 C 
BRANCH  13  18
ATOM     18  N   UNL     1      37.574 -18.153 -22.335  0.00  0.00    -0.357 N 
ATOM     19  H   UNL     1      38.409 -18.025 -21.830  0.00  0.00    +0.142 HD
ATOM     20  H   UNL     1      37.499 -17.812 -23.257  0.00  0.00    +0.142 HD
ENDBRANCH  13  18
ENDBRANCH  10  12
TORSDOF 2
ENDMDL
MODEL 5
REMARK VINA RESULT:      -7.4      3.573      7.055
REMARK  Name = 24764440
REMARK  2 active torsions:
REMARK  status: ('A' for Active; 'I' for Inactive)
REMARK    1  A    between atoms: C_10  and  C_12
REMARK    2  A    between atoms: C_13  and  N_18
REMARK                            x       y       z     vdW  Elec       q    Type
REMARK                         _______ _______ _______ _____ _____    ______ ____
ROOT
ATOM      1  O   UNL     1      35.018 -14.985 -20.007  0.00  0.00    -0.270 OA
ATOM      2  N   UNL     1      34.554 -16.544 -21.689  0.00  0.00    -0.276 N 
ATOM      3  C   UNL     1      36.376 -18.170 -22.007  0.00  0.00    +0.020 C 
ATOM      4  C   UNL     1      34.929 -17.429 -23.957  0.00  0.00    +0.020 C 
ATOM      5  C   UNL     1      35.745 -18.582 -23.348  0.00  0.00    +0.003 C 
ATOM      6  C   UNL     1      35.307 -17.624 -21.051  0.00  0.00    +0.094 C 
ATOM      7  C   UNL     1      33.896 -16.915 -22.948  0.00  0.00    +0.094 C 
ATOM      8  C   UNL     1      37.119 -19.343 -21.373  0.00  0.00    +0.002 C 
ATOM      9  C   UNL     1      34.249 -17.871 -25.251  0.00  0.00    +0.002 C 
ATOM     10  C   UNL     1      34.487 -15.290 -21.075  0.00  0.00    +0.250 C 
ENDROOT
BRANCH  10  12
ATOM     11 BR   UNL     1      34.088 -12.156 -25.345  0.00  0.00    -0.049 Br
ATOM     12  C   UNL     1      33.734 -14.226 -21.752  0.00  0.00    +0.067 C 
ATOM     13  C   UNL     1      32.593 -13.668 -21.176  0.00  0.00    +0.046 C 
ATOM     14  C   UNL     1      34.181 -13.776 -22.994  0.00  0.00    +0.012 C 
ATOM     15  C   UNL     1      31.898 -12.660 -21.842  0.00  0.00    +0.015 C 
ATOM     16  C   UNL     1      33.485 -12.768 -23.661  0.00  0.00    +0.035 C 
ATOM     17  C   UNL     1      32.344 -12.209 -23.085  0.00  0.00    +0.008 C 
BRANCH  13  18
ATOM     18  N   UNL     1      32.125 -14.110 -19.918  0.00  0.00    -0.357 N 
ATOM     19  H   UNL     1      32.513 -13.743 -19.091  0.00  0.00    +0.142 HD
ATOM     20  H   UNL     1      31.409 -14.784 -19.869  0.00  0.00    +0.142 HD
ENDBRANCH  13  18
ENDBRANCH  10  12
TORSDOF 2
ENDMDL
MODEL 6
REMARK VINA RESULT:      -7.3      5.453      8.118
REMARK  Name = 24764440
REMARK  2 active torsions:
REMARK  status: ('A' for Active; 'I' for Inactive)
REMARK    1  A    between atoms: C_10  and  C_12
REMARK    2  A    between atoms: C_13  and  N_18
REMARK                            x       y       z     vdW  Elec       q    Type
REMARK                         _______ _______ _______ _____ _____    ______ ____
ROOT
ATOM      1  O   UNL     1      35.223 -16.845 -20.467  0.00  0.00    -0.270 OA
ATOM      2  N   UNL     1      35.341 -17.605 -22.676  0.00  0.00    -0.276 N 
ATOM      3  C   UNL     1      33.966 -16.265 -24.217  0.00  0.00    +0.020 C 
ATOM      4  C   UNL     1      34.328 -18.747 -24.610  0.00  0.00    +0.020 C 
ATOM      5  C   UNL     1      34.102 -17.377 -25.271  0.00  0.00    +0.003 C 
ATOM      6  C   UNL     1      35.166 -16.276 -23.261  0.00  0.00    +0.094 C 
ATOM      7  C   UNL     1      35.524 -18.686 -23.652  0.00  0.00    +0.094 C 
ATOM      8  C   UNL     1      33.819 -14.900 -24.884  0.00  0.00    +0.002 C 
ATOM      9  C   UNL     1      34.533 -19.831 -25.665  0.00  0.00    +0.002 C 
ATOM     10  C   UNL     1      35.351 -17.754 -21.286  0.00  0.00    +0.250 C 
ENDROOT
BRANCH  10  12
ATOM     11 BR   UNL     1      32.984 -21.988 -19.123  0.00  0.00    -0.049 Br
ATOM     12  C   UNL     1      35.515 -19.105 -20.735  0.00  0.00    +0.067 C 
ATOM     13  C   UNL     1      36.770 -19.712 -20.667  0.00  0.00    +0.046 C 
ATOM     14  C   UNL     1      34.387 -19.782 -20.275  0.00  0.00    +0.012 C 
ATOM     15  C   UNL     1      36.895 -20.996 -20.140  0.00  0.00    +0.015 C 
ATOM     16  C   UNL     1      34.512 -21.067 -19.747  0.00  0.00    +0.035 C 
ATOM     17  C   UNL     1      35.766 -21.674 -19.680  0.00  0.00    +0.008 C 
BRANCH  13  18
ATOM     18  N   UNL     1      37.925 -19.043 -21.128  0.00  0.00    -0.357 N 
ATOM     19  H   UNL     1      38.717 -19.559 -21.404  0.00  0.00    +0.142 HD
ATOM     20  H   UNL     1      37.939 -18.059 -21.175  0.00  0.00    +0.142 HD
ENDBRANCH  13  18
ENDBRANCH  10  12
TORSDOF 2
ENDMDL
MODEL 7
REMARK VINA RESULT:      -7.2      2.540      5.813
REMARK  Name = 24764440
REMARK  2 active torsions:
REMARK  status: ('A' for Active; 'I' for Inactive)
REMARK    1  A    between atoms: C_10  and  C_12
REMARK    2  A    between atoms: C_13  and  N_18
REMARK                            x       y       z     vdW  Elec       q    Type
REMARK                         _______ _______ _______ _____ _____    ______ ____
ROOT
ATOM      1  O   UNL     1      33.282 -13.354 -25.742  0.00  0.00    -0.270 OA
ATOM      2  N   UNL     1      34.293 -14.310 -23.861  0.00  0.00    -0.276 N 
ATOM      3  C   UNL     1      34.078 -16.762 -23.810  0.00  0.00    +0.020 C 
ATOM      4  C   UNL     1      34.131 -15.409 -21.662  0.00  0.00    +0.020 C 
ATOM      5  C   UNL     1      34.495 -16.746 -22.330  0.00  0.00    +0.003 C 
ATOM      6  C   UNL     1      34.658 -15.549 -24.548  0.00  0.00    +0.094 C 
ATOM      7  C   UNL     1      34.719 -14.238 -22.458  0.00  0.00    +0.094 C 
ATOM      8  C   UNL     1      34.513 -18.062 -24.482  0.00  0.00    +0.002 C 
ATOM      9  C   UNL     1      34.612 -15.376 -20.214  0.00  0.00    +0.002 C 
ATOM     10  C   UNL     1      33.617 -13.304 -24.559  0.00  0.00    +0.250 C 
ENDROOT
BRANCH  10  12
ATOM     11 BR   UNL     1      34.503  -8.111 -23.888  0.00  0.00    -0.049 Br
ATOM     12  C   UNL     1      33.255 -12.081 -23.832  0.00  0.00    +0.067 C 
ATOM     13  C   UNL     1      32.265 -12.087 -22.850  0.00  0.00    +0.046 C 
ATOM     14  C   UNL     1      33.923 -10.896 -24.142  0.00  0.00    +0.012 C 
ATOM     15  C   UNL     1      31.942 -10.910 -22.177  0.00  0.00    +0.015 C 
ATOM     16  C   UNL     1      33.600  -9.718 -23.469  0.00  0.00    +0.035 C 
ATOM     17  C   UNL     1      32.610  -9.725 -22.487  0.00  0.00    +0.008 C 
BRANCH  13  18
ATOM     18  N   UNL     1      31.577 -13.277 -22.521  0.00  0.00    -0.357 N 
ATOM     19  H   UNL     1      30.783 -13.545 -23.038  0.00  0.00    +0.142 HD
ATOM     20  H   UNL     1      31.893 -13.839 -21.777  0.00  0.00    +0.142 HD
ENDBRANCH  13  18
ENDBRANCH  10  12
TORSDOF 2
ENDMDL
MODEL 8
REMARK VINA RESULT:      -7.1      1.901      3.070
REMARK  Name = 24764440
REMARK  2 active torsions:
REMARK  status: ('A' for Active; 'I' for Inactive)
REMARK    1  A    between atoms: C_10  and  C_12
REMARK    2  A    between atoms: C_13  and  N_18
REMARK                            x       y       z     vdW  Elec       q    Type
REMARK                         _______ _______ _______ _____ _____    ______ ____
ROOT
ATOM      1  O   UNL     1      31.663 -13.666 -22.434  0.00  0.00    -0.270 OA
ATOM      2  N   UNL     1      33.252 -12.145 -23.230  0.00  0.00    -0.276 N 
ATOM      3  C   UNL     1      32.318  -9.894 -23.583  0.00  0.00    +0.020 C 
ATOM      4  C   UNL     1      34.191 -10.778 -25.052  0.00  0.00    +0.020 C 
ATOM      5  C   UNL     1      33.565  -9.530 -24.407  0.00  0.00    +0.003 C 
ATOM      6  C   UNL     1      32.646 -10.992 -22.563  0.00  0.00    +0.094 C 
ATOM      7  C   UNL     1      34.474 -11.844 -23.987  0.00  0.00    +0.094 C 
ATOM      8  C   UNL     1      31.750  -8.660 -22.885  0.00  0.00    +0.002 C 
ATOM      9  C   UNL     1      35.467 -10.416 -25.808  0.00  0.00    +0.002 C 
ATOM     10  C   UNL     1      32.673 -13.409 -23.089  0.00  0.00    +0.250 C 
ENDROOT
BRANCH  10  12
ATOM     11 BR   UNL     1      35.760 -17.712 -22.684  0.00  0.00    -0.049 Br
ATOM     12  C   UNL     1      33.301 -14.540 -23.784  0.00  0.00    +0.067 C 
ATOM     13  C   UNL     1      33.123 -14.738 -25.153  0.00  0.00    +0.046 C 
ATOM     14  C   UNL     1      34.086 -15.425 -23.047  0.00  0.00    +0.012 C 
ATOM     15  C   UNL     1      33.732 -15.820 -25.786  0.00  0.00    +0.015 C 
ATOM     16  C   UNL     1      34.695 -16.509 -23.680  0.00  0.00    +0.035 C 
ATOM     17  C   UNL     1      34.518 -16.707 -25.050  0.00  0.00    +0.008 C 
BRANCH  13  18
ATOM     18  N   UNL     1      32.331 -13.852 -25.917  0.00  0.00    -0.357 N 
ATOM     19  H   UNL     1      31.452 -13.563 -25.581  0.00  0.00    +0.142 HD
ATOM     20  H   UNL     1      32.659 -13.522 -26.786  0.00  0.00    +0.142 HD
ENDBRANCH  13  18
ENDBRANCH  10  12
TORSDOF 2
ENDMDL
MODEL 9
REMARK VINA RESULT:      -6.9     12.744     15.097
REMARK  Name = 24764440
REMARK  2 active torsions:
REMARK  status: ('A' for Active; 'I' for Inactive)
REMARK    1  A    between atoms: C_10  and  C_12
REMARK    2  A    between atoms: C_13  and  N_18
REMARK                            x       y       z     vdW  Elec       q    Type
REMARK                         _______ _______ _______ _____ _____    ______ ____
ROOT
ATOM      1  O   UNL     1      34.350 -25.246 -14.997  0.00  0.00    -0.270 OA
ATOM      2  N   UNL     1      35.157 -23.215 -15.831  0.00  0.00    -0.276 N 
ATOM      3  C   UNL     1      34.596 -22.872 -18.204  0.00  0.00    +0.020 C 
ATOM      4  C   UNL     1      36.745 -21.945 -17.221  0.00  0.00    +0.020 C 
ATOM      5  C   UNL     1      35.632 -21.738 -18.262  0.00  0.00    +0.003 C 
ATOM      6  C   UNL     1      34.055 -23.038 -16.778  0.00  0.00    +0.094 C 
ATOM      7  C   UNL     1      36.141 -22.125 -15.824  0.00  0.00    +0.094 C 
ATOM      8  C   UNL     1      33.456 -22.617 -19.188  0.00  0.00    +0.002 C 
ATOM      9  C   UNL     1      37.730 -20.777 -17.239  0.00  0.00    +0.002 C 
ATOM     10  C   UNL     1      35.188 -24.345 -15.009  0.00  0.00    +0.250 C 
ENDROOT
BRANCH  10  12
ATOM     11 BR   UNL     1      40.249 -25.824 -14.372  0.00  0.00    -0.049 Br
ATOM     12  C   UNL     1      36.316 -24.496 -14.081  0.00  0.00    +0.067 C 
ATOM     13  C   UNL     1      36.198 -24.150 -12.735  0.00  0.00    +0.046 C 
ATOM     14  C   UNL     1      37.523 -24.995 -14.570  0.00  0.00    +0.012 C 
ATOM     15  C   UNL     1      37.286 -24.304 -11.877  0.00  0.00    +0.015 C 
ATOM     16  C   UNL     1      38.612 -25.148 -13.712  0.00  0.00    +0.035 C 
ATOM     17  C   UNL     1      38.494 -24.802 -12.366  0.00  0.00    +0.008 C 
BRANCH  13  18
ATOM     18  N   UNL     1      34.984 -23.643 -12.220  0.00  0.00    -0.357 N 
ATOM     19  H   UNL     1      34.174 -23.642 -12.780  0.00  0.00    +0.142 HD
ATOM     20  H   UNL     1      34.947 -23.292 -11.301  0.00  0.00    +0.142 HD
ENDBRANCH  13  18
ENDBRANCH  10  12
TORSDOF 2
ENDMDL
