MODEL 1
REMARK VINA RESULT:     -10.9      0.000      0.000
REMARK  Name = 10042950
REMARK  5 active torsions:
REMARK  status: ('A' for Active; 'I' for Inactive)
REMARK    1  A    between atoms: C_4  and  C_16
REMARK    2  A    between atoms: C_7  and  N_19
REMARK    3  A    between atoms: C_8  and  C_10
REMARK    4  A    between atoms: N_19  and  C_21
REMARK    5  A    between atoms: C_21  and  C_23
REMARK                            x       y       z     vdW  Elec       q    Type
REMARK                         _______ _______ _______ _____ _____    ______ ____
ROOT
ATOM      1  N   UNL     1      32.477 -23.765 -15.677  0.00  0.00    -0.152 N 
ATOM      2  N   UNL     1      31.758 -24.374 -14.692  0.00  0.00    -0.174 NA
ATOM      3  N   UNL     1      32.127 -22.370 -17.609  0.00  0.00    -0.389 NA
ATOM      4  C   UNL     1      30.356 -23.236 -16.077  0.00  0.00    +0.112 C 
ATOM      5  C   UNL     1      31.640 -23.060 -16.543  0.00  0.00    +0.189 C 
ATOM      6  C   UNL     1      30.493 -24.047 -14.945  0.00  0.00    +0.100 C 
ATOM      7  C   UNL     1      33.868 -23.787 -15.865  0.00  0.00    +0.126 C 
ATOM      8  C   UNL     1      33.415 -22.402 -17.792  0.00  0.00    +0.135 C 
ATOM      9  C   UNL     1      34.388 -23.119 -16.908  0.00  0.00    +0.064 C 
ENDROOT
BRANCH   8  10
ATOM     10  C   UNL     1      33.993 -21.667 -18.950  0.00  0.00    +0.030 C 
ATOM     11  C   UNL     1      33.169 -20.889 -19.758  0.00  0.00    +0.003 C 
ATOM     12  C   UNL     1      35.356 -21.762 -19.220  0.00  0.00    +0.003 C 
ATOM     13  C   UNL     1      33.711 -20.200 -20.843  0.00  0.00    +0.000 C 
ATOM     14  C   UNL     1      35.898 -21.073 -20.305  0.00  0.00    +0.000 C 
ATOM     15  C   UNL     1      35.076 -20.292 -21.117  0.00  0.00    +0.000 C 
ENDBRANCH   8  10
BRANCH   4  16
ATOM     16  C   UNL     1      29.074 -22.675 -16.664  0.00  0.00    +0.014 C 
ATOM     17  C   UNL     1      27.791 -22.778 -15.874  0.00  0.00    +0.001 C 
ATOM     18  C   UNL     1      27.981 -23.622 -17.100  0.00  0.00    +0.001 C 
ENDBRANCH   4  16
BRANCH   7  19
ATOM     19  N   UNL     1      34.616 -24.490 -14.962  0.00  0.00    -0.316 N 
ATOM     20  H   UNL     1      34.609 -25.473 -15.015  0.00  0.00    +0.148 HD
BRANCH  19  21
ATOM     21  C   UNL     1      35.410 -23.867 -13.937  0.00  0.00    +0.117 C 
BRANCH  21  23
ATOM     22  N   UNL     1      38.989 -24.455 -14.956  0.00  0.00    -0.243 NA
ATOM     23  C   UNL     1      36.818 -24.386 -13.923  0.00  0.00    +0.017 C 
ATOM     24  C   UNL     1      37.242 -25.239 -12.919  0.00  0.00    +0.001 C 
ATOM     25  C   UNL     1      37.709 -24.022 -14.909  0.00  0.00    +0.096 C 
ATOM     26  C   UNL     1      38.552 -25.705 -12.933  0.00  0.00    +0.020 C 
ATOM     27  C   UNL     1      39.378 -25.288 -13.964  0.00  0.00    +0.099 C 
ENDBRANCH  21  23
ENDBRANCH  19  21
ENDBRANCH   7  19
TORSDOF 5
ENDMDL
MODEL 2
REMARK VINA RESULT:     -10.8      1.929      7.254
REMARK  Name = 10042950
REMARK  5 active torsions:
REMARK  status: ('A' for Active; 'I' for Inactive)
REMARK    1  A    between atoms: C_4  and  C_16
REMARK    2  A    between atoms: C_7  and  N_19
REMARK    3  A    between atoms: C_8  and  C_10
REMARK    4  A    between atoms: N_19  and  C_21
REMARK    5  A    between atoms: C_21  and  C_23
REMARK                            x       y       z     vdW  Elec       q    Type
REMARK                         _______ _______ _______ _____ _____    ______ ____
ROOT
ATOM      1  N   UNL     1      35.159 -22.861 -16.543  0.00  0.00    -0.152 N 
ATOM      2  N   UNL     1      36.497 -22.609 -16.595  0.00  0.00    -0.174 NA
ATOM      3  N   UNL     1      33.482 -23.552 -14.957  0.00  0.00    -0.389 NA
ATOM      4  C   UNL     1      35.912 -23.227 -14.484  0.00  0.00    +0.112 C 
ATOM      5  C   UNL     1      34.773 -23.245 -15.257  0.00  0.00    +0.189 C 
ATOM      6  C   UNL     1      36.932 -22.831 -15.357  0.00  0.00    +0.100 C 
ATOM      7  C   UNL     1      34.225 -22.769 -17.587  0.00  0.00    +0.126 C 
ATOM      8  C   UNL     1      32.618 -23.480 -15.928  0.00  0.00    +0.135 C 
ATOM      9  C   UNL     1      32.940 -23.066 -17.330  0.00  0.00    +0.064 C 
ENDROOT
BRANCH   8  10
ATOM     10  C   UNL     1      31.196 -23.813 -15.648  0.00  0.00    +0.030 C 
ATOM     11  C   UNL     1      30.885 -24.908 -14.846  0.00  0.00    +0.003 C 
ATOM     12  C   UNL     1      30.181 -23.028 -16.190  0.00  0.00    +0.003 C 
ATOM     13  C   UNL     1      29.551 -25.219 -14.583  0.00  0.00    +0.000 C 
ATOM     14  C   UNL     1      28.847 -23.340 -15.928  0.00  0.00    +0.000 C 
ATOM     15  C   UNL     1      28.532 -24.435 -15.124  0.00  0.00    +0.000 C 
ENDBRANCH   8  10
BRANCH   4  16
ATOM     16  C   UNL     1      36.035 -23.564 -13.010  0.00  0.00    +0.014 C 
ATOM     17  C   UNL     1      37.393 -23.892 -12.435  0.00  0.00    +0.001 C 
ATOM     18  C   UNL     1      36.370 -24.978 -12.598  0.00  0.00    +0.001 C 
ENDBRANCH   4  16
BRANCH   7  19
ATOM     19  N   UNL     1      34.685 -22.372 -18.811  0.00  0.00    -0.316 N 
ATOM     20  H   UNL     1      35.626 -22.556 -19.039  0.00  0.00    +0.148 HD
BRANCH  19  21
ATOM     21  C   UNL     1      33.867 -21.698 -19.784  0.00  0.00    +0.117 C 
BRANCH  21  23
ATOM     22  N   UNL     1      36.568 -19.228 -20.681  0.00  0.00    -0.243 NA
ATOM     23  C   UNL     1      34.539 -20.473 -20.332  0.00  0.00    +0.017 C 
ATOM     24  C   UNL     1      33.800 -19.492 -20.969  0.00  0.00    +0.001 C 
ATOM     25  C   UNL     1      35.901 -20.307 -20.210  0.00  0.00    +0.096 C 
ATOM     26  C   UNL     1      34.449 -18.367 -21.466  0.00  0.00    +0.020 C 
ATOM     27  C   UNL     1      35.821 -18.284 -21.297  0.00  0.00    +0.099 C 
ENDBRANCH  21  23
ENDBRANCH  19  21
ENDBRANCH   7  19
TORSDOF 5
ENDMDL
MODEL 3
REMARK VINA RESULT:     -10.8      1.409      4.978
REMARK  Name = 10042950
REMARK  5 active torsions:
REMARK  status: ('A' for Active; 'I' for Inactive)
REMARK    1  A    between atoms: C_4  and  C_16
REMARK    2  A    between atoms: C_7  and  N_19
REMARK    3  A    between atoms: C_8  and  C_10
REMARK    4  A    between atoms: N_19  and  C_21
REMARK    5  A    between atoms: C_21  and  C_23
REMARK                            x       y       z     vdW  Elec       q    Type
REMARK                         _______ _______ _______ _____ _____    ______ ____
ROOT
ATOM      1  N   UNL     1      34.710 -22.676 -17.283  0.00  0.00    -0.152 N 
ATOM      2  N   UNL     1      35.923 -22.339 -17.806  0.00  0.00    -0.174 NA
ATOM      3  N   UNL     1      32.371 -22.547 -17.842  0.00  0.00    -0.389 NA
ATOM      4  C   UNL     1      34.268 -21.735 -19.247  0.00  0.00    +0.112 C 
ATOM      5  C   UNL     1      33.675 -22.314 -18.148  0.00  0.00    +0.189 C 
ATOM      6  C   UNL     1      35.642 -21.779 -18.980  0.00  0.00    +0.100 C 
ATOM      7  C   UNL     1      34.448 -23.306 -16.056  0.00  0.00    +0.126 C 
ATOM      8  C   UNL     1      32.126 -23.118 -16.699  0.00  0.00    +0.135 C 
ATOM      9  C   UNL     1      33.171 -23.551 -15.718  0.00  0.00    +0.064 C 
ENDROOT
BRANCH   8  10
ATOM     10  C   UNL     1      30.713 -23.386 -16.320  0.00  0.00    +0.030 C 
ATOM     11  C   UNL     1      29.709 -22.506 -16.717  0.00  0.00    +0.003 C 
ATOM     12  C   UNL     1      30.400 -24.516 -15.568  0.00  0.00    +0.003 C 
ATOM     13  C   UNL     1      28.385 -22.758 -16.361  0.00  0.00    +0.000 C 
ATOM     14  C   UNL     1      29.075 -24.768 -15.212  0.00  0.00    +0.000 C 
ATOM     15  C   UNL     1      28.067 -23.890 -15.609  0.00  0.00    +0.000 C 
ENDBRANCH   8  10
BRANCH   4  16
ATOM     16  C   UNL     1      33.583 -21.171 -20.478  0.00  0.00    +0.014 C 
ATOM     17  C   UNL     1      34.053 -19.854 -21.050  0.00  0.00    +0.001 C 
ATOM     18  C   UNL     1      32.728 -19.932 -20.349  0.00  0.00    +0.001 C 
ENDBRANCH   4  16
BRANCH   7  19
ATOM     19  N   UNL     1      35.520 -23.639 -15.276  0.00  0.00    -0.316 N 
ATOM     20  H   UNL     1      36.135 -22.922 -14.997  0.00  0.00    +0.148 HD
BRANCH  19  21
ATOM     21  C   UNL     1      35.797 -24.983 -14.845  0.00  0.00    +0.117 C 
BRANCH  21  23
ATOM     22  N   UNL     1      39.033 -26.903 -14.653  0.00  0.00    -0.243 NA
ATOM     23  C   UNL     1      37.268 -25.280 -14.841  0.00  0.00    +0.017 C 
ATOM     24  C   UNL     1      38.191 -24.262 -15.010  0.00  0.00    +0.001 C 
ATOM     25  C   UNL     1      37.723 -26.569 -14.668  0.00  0.00    +0.096 C 
ATOM     26  C   UNL     1      39.547 -24.566 -15.001  0.00  0.00    +0.020 C 
ATOM     27  C   UNL     1      39.913 -25.889 -14.820  0.00  0.00    +0.099 C 
ENDBRANCH  21  23
ENDBRANCH  19  21
ENDBRANCH   7  19
TORSDOF 5
ENDMDL
MODEL 4
REMARK VINA RESULT:     -10.7      1.642      5.169
REMARK  Name = 10042950
REMARK  5 active torsions:
REMARK  status: ('A' for Active; 'I' for Inactive)
REMARK    1  A    between atoms: C_4  and  C_16
REMARK    2  A    between atoms: C_7  and  N_19
REMARK    3  A    between atoms: C_8  and  C_10
REMARK    4  A    between atoms: N_19  and  C_21
REMARK    5  A    between atoms: C_21  and  C_23
REMARK                            x       y       z     vdW  Elec       q    Type
REMARK                         _______ _______ _______ _____ _____    ______ ____
ROOT
ATOM      1  N   UNL     1      34.852 -22.504 -17.651  0.00  0.00    -0.152 N 
ATOM      2  N   UNL     1      35.975 -22.076 -18.293  0.00  0.00    -0.174 NA
ATOM      3  N   UNL     1      32.460 -22.483 -17.928  0.00  0.00    -0.389 NA
ATOM      4  C   UNL     1      34.133 -21.503 -19.500  0.00  0.00    +0.112 C 
ATOM      5  C   UNL     1      33.705 -22.164 -18.370  0.00  0.00    +0.189 C 
ATOM      6  C   UNL     1      35.528 -21.481 -19.397  0.00  0.00    +0.100 C 
ATOM      7  C   UNL     1      34.770 -23.201 -16.435  0.00  0.00    +0.126 C 
ATOM      8  C   UNL     1      32.381 -23.117 -16.794  0.00  0.00    +0.135 C 
ATOM      9  C   UNL     1      33.556 -23.534 -15.964  0.00  0.00    +0.064 C 
ENDROOT
BRANCH   8  10
ATOM     10  C   UNL     1      31.039 -23.482 -16.267  0.00  0.00    +0.030 C 
ATOM     11  C   UNL     1      29.924 -22.731 -16.632  0.00  0.00    +0.003 C 
ATOM     12  C   UNL     1      30.903 -24.572 -15.412  0.00  0.00    +0.003 C 
ATOM     13  C   UNL     1      28.665 -23.074 -16.138  0.00  0.00    +0.000 C 
ATOM     14  C   UNL     1      29.644 -24.915 -14.918  0.00  0.00    +0.000 C 
ATOM     15  C   UNL     1      28.525 -24.166 -15.280  0.00  0.00    +0.000 C 
ENDBRANCH   8  10
BRANCH   4  16
ATOM     16  C   UNL     1      33.279 -20.925 -20.613  0.00  0.00    +0.014 C 
ATOM     17  C   UNL     1      33.746 -19.686 -21.338  0.00  0.00    +0.001 C 
ATOM     18  C   UNL     1      32.578 -19.604 -20.400  0.00  0.00    +0.001 C 
ENDBRANCH   4  16
BRANCH   7  19
ATOM     19  N   UNL     1      35.942 -23.508 -15.803  0.00  0.00    -0.316 N 
ATOM     20  H   UNL     1      36.709 -22.902 -15.923  0.00  0.00    +0.148 HD
BRANCH  19  21
ATOM     21  C   UNL     1      36.113 -24.670 -14.973  0.00  0.00    +0.117 C 
BRANCH  21  23
ATOM     22  N   UNL     1      35.188 -24.232 -11.347  0.00  0.00    -0.243 NA
ATOM     23  C   UNL     1      36.218 -24.313 -13.519  0.00  0.00    +0.017 C 
ATOM     24  C   UNL     1      37.380 -23.756 -13.015  0.00  0.00    +0.001 C 
ATOM     25  C   UNL     1      35.159 -24.532 -12.665  0.00  0.00    +0.096 C 
ATOM     26  C   UNL     1      37.448 -23.433 -11.664  0.00  0.00    +0.020 C 
ATOM     27  C   UNL     1      36.335 -23.688 -10.880  0.00  0.00    +0.099 C 
ENDBRANCH  21  23
ENDBRANCH  19  21
ENDBRANCH   7  19
TORSDOF 5
ENDMDL
MODEL 5
REMARK VINA RESULT:     -10.4      1.816      6.429
REMARK  Name = 10042950
REMARK  5 active torsions:
REMARK  status: ('A' for Active; 'I' for Inactive)
REMARK    1  A    between atoms: C_4  and  C_16
REMARK    2  A    between atoms: C_7  and  N_19
REMARK    3  A    between atoms: C_8  and  C_10
REMARK    4  A    between atoms: N_19  and  C_21
REMARK    5  A    between atoms: C_21  and  C_23
REMARK                            x       y       z     vdW  Elec       q    Type
REMARK                         _______ _______ _______ _____ _____    ______ ____
ROOT
ATOM      1  N   UNL     1      33.224 -22.927 -16.880  0.00  0.00    -0.152 N 
ATOM      2  N   UNL     1      32.088 -22.690 -17.595  0.00  0.00    -0.174 NA
ATOM      3  N   UNL     1      33.892 -23.623 -14.674  0.00  0.00    -0.389 NA
ATOM      4  C   UNL     1      31.547 -23.347 -15.484  0.00  0.00    +0.112 C 
ATOM      5  C   UNL     1      32.920 -23.331 -15.579  0.00  0.00    +0.189 C 
ATOM      6  C   UNL     1      31.094 -22.947 -16.747  0.00  0.00    +0.100 C 
ATOM      7  C   UNL     1      34.553 -22.811 -17.316  0.00  0.00    +0.126 C 
ATOM      8  C   UNL     1      35.125 -23.502 -15.072  0.00  0.00    +0.135 C 
ATOM      9  C   UNL     1      35.542 -23.089 -16.449  0.00  0.00    +0.064 C 
ENDROOT
BRANCH   8  10
ATOM     10  C   UNL     1      36.221 -23.805 -14.113  0.00  0.00    +0.030 C 
ATOM     11  C   UNL     1      36.124 -23.378 -12.792  0.00  0.00    +0.003 C 
ATOM     12  C   UNL     1      37.340 -24.514 -14.543  0.00  0.00    +0.003 C 
ATOM     13  C   UNL     1      37.152 -23.662 -11.893  0.00  0.00    +0.000 C 
ATOM     14  C   UNL     1      38.369 -24.798 -13.644  0.00  0.00    +0.000 C 
ATOM     15  C   UNL     1      38.275 -24.373 -12.319  0.00  0.00    +0.000 C 
ENDBRANCH   8  10
BRANCH   4  16
ATOM     16  C   UNL     1      30.707 -23.717 -14.276  0.00  0.00    +0.014 C 
ATOM     17  C   UNL     1      31.031 -24.976 -13.506  0.00  0.00    +0.001 C 
ATOM     18  C   UNL     1      29.790 -24.915 -14.348  0.00  0.00    +0.001 C 
ENDBRANCH   4  16
BRANCH   7  19
ATOM     19  N   UNL     1      34.762 -22.423 -18.610  0.00  0.00    -0.316 N 
ATOM     20  H   UNL     1      34.083 -22.660 -19.283  0.00  0.00    +0.148 HD
BRANCH  19  21
ATOM     21  C   UNL     1      35.922 -21.689 -19.039  0.00  0.00    +0.117 C 
BRANCH  21  23
ATOM     22  N   UNL     1      36.291 -18.725 -21.336  0.00  0.00    -0.243 NA
ATOM     23  C   UNL     1      35.567 -20.578 -19.983  0.00  0.00    +0.017 C 
ATOM     24  C   UNL     1      34.253 -20.374 -20.365  0.00  0.00    +0.001 C 
ATOM     25  C   UNL     1      36.543 -19.744 -20.484  0.00  0.00    +0.096 C 
ATOM     26  C   UNL     1      33.953 -19.336 -21.241  0.00  0.00    +0.020 C 
ATOM     27  C   UNL     1      34.998 -18.547 -21.692  0.00  0.00    +0.099 C 
ENDBRANCH  21  23
ENDBRANCH  19  21
ENDBRANCH   7  19
TORSDOF 5
ENDMDL
MODEL 6
REMARK VINA RESULT:     -10.3      1.359      7.327
REMARK  Name = 10042950
REMARK  5 active torsions:
REMARK  status: ('A' for Active; 'I' for Inactive)
REMARK    1  A    between atoms: C_4  and  C_16
REMARK    2  A    between atoms: C_7  and  N_19
REMARK    3  A    between atoms: C_8  and  C_10
REMARK    4  A    between atoms: N_19  and  C_21
REMARK    5  A    between atoms: C_21  and  C_23
REMARK                            x       y       z     vdW  Elec       q    Type
REMARK                         _______ _______ _______ _____ _____    ______ ____
ROOT
ATOM      1  N   UNL     1      33.019 -23.121 -16.462  0.00  0.00    -0.152 N 
ATOM      2  N   UNL     1      32.081 -22.596 -17.300  0.00  0.00    -0.174 NA
ATOM      3  N   UNL     1      35.386 -23.563 -16.405  0.00  0.00    -0.389 NA
ATOM      4  C   UNL     1      34.127 -22.524 -18.294  0.00  0.00    +0.112 C 
ATOM      5  C   UNL     1      34.286 -23.090 -17.049  0.00  0.00    +0.189 C 
ATOM      6  C   UNL     1      32.759 -22.243 -18.390  0.00  0.00    +0.100 C 
ATOM      7  C   UNL     1      32.827 -23.637 -15.171  0.00  0.00    +0.126 C 
ATOM      8  C   UNL     1      35.206 -24.055 -15.214  0.00  0.00    +0.135 C 
ATOM      9  C   UNL     1      33.890 -24.115 -14.503  0.00  0.00    +0.064 C 
ENDROOT
BRANCH   8  10
ATOM     10  C   UNL     1      36.381 -24.589 -14.474  0.00  0.00    +0.030 C 
ATOM     11  C   UNL     1      36.207 -25.166 -13.219  0.00  0.00    +0.003 C 
ATOM     12  C   UNL     1      37.651 -24.510 -15.041  0.00  0.00    +0.003 C 
ATOM     13  C   UNL     1      37.309 -25.666 -12.526  0.00  0.00    +0.000 C 
ATOM     14  C   UNL     1      38.753 -25.010 -14.348  0.00  0.00    +0.000 C 
ATOM     15  C   UNL     1      38.583 -25.589 -13.090  0.00  0.00    +0.000 C 
ENDBRANCH   8  10
BRANCH   4  16
ATOM     16  C   UNL     1      35.199 -22.263 -19.335  0.00  0.00    +0.014 C 
ATOM     17  C   UNL     1      36.378 -21.388 -18.981  0.00  0.00    +0.001 C 
ATOM     18  C   UNL     1      35.333 -20.881 -19.931  0.00  0.00    +0.001 C 
ENDBRANCH   4  16
BRANCH   7  19
ATOM     19  N   UNL     1      31.557 -23.616 -14.666  0.00  0.00    -0.316 N 
ATOM     20  H   UNL     1      31.330 -22.925 -14.002  0.00  0.00    +0.148 HD
BRANCH  19  21
ATOM     21  C   UNL     1      30.535 -24.553 -15.054  0.00  0.00    +0.117 C 
BRANCH  21  23
ATOM     22  N   UNL     1      27.712 -23.926 -17.469  0.00  0.00    -0.243 NA
ATOM     23  C   UNL     1      29.386 -23.877 -15.742  0.00  0.00    +0.017 C 
ATOM     24  C   UNL     1      28.945 -22.635 -15.318  0.00  0.00    +0.001 C 
ATOM     25  C   UNL     1      28.752 -24.481 -16.806  0.00  0.00    +0.096 C 
ATOM     26  C   UNL     1      27.878 -22.033 -15.975  0.00  0.00    +0.020 C 
ATOM     27  C   UNL     1      27.302 -22.713 -17.035  0.00  0.00    +0.099 C 
ENDBRANCH  21  23
ENDBRANCH  19  21
ENDBRANCH   7  19
TORSDOF 5
ENDMDL
MODEL 7
REMARK VINA RESULT:     -10.1      7.017     10.917
REMARK  Name = 10042950
REMARK  5 active torsions:
REMARK  status: ('A' for Active; 'I' for Inactive)
REMARK    1  A    between atoms: C_4  and  C_16
REMARK    2  A    between atoms: C_7  and  N_19
REMARK    3  A    between atoms: C_8  and  C_10
REMARK    4  A    between atoms: N_19  and  C_21
REMARK    5  A    between atoms: C_21  and  C_23
REMARK                            x       y       z     vdW  Elec       q    Type
REMARK                         _______ _______ _______ _____ _____    ______ ____
ROOT
ATOM      1  N   UNL     1      34.108 -15.858 -23.341  0.00  0.00    -0.152 N 
ATOM      2  N   UNL     1      34.622 -16.813 -24.167  0.00  0.00    -0.174 NA
ATOM      3  N   UNL     1      32.821 -13.826 -23.463  0.00  0.00    -0.389 NA
ATOM      4  C   UNL     1      33.510 -15.251 -25.394  0.00  0.00    +0.112 C 
ATOM      5  C   UNL     1      33.421 -14.885 -24.069  0.00  0.00    +0.189 C 
ATOM      6  C   UNL     1      34.255 -16.436 -25.390  0.00  0.00    +0.100 C 
ATOM      7  C   UNL     1      34.205 -15.789 -21.942  0.00  0.00    +0.126 C 
ATOM      8  C   UNL     1      32.922 -13.753 -22.167  0.00  0.00    +0.135 C 
ATOM      9  C   UNL     1      33.626 -14.756 -21.307  0.00  0.00    +0.064 C 
ENDROOT
BRANCH   8  10
ATOM     10  C   UNL     1      32.287 -12.608 -21.462  0.00  0.00    +0.030 C 
ATOM     11  C   UNL     1      32.138 -12.643 -20.078  0.00  0.00    +0.003 C 
ATOM     12  C   UNL     1      31.842 -11.507 -22.189  0.00  0.00    +0.003 C 
ATOM     13  C   UNL     1      31.542 -11.568 -19.417  0.00  0.00    +0.000 C 
ATOM     14  C   UNL     1      31.246 -10.433 -21.529  0.00  0.00    +0.000 C 
ATOM     15  C   UNL     1      31.096 -10.463 -20.142  0.00  0.00    +0.000 C 
ENDBRANCH   8  10
BRANCH   4  16
ATOM     16  C   UNL     1      32.928 -14.528 -26.594  0.00  0.00    +0.014 C 
ATOM     17  C   UNL     1      33.849 -13.766 -27.518  0.00  0.00    +0.001 C 
ATOM     18  C   UNL     1      32.913 -13.018 -26.614  0.00  0.00    +0.001 C 
ENDBRANCH   4  16
BRANCH   7  19
ATOM     19  N   UNL     1      34.884 -16.790 -21.307  0.00  0.00    -0.316 N 
ATOM     20  H   UNL     1      35.173 -16.641 -20.377  0.00  0.00    +0.148 HD
BRANCH  19  21
ATOM     21  C   UNL     1      35.200 -18.050 -21.927  0.00  0.00    +0.117 C 
BRANCH  21  23
ATOM     22  N   UNL     1      35.255 -21.173 -19.819  0.00  0.00    -0.243 NA
ATOM     23  C   UNL     1      34.721 -19.214 -21.110  0.00  0.00    +0.017 C 
ATOM     24  C   UNL     1      33.369 -19.411 -20.893  0.00  0.00    +0.001 C 
ATOM     25  C   UNL     1      35.620 -20.104 -20.563  0.00  0.00    +0.096 C 
ATOM     26  C   UNL     1      32.954 -20.499 -20.132  0.00  0.00    +0.020 C 
ATOM     27  C   UNL     1      33.928 -21.342 -19.624  0.00  0.00    +0.099 C 
ENDBRANCH  21  23
ENDBRANCH  19  21
ENDBRANCH   7  19
TORSDOF 5
ENDMDL
MODEL 8
REMARK VINA RESULT:      -9.8      1.451      4.992
REMARK  Name = 10042950
REMARK  5 active torsions:
REMARK  status: ('A' for Active; 'I' for Inactive)
REMARK    1  A    between atoms: C_4  and  C_16
REMARK    2  A    between atoms: C_7  and  N_19
REMARK    3  A    between atoms: C_8  and  C_10
REMARK    4  A    between atoms: N_19  and  C_21
REMARK    5  A    between atoms: C_21  and  C_23
REMARK                            x       y       z     vdW  Elec       q    Type
REMARK                         _______ _______ _______ _____ _____    ______ ____
ROOT
ATOM      1  N   UNL     1      35.265 -22.950 -15.265  0.00  0.00    -0.152 N 
ATOM      2  N   UNL     1      36.579 -22.618 -15.412  0.00  0.00    -0.174 NA
ATOM      3  N   UNL     1      33.247 -23.077 -16.573  0.00  0.00    -0.389 NA
ATOM      4  C   UNL     1      35.495 -22.371 -17.398  0.00  0.00    +0.112 C 
ATOM      5  C   UNL     1      34.575 -22.806 -16.470  0.00  0.00    +0.189 C 
ATOM      6  C   UNL     1      36.700 -22.276 -16.692  0.00  0.00    +0.100 C 
ATOM      7  C   UNL     1      34.615 -23.390 -14.101  0.00  0.00    +0.126 C 
ATOM      8  C   UNL     1      32.640 -23.472 -15.492  0.00  0.00    +0.135 C 
ATOM      9  C   UNL     1      33.301 -23.666 -14.162  0.00  0.00    +0.064 C 
ENDROOT
BRANCH   8  10
ATOM     10  C   UNL     1      31.185 -23.773 -15.556  0.00  0.00    +0.030 C 
ATOM     11  C   UNL     1      30.658 -24.812 -14.792  0.00  0.00    +0.003 C 
ATOM     12  C   UNL     1      30.356 -23.016 -16.380  0.00  0.00    +0.003 C 
ATOM     13  C   UNL     1      29.293 -25.094 -14.853  0.00  0.00    +0.000 C 
ATOM     14  C   UNL     1      28.992 -23.298 -16.440  0.00  0.00    +0.000 C 
ATOM     15  C   UNL     1      28.459 -24.337 -15.677  0.00  0.00    +0.000 C 
ENDBRANCH   8  10
BRANCH   4  16
ATOM     16  C   UNL     1      35.255 -22.063 -18.864  0.00  0.00    +0.014 C 
ATOM     17  C   UNL     1      33.911 -21.528 -19.298  0.00  0.00    +0.001 C 
ATOM     18  C   UNL     1      34.307 -22.930 -19.658  0.00  0.00    +0.001 C 
ENDBRANCH   4  16
BRANCH   7  19
ATOM     19  N   UNL     1      35.367 -23.517 -12.967  0.00  0.00    -0.316 N 
ATOM     20  H   UNL     1      35.575 -22.705 -12.451  0.00  0.00    +0.148 HD
BRANCH  19  21
ATOM     21  C   UNL     1      35.874 -24.777 -12.491  0.00  0.00    +0.117 C 
BRANCH  21  23
ATOM     22  N   UNL     1      39.522 -24.896 -13.427  0.00  0.00    -0.243 NA
ATOM     23  C   UNL     1      37.144 -25.171 -13.186  0.00  0.00    +0.017 C 
ATOM     24  C   UNL     1      37.130 -26.127 -14.187  0.00  0.00    +0.001 C 
ATOM     25  C   UNL     1      38.343 -24.588 -12.840  0.00  0.00    +0.096 C 
ATOM     26  C   UNL     1      38.322 -26.472 -14.814  0.00  0.00    +0.020 C 
ATOM     27  C   UNL     1      39.479 -25.833 -14.402  0.00  0.00    +0.099 C 
ENDBRANCH  21  23
ENDBRANCH  19  21
ENDBRANCH   7  19
TORSDOF 5
ENDMDL
MODEL 9
REMARK VINA RESULT:      -9.7     10.430     13.964
REMARK  Name = 10042950
REMARK  5 active torsions:
REMARK  status: ('A' for Active; 'I' for Inactive)
REMARK    1  A    between atoms: C_4  and  C_16
REMARK    2  A    between atoms: C_7  and  N_19
REMARK    3  A    between atoms: C_8  and  C_10
REMARK    4  A    between atoms: N_19  and  C_21
REMARK    5  A    between atoms: C_21  and  C_23
REMARK                            x       y       z     vdW  Elec       q    Type
REMARK                         _______ _______ _______ _____ _____    ______ ____
ROOT
ATOM      1  N   UNL     1      32.779 -12.162 -22.626  0.00  0.00    -0.152 N 
ATOM      2  N   UNL     1      32.558 -13.343 -21.980  0.00  0.00    -0.174 NA
ATOM      3  N   UNL     1      32.278  -9.819 -22.388  0.00  0.00    -0.389 NA
ATOM      4  C   UNL     1      31.591 -11.639 -20.822  0.00  0.00    +0.112 C 
ATOM      5  C   UNL     1      32.194 -11.099 -21.936  0.00  0.00    +0.189 C 
ATOM      6  C   UNL     1      31.848 -13.012 -20.904  0.00  0.00    +0.100 C 
ATOM      7  C   UNL     1      33.489 -11.955 -23.819  0.00  0.00    +0.126 C 
ATOM      8  C   UNL     1      32.924  -9.627 -23.501  0.00  0.00    +0.135 C 
ATOM      9  C   UNL     1      33.593 -10.704 -24.298  0.00  0.00    +0.064 C 
ENDROOT
BRANCH   8  10
ATOM     10  C   UNL     1      33.035  -8.244 -24.036  0.00  0.00    +0.030 C 
ATOM     11  C   UNL     1      31.903  -7.438 -24.116  0.00  0.00    +0.003 C 
ATOM     12  C   UNL     1      34.273  -7.761 -24.456  0.00  0.00    +0.003 C 
ATOM     13  C   UNL     1      32.008  -6.141 -24.618  0.00  0.00    +0.000 C 
ATOM     14  C   UNL     1      34.378  -6.465 -24.958  0.00  0.00    +0.000 C 
ATOM     15  C   UNL     1      33.246  -5.654 -25.039  0.00  0.00    +0.000 C 
ENDBRANCH   8  10
BRANCH   4  16
ATOM     16  C   UNL     1      30.817 -10.905 -19.743  0.00  0.00    +0.014 C 
ATOM     17  C   UNL     1      31.401  -9.652 -19.134  0.00  0.00    +0.001 C 
ATOM     18  C   UNL     1      31.335 -10.913 -18.324  0.00  0.00    +0.001 C 
ENDBRANCH   4  16
BRANCH   7  19
ATOM     19  N   UNL     1      34.043 -13.050 -24.422  0.00  0.00    -0.316 N 
ATOM     20  H   UNL     1      35.024 -13.098 -24.492  0.00  0.00    +0.148 HD
BRANCH  19  21
ATOM     21  C   UNL     1      33.265 -14.134 -24.960  0.00  0.00    +0.117 C 
BRANCH  21  23
ATOM     22  N   UNL     1      34.372 -17.705 -25.427  0.00  0.00    -0.243 NA
ATOM     23  C   UNL     1      33.894 -15.468 -24.683  0.00  0.00    +0.017 C 
ATOM     24  C   UNL     1      34.550 -15.701 -23.487  0.00  0.00    +0.001 C 
ATOM     25  C   UNL     1      33.829 -16.482 -25.615  0.00  0.00    +0.096 C 
ATOM     26  C   UNL     1      35.122 -16.947 -23.257  0.00  0.00    +0.020 C 
ATOM     27  C   UNL     1      35.006 -17.906 -24.249  0.00  0.00    +0.099 C 
ENDBRANCH  21  23
ENDBRANCH  19  21
ENDBRANCH   7  19
TORSDOF 5
ENDMDL
