MODEL 1
REMARK VINA RESULT:     -11.1      0.000      0.000
REMARK  Name = 67501411
REMARK  6 active torsions:
REMARK  status: ('A' for Active; 'I' for Inactive)
REMARK    1  A    between atoms: N_1  and  C_10
REMARK    2  A    between atoms: C_5  and  C_34
REMARK    3  A    between atoms: C_7  and  N_23
REMARK    4  A    between atoms: C_11  and  C_21
REMARK    5  A    between atoms: C_14  and  C_18
REMARK    6  A    between atoms: C_27  and  C_30
REMARK                            x       y       z     vdW  Elec       q    Type
REMARK                         _______ _______ _______ _____ _____    ______ ____
ROOT
ATOM      1  N   UNL     1      33.621 -12.547 -23.723  0.00  0.00    -0.213 N 
ATOM      2  N   UNL     1      34.325 -11.638 -24.422  0.00  0.00    -0.168 NA
ATOM      3  N   UNL     1      31.844 -12.662 -22.087  0.00  0.00    -0.225 NA
ATOM      4  C   UNL     1      32.784 -10.624 -23.068  0.00  0.00    +0.064 A 
ATOM      5  C   UNL     1      33.812 -10.470 -24.020  0.00  0.00    +0.083 A 
ATOM      6  C   UNL     1      32.686 -11.996 -22.898  0.00  0.00    +0.166 A 
ATOM      7  C   UNL     1      31.923  -9.807 -22.327  0.00  0.00    +0.055 C 
ATOM      8  C   UNL     1      31.025 -10.440 -21.466  0.00  0.00    +0.035 C 
ATOM      9  C   UNL     1      31.032 -11.829 -21.389  0.00  0.00    +0.102 C 
ENDROOT
BRANCH   1  10
ATOM     10  C   UNL     1      33.881 -13.906 -23.886  0.00  0.00    +0.080 C 
ATOM     11  C   UNL     1      33.442 -14.592 -25.017  0.00  0.00    -0.004 C 
ATOM     12  C   UNL     1      34.594 -14.582 -22.894  0.00  0.00    +0.019 C 
ATOM     13  C   UNL     1      33.714 -15.952 -25.160  0.00  0.00    +0.002 C 
ATOM     14  C   UNL     1      34.426 -16.628 -24.168  0.00  0.00    +0.053 C 
ATOM     15  C   UNL     1      34.866 -15.943 -23.035  0.00  0.00    +0.006 C 
BRANCH  14  18
ATOM     16  O   UNL     1      34.034 -18.769 -25.068  0.00  0.00    -0.270 OA
ATOM     17  N   UNL     1      35.779 -18.571 -23.596  0.00  0.00    -0.325 N 
ATOM     18  C   UNL     1      34.710 -18.046 -24.315  0.00  0.00    +0.243 C 
ATOM     19  H   UNL     1      36.002 -19.527 -23.670  0.00  0.00    +0.145 HD
ATOM     20  H   UNL     1      36.315 -17.986 -23.012  0.00  0.00    +0.145 HD
ENDBRANCH  14  18
BRANCH  11  21
ATOM     21  C   UNL     1      32.676 -13.897 -26.097  0.00  0.00    +0.028 C 
ATOM     22  C   UNL     1      33.566 -13.498 -27.271  0.00  0.00    +0.005 C 
ENDBRANCH  11  21
ENDBRANCH   1  10
BRANCH   7  23
ATOM     23  N   UNL     1      31.941  -8.428 -22.424  0.00  0.00    -0.282 N 
ATOM     24  N   UNL     1      32.245  -6.306 -21.848  0.00  0.00    -0.251 NA
ATOM     25  C   UNL     1      31.558  -7.689 -23.507  0.00  0.00    +0.138 C 
ATOM     26  C   UNL     1      32.345  -7.555 -21.453  0.00  0.00    +0.220 C 
ATOM     27  C   UNL     1      31.754  -6.382 -23.128  0.00  0.00    +0.079 C 
BRANCH  27  30
ATOM     28  N   UNL     1      31.423  -3.628 -25.427  0.00  0.00    -0.208 N 
ATOM     29  N   UNL     1      30.731  -3.097 -24.405  0.00  0.00    -0.176 NA
ATOM     30  C   UNL     1      31.511  -5.183 -23.896  0.00  0.00    +0.052 C 
ATOM     31  C   UNL     1      31.911  -4.876 -25.173  0.00  0.00    +0.087 C 
ATOM     32  C   UNL     1      30.788  -4.052 -23.472  0.00  0.00    +0.120 C 
ATOM     33  C   UNL     1      31.588  -2.875 -26.647  0.00  0.00    +0.140 C 
ENDBRANCH  27  30
ENDBRANCH   7  23
BRANCH   5  34
ATOM     34  C   UNL     1      34.346  -9.218 -24.584  0.00  0.00    +0.042 C 
ATOM     35  C   UNL     1      34.996  -8.302 -23.520  0.00  0.00    +0.006 C 
ATOM     36  C   UNL     1      35.354  -9.452 -25.735  0.00  0.00    +0.006 C 
ENDBRANCH   5  34
TORSDOF 6
ENDMDL
MODEL 2
REMARK VINA RESULT:     -10.9      3.258      9.733
REMARK  Name = 67501411
REMARK  6 active torsions:
REMARK  status: ('A' for Active; 'I' for Inactive)
REMARK    1  A    between atoms: N_1  and  C_10
REMARK    2  A    between atoms: C_5  and  C_34
REMARK    3  A    between atoms: C_7  and  N_23
REMARK    4  A    between atoms: C_11  and  C_21
REMARK    5  A    between atoms: C_14  and  C_18
REMARK    6  A    between atoms: C_27  and  C_30
REMARK                            x       y       z     vdW  Elec       q    Type
REMARK                         _______ _______ _______ _____ _____    ______ ____
ROOT
ATOM      1  N   UNL     1      32.500  -8.923 -23.524  0.00  0.00    -0.213 N 
ATOM      2  N   UNL     1      33.374  -9.311 -24.472  0.00  0.00    -0.168 NA
ATOM      3  N   UNL     1      31.159  -9.856 -21.741  0.00  0.00    -0.225 NA
ATOM      4  C   UNL     1      32.651 -11.096 -23.235  0.00  0.00    +0.064 A 
ATOM      5  C   UNL     1      33.463 -10.633 -24.291  0.00  0.00    +0.083 A 
ATOM      6  C   UNL     1      32.036  -9.950 -22.756  0.00  0.00    +0.166 A 
ATOM      7  C   UNL     1      32.347 -12.313 -22.614  0.00  0.00    +0.055 C 
ATOM      8  C   UNL     1      31.441 -12.279 -21.553  0.00  0.00    +0.035 C 
ATOM      9  C   UNL     1      30.895 -11.058 -21.173  0.00  0.00    +0.102 C 
ENDROOT
BRANCH   1  10
ATOM     10  C   UNL     1      32.154  -7.579 -23.402  0.00  0.00    +0.080 C 
ATOM     11  C   UNL     1      32.548  -6.834 -22.291  0.00  0.00    -0.004 C 
ATOM     12  C   UNL     1      31.402  -6.979 -24.413  0.00  0.00    +0.019 C 
ATOM     13  C   UNL     1      32.191  -5.489 -22.190  0.00  0.00    +0.002 C 
ATOM     14  C   UNL     1      31.439  -4.889 -23.201  0.00  0.00    +0.053 C 
ATOM     15  C   UNL     1      31.044  -5.635 -24.312  0.00  0.00    +0.006 C 
BRANCH  14  18
ATOM     16  O   UNL     1      31.556  -2.629 -23.850  0.00  0.00    -0.270 OA
ATOM     17  N   UNL     1      30.125  -3.138 -22.133  0.00  0.00    -0.325 N 
ATOM     18  C   UNL     1      31.066  -3.488 -23.096  0.00  0.00    +0.243 C 
ATOM     19  H   UNL     1      29.848  -2.198 -22.034  0.00  0.00    +0.145 HD
ATOM     20  H   UNL     1      29.735  -3.830 -21.551  0.00  0.00    +0.145 HD
ENDBRANCH  14  18
BRANCH  11  21
ATOM     21  C   UNL     1      33.354  -7.447 -21.192  0.00  0.00    +0.028 C 
ATOM     22  C   UNL     1      32.644  -7.371 -19.843  0.00  0.00    +0.005 C 
ENDBRANCH  11  21
ENDBRANCH   1  10
BRANCH   7  23
ATOM     23  N   UNL     1      32.907 -13.511 -23.015  0.00  0.00    -0.282 N 
ATOM     24  N   UNL     1      33.450 -15.217 -24.328  0.00  0.00    -0.251 NA
ATOM     25  C   UNL     1      33.660 -14.351 -22.244  0.00  0.00    +0.138 C 
ATOM     26  C   UNL     1      32.807 -14.073 -24.257  0.00  0.00    +0.220 C 
ATOM     27  C   UNL     1      33.983 -15.397 -23.076  0.00  0.00    +0.079 C 
BRANCH  27  30
ATOM     28  N   UNL     1      35.883 -18.184 -21.810  0.00  0.00    -0.208 N 
ATOM     29  N   UNL     1      36.000 -18.463 -23.120  0.00  0.00    -0.176 NA
ATOM     30  C   UNL     1      34.770 -16.570 -22.771  0.00  0.00    +0.052 C 
ATOM     31  C   UNL     1      35.156 -17.061 -21.548  0.00  0.00    +0.087 C 
ATOM     32  C   UNL     1      35.319 -17.472 -23.702  0.00  0.00    +0.120 C 
ATOM     33  C   UNL     1      36.503 -19.050 -20.837  0.00  0.00    +0.140 C 
ENDBRANCH  27  30
ENDBRANCH   7  23
BRANCH   5  34
ATOM     34  C   UNL     1      34.349 -11.420 -25.166  0.00  0.00    +0.042 C 
ATOM     35  C   UNL     1      33.598 -12.105 -26.333  0.00  0.00    +0.006 C 
ATOM     36  C   UNL     1      35.527 -10.595 -25.736  0.00  0.00    +0.006 C 
ENDBRANCH   5  34
TORSDOF 6
ENDMDL
MODEL 3
REMARK VINA RESULT:     -10.6      0.583      1.725
REMARK  Name = 67501411
REMARK  6 active torsions:
REMARK  status: ('A' for Active; 'I' for Inactive)
REMARK    1  A    between atoms: N_1  and  C_10
REMARK    2  A    between atoms: C_5  and  C_34
REMARK    3  A    between atoms: C_7  and  N_23
REMARK    4  A    between atoms: C_11  and  C_21
REMARK    5  A    between atoms: C_14  and  C_18
REMARK    6  A    between atoms: C_27  and  C_30
REMARK                            x       y       z     vdW  Elec       q    Type
REMARK                         _______ _______ _______ _____ _____    ______ ____
ROOT
ATOM      1  N   UNL     1      33.606 -12.811 -23.801  0.00  0.00    -0.213 N 
ATOM      2  N   UNL     1      34.294 -11.913 -24.529  0.00  0.00    -0.168 NA
ATOM      3  N   UNL     1      31.905 -12.898 -22.083  0.00  0.00    -0.225 NA
ATOM      4  C   UNL     1      32.837 -10.875 -23.102  0.00  0.00    +0.064 A 
ATOM      5  C   UNL     1      33.822 -10.737 -24.101  0.00  0.00    +0.083 A 
ATOM      6  C   UNL     1      32.721 -12.246 -22.931  0.00  0.00    +0.166 A 
ATOM      7  C   UNL     1      32.028 -10.045 -22.318  0.00  0.00    +0.055 C 
ATOM      8  C   UNL     1      31.159 -10.665 -21.418  0.00  0.00    +0.035 C 
ATOM      9  C   UNL     1      31.143 -12.054 -21.346  0.00  0.00    +0.102 C 
ENDROOT
BRANCH   1  10
ATOM     10  C   UNL     1      33.833 -14.175 -23.979  0.00  0.00    +0.080 C 
ATOM     11  C   UNL     1      34.387 -14.949 -22.961  0.00  0.00    -0.004 C 
ATOM     12  C   UNL     1      33.496 -14.763 -25.199  0.00  0.00    +0.019 C 
ATOM     13  C   UNL     1      34.605 -16.312 -23.161  0.00  0.00    +0.002 C 
ATOM     14  C   UNL     1      34.269 -16.901 -24.381  0.00  0.00    +0.053 C 
ATOM     15  C   UNL     1      33.714 -16.126 -25.400  0.00  0.00    +0.006 C 
BRANCH  14  18
ATOM     16  O   UNL     1      34.057 -18.907 -25.597  0.00  0.00    -0.270 OA
ATOM     17  N   UNL     1      35.238 -19.007 -23.634  0.00  0.00    -0.325 N 
ATOM     18  C   UNL     1      34.496 -18.321 -24.591  0.00  0.00    +0.243 C 
ATOM     19  H   UNL     1      35.412 -19.970 -23.743  0.00  0.00    +0.145 HD
ATOM     20  H   UNL     1      35.591 -18.530 -22.848  0.00  0.00    +0.145 HD
ENDBRANCH  14  18
BRANCH  11  21
ATOM     21  C   UNL     1      34.759 -14.349 -21.644  0.00  0.00    +0.028 C 
ATOM     22  C   UNL     1      34.501 -15.302 -20.481  0.00  0.00    +0.005 C 
ENDBRANCH  11  21
ENDBRANCH   1  10
BRANCH   7  23
ATOM     23  N   UNL     1      32.067  -8.667 -22.412  0.00  0.00    -0.282 N 
ATOM     24  N   UNL     1      32.446  -6.553 -21.849  0.00  0.00    -0.251 NA
ATOM     25  C   UNL     1      31.637  -7.915 -23.469  0.00  0.00    +0.138 C 
ATOM     26  C   UNL     1      32.545  -7.806 -21.464  0.00  0.00    +0.220 C 
ATOM     27  C   UNL     1      31.881  -6.614 -23.098  0.00  0.00    +0.079 C 
BRANCH  27  30
ATOM     28  N   UNL     1      31.501  -3.831 -25.354  0.00  0.00    -0.208 N 
ATOM     29  N   UNL     1      30.805  -3.325 -24.321  0.00  0.00    -0.176 NA
ATOM     30  C   UNL     1      31.616  -5.407 -23.847  0.00  0.00    +0.052 C 
ATOM     31  C   UNL     1      32.007  -5.075 -25.121  0.00  0.00    +0.087 C 
ATOM     32  C   UNL     1      30.880  -4.293 -23.403  0.00  0.00    +0.120 C 
ATOM     33  C   UNL     1      31.649  -3.057 -26.563  0.00  0.00    +0.140 C 
ENDBRANCH  27  30
ENDBRANCH   7  23
BRANCH   5  34
ATOM     34  C   UNL     1      34.353  -9.493 -24.685  0.00  0.00    +0.042 C 
ATOM     35  C   UNL     1      35.040  -8.578 -23.644  0.00  0.00    +0.006 C 
ATOM     36  C   UNL     1      35.328  -9.743 -25.861  0.00  0.00    +0.006 C 
ENDBRANCH   5  34
TORSDOF 6
ENDMDL
MODEL 4
REMARK VINA RESULT:     -10.3      3.566      6.925
REMARK  Name = 67501411
REMARK  6 active torsions:
REMARK  status: ('A' for Active; 'I' for Inactive)
REMARK    1  A    between atoms: N_1  and  C_10
REMARK    2  A    between atoms: C_5  and  C_34
REMARK    3  A    between atoms: C_7  and  N_23
REMARK    4  A    between atoms: C_11  and  C_21
REMARK    5  A    between atoms: C_14  and  C_18
REMARK    6  A    between atoms: C_27  and  C_30
REMARK                            x       y       z     vdW  Elec       q    Type
REMARK                         _______ _______ _______ _____ _____    ______ ____
ROOT
ATOM      1  N   UNL     1      33.893 -17.900 -21.612  0.00  0.00    -0.213 N 
ATOM      2  N   UNL     1      33.696 -16.770 -20.908  0.00  0.00    -0.168 NA
ATOM      3  N   UNL     1      34.213 -18.636 -23.894  0.00  0.00    -0.225 NA
ATOM      4  C   UNL     1      33.884 -16.328 -23.146  0.00  0.00    +0.064 A 
ATOM      5  C   UNL     1      33.692 -15.816 -21.846  0.00  0.00    +0.083 A 
ATOM      6  C   UNL     1      34.012 -17.695 -22.954  0.00  0.00    +0.166 A 
ATOM      7  C   UNL     1      33.969 -15.836 -24.454  0.00  0.00    +0.055 C 
ATOM      8  C   UNL     1      34.177 -16.767 -25.473  0.00  0.00    +0.035 C 
ATOM      9  C   UNL     1      34.287 -18.114 -25.142  0.00  0.00    +0.102 C 
ENDROOT
BRANCH   1  10
ATOM     10  C   UNL     1      33.959 -19.129 -20.956  0.00  0.00    +0.080 C 
ATOM     11  C   UNL     1      35.187 -19.717 -20.656  0.00  0.00    -0.004 C 
ATOM     12  C   UNL     1      32.772 -19.770 -20.599  0.00  0.00    +0.019 C 
ATOM     13  C   UNL     1      35.230 -20.946 -19.998  0.00  0.00    +0.002 C 
ATOM     14  C   UNL     1      34.043 -21.588 -19.641  0.00  0.00    +0.053 C 
ATOM     15  C   UNL     1      32.814 -20.999 -19.941  0.00  0.00    +0.006 C 
BRANCH  14  18
ATOM     16  O   UNL     1      33.979 -23.941 -19.578  0.00  0.00    -0.270 OA
ATOM     17  N   UNL     1      34.270 -22.861 -17.576  0.00  0.00    -0.325 N 
ATOM     18  C   UNL     1      34.086 -22.869 -18.956  0.00  0.00    +0.243 C 
ATOM     19  H   UNL     1      34.304 -23.710 -17.079  0.00  0.00    +0.145 HD
ATOM     20  H   UNL     1      34.366 -22.006 -17.097  0.00  0.00    +0.145 HD
ENDBRANCH  14  18
BRANCH  11  21
ATOM     21  C   UNL     1      36.476 -19.056 -21.025  0.00  0.00    +0.028 C 
ATOM     22  C   UNL     1      37.687 -19.805 -20.479  0.00  0.00    +0.005 C 
ENDBRANCH  11  21
ENDBRANCH   1  10
BRANCH   7  23
ATOM     23  N   UNL     1      33.855 -14.492 -24.750  0.00  0.00    -0.282 N 
ATOM     24  N   UNL     1      33.419 -12.645 -25.903  0.00  0.00    -0.251 NA
ATOM     25  C   UNL     1      34.161 -13.451 -23.919  0.00  0.00    +0.138 C 
ATOM     26  C   UNL     1      33.414 -13.959 -25.930  0.00  0.00    +0.220 C 
ATOM     27  C   UNL     1      33.884 -12.321 -24.654  0.00  0.00    +0.079 C 
BRANCH  27  30
ATOM     28  N   UNL     1      33.780  -8.941 -23.413  0.00  0.00    -0.208 N 
ATOM     29  N   UNL     1      34.952  -8.860 -24.066  0.00  0.00    -0.176 NA
ATOM     30  C   UNL     1      34.028 -10.940 -24.255  0.00  0.00    +0.052 C 
ATOM     31  C   UNL     1      33.187 -10.166 -23.495  0.00  0.00    +0.087 C 
ATOM     32  C   UNL     1      35.097 -10.085 -24.579  0.00  0.00    +0.120 C 
ATOM     33  C   UNL     1      33.270  -7.786 -22.714  0.00  0.00    +0.140 C 
ENDBRANCH  27  30
ENDBRANCH   7  23
BRANCH   5  34
ATOM     34  C   UNL     1      33.498 -14.413 -21.442  0.00  0.00    +0.042 C 
ATOM     35  C   UNL     1      32.137 -14.163 -20.749  0.00  0.00    +0.006 C 
ATOM     36  C   UNL     1      34.633 -13.879 -20.537  0.00  0.00    +0.006 C 
ENDBRANCH   5  34
TORSDOF 6
ENDMDL
MODEL 5
REMARK VINA RESULT:      -9.9      0.897      2.526
REMARK  Name = 67501411
REMARK  6 active torsions:
REMARK  status: ('A' for Active; 'I' for Inactive)
REMARK    1  A    between atoms: N_1  and  C_10
REMARK    2  A    between atoms: C_5  and  C_34
REMARK    3  A    between atoms: C_7  and  N_23
REMARK    4  A    between atoms: C_11  and  C_21
REMARK    5  A    between atoms: C_14  and  C_18
REMARK    6  A    between atoms: C_27  and  C_30
REMARK                            x       y       z     vdW  Elec       q    Type
REMARK                         _______ _______ _______ _____ _____    ______ ____
ROOT
ATOM      1  N   UNL     1      33.423 -12.437 -23.619  0.00  0.00    -0.213 N 
ATOM      2  N   UNL     1      32.418 -12.141 -22.775  0.00  0.00    -0.168 NA
ATOM      3  N   UNL     1      35.060 -11.335 -25.018  0.00  0.00    -0.225 NA
ATOM      4  C   UNL     1      33.380 -10.241 -23.612  0.00  0.00    +0.064 A 
ATOM      5  C   UNL     1      32.396 -10.803 -22.773  0.00  0.00    +0.083 A 
ATOM      6  C   UNL     1      34.032 -11.339 -24.150  0.00  0.00    +0.166 A 
ATOM      7  C   UNL     1      33.813  -8.966 -23.995  0.00  0.00    +0.055 C 
ATOM      8  C   UNL     1      34.877  -8.898 -24.895  0.00  0.00    +0.035 C 
ATOM      9  C   UNL     1      35.443 -10.081 -25.360  0.00  0.00    +0.102 C 
ENDROOT
BRANCH   1  10
ATOM     10  C   UNL     1      33.750 -13.768 -23.876  0.00  0.00    +0.080 C 
ATOM     11  C   UNL     1      33.355 -14.389 -25.060  0.00  0.00    -0.004 C 
ATOM     12  C   UNL     1      34.483 -14.480 -22.926  0.00  0.00    +0.019 C 
ATOM     13  C   UNL     1      33.693 -15.721 -25.296  0.00  0.00    +0.002 C 
ATOM     14  C   UNL     1      34.427 -16.433 -24.346  0.00  0.00    +0.053 C 
ATOM     15  C   UNL     1      34.821 -15.812 -23.161  0.00  0.00    +0.006 C 
BRANCH  14  18
ATOM     16  O   UNL     1      34.317 -18.447 -25.561  0.00  0.00    -0.270 OA
ATOM     17  N   UNL     1      35.670 -18.429 -23.710  0.00  0.00    -0.325 N 
ATOM     18  C   UNL     1      34.780 -17.822 -24.591  0.00  0.00    +0.243 C 
ATOM     19  H   UNL     1      35.933 -19.368 -23.845  0.00  0.00    +0.145 HD
ATOM     20  H   UNL     1      36.039 -17.919 -22.953  0.00  0.00    +0.145 HD
ENDBRANCH  14  18
BRANCH  11  21
ATOM     21  C   UNL     1      32.568 -13.654 -26.097  0.00  0.00    +0.028 C 
ATOM     22  C   UNL     1      33.393 -13.360 -27.347  0.00  0.00    +0.005 C 
ENDBRANCH  11  21
ENDBRANCH   1  10
BRANCH   7  23
ATOM     23  N   UNL     1      33.229  -7.808 -23.516  0.00  0.00    -0.282 N 
ATOM     24  N   UNL     1      32.533  -6.272 -22.073  0.00  0.00    -0.251 NA
ATOM     25  C   UNL     1      32.629  -6.836 -24.266  0.00  0.00    +0.138 C 
ATOM     26  C   UNL     1      33.147  -7.427 -22.206  0.00  0.00    +0.220 C 
ATOM     27  C   UNL     1      32.207  -5.899 -23.352  0.00  0.00    +0.079 C 
BRANCH  27  30
ATOM     28  N   UNL     1      30.555  -2.905 -24.489  0.00  0.00    -0.208 N 
ATOM     29  N   UNL     1      30.375  -2.724 -23.170  0.00  0.00    -0.176 NA
ATOM     30  C   UNL     1      31.510  -4.658 -23.603  0.00  0.00    +0.052 C 
ATOM     31  C   UNL     1      31.229  -4.049 -24.801  0.00  0.00    +0.087 C 
ATOM     32  C   UNL     1      30.960  -3.799 -22.633  0.00  0.00    +0.120 C 
ATOM     33  C   UNL     1      30.049  -1.927 -25.421  0.00  0.00    +0.140 C 
ENDBRANCH  27  30
ENDBRANCH   7  23
BRANCH   5  34
ATOM     34  C   UNL     1      31.402 -10.102 -21.942  0.00  0.00    +0.042 C 
ATOM     35  C   UNL     1      30.325  -9.367 -22.774  0.00  0.00    +0.006 C 
ATOM     36  C   UNL     1      30.707 -11.028 -20.916  0.00  0.00    +0.006 C 
ENDBRANCH   5  34
TORSDOF 6
ENDMDL
MODEL 6
REMARK VINA RESULT:      -9.9      3.284      9.957
REMARK  Name = 67501411
REMARK  6 active torsions:
REMARK  status: ('A' for Active; 'I' for Inactive)
REMARK    1  A    between atoms: N_1  and  C_10
REMARK    2  A    between atoms: C_5  and  C_34
REMARK    3  A    between atoms: C_7  and  N_23
REMARK    4  A    between atoms: C_11  and  C_21
REMARK    5  A    between atoms: C_14  and  C_18
REMARK    6  A    between atoms: C_27  and  C_30
REMARK                            x       y       z     vdW  Elec       q    Type
REMARK                         _______ _______ _______ _____ _____    ______ ____
ROOT
ATOM      1  N   UNL     1      32.228  -8.698 -23.154  0.00  0.00    -0.213 N 
ATOM      2  N   UNL     1      31.472  -9.514 -22.396  0.00  0.00    -0.168 NA
ATOM      3  N   UNL     1      34.070  -8.792 -24.718  0.00  0.00    -0.225 NA
ATOM      4  C   UNL     1      33.037 -10.696 -23.575  0.00  0.00    +0.064 A 
ATOM      5  C   UNL     1      31.968 -10.728 -22.657  0.00  0.00    +0.083 A 
ATOM      6  C   UNL     1      33.179  -9.351 -23.879  0.00  0.00    +0.166 A 
ATOM      7  C   UNL     1      33.904 -11.605 -24.194  0.00  0.00    +0.055 C 
ATOM      8  C   UNL     1      34.852 -11.083 -25.075  0.00  0.00    +0.035 C 
ATOM      9  C   UNL     1      34.887  -9.709 -25.291  0.00  0.00    +0.102 C 
ENDROOT
BRANCH   1  10
ATOM     10  C   UNL     1      31.995  -7.323 -23.145  0.00  0.00    +0.080 C 
ATOM     11  C   UNL     1      32.389  -6.536 -22.064  0.00  0.00    -0.004 C 
ATOM     12  C   UNL     1      31.357  -6.737 -24.239  0.00  0.00    +0.019 C 
ATOM     13  C   UNL     1      32.146  -5.162 -22.076  0.00  0.00    +0.002 C 
ATOM     14  C   UNL     1      31.509  -4.576 -23.170  0.00  0.00    +0.053 C 
ATOM     15  C   UNL     1      31.114  -5.364 -24.252  0.00  0.00    +0.006 C 
BRANCH  14  18
ATOM     16  O   UNL     1      31.883  -2.382 -23.940  0.00  0.00    -0.270 OA
ATOM     17  N   UNL     1      30.270  -2.653 -22.334  0.00  0.00    -0.325 N 
ATOM     18  C   UNL     1      31.255  -3.145 -23.184  0.00  0.00    +0.243 C 
ATOM     19  H   UNL     1      30.071  -1.689 -22.316  0.00  0.00    +0.145 HD
ATOM     20  H   UNL     1      29.771  -3.269 -21.749  0.00  0.00    +0.145 HD
ENDBRANCH  14  18
BRANCH  11  21
ATOM     21  C   UNL     1      33.073  -7.133 -20.877  0.00  0.00    +0.028 C 
ATOM     22  C   UNL     1      32.098  -7.456 -19.749  0.00  0.00    +0.005 C 
ENDBRANCH  11  21
ENDBRANCH   1  10
BRANCH   7  23
ATOM     23  N   UNL     1      33.845 -12.965 -23.958  0.00  0.00    -0.282 N 
ATOM     24  N   UNL     1      33.270 -15.095 -24.200  0.00  0.00    -0.251 NA
ATOM     25  C   UNL     1      34.503 -13.644 -22.971  0.00  0.00    +0.138 C 
ATOM     26  C   UNL     1      33.118 -13.878 -24.670  0.00  0.00    +0.220 C 
ATOM     27  C   UNL     1      34.131 -14.958 -23.141  0.00  0.00    +0.079 C 
BRANCH  27  30
ATOM     28  N   UNL     1      35.106 -18.094 -21.660  0.00  0.00    -0.208 N 
ATOM     29  N   UNL     1      35.177 -17.339 -20.551  0.00  0.00    -0.176 NA
ATOM     30  C   UNL     1      34.537 -16.107 -22.366  0.00  0.00    +0.052 C 
ATOM     31  C   UNL     1      34.728 -17.404 -22.774  0.00  0.00    +0.087 C 
ATOM     32  C   UNL     1      34.828 -16.125 -20.989  0.00  0.00    +0.120 C 
ATOM     33  C   UNL     1      35.419 -19.501 -21.589  0.00  0.00    +0.140 C 
ENDBRANCH  27  30
ENDBRANCH   7  23
BRANCH   5  34
ATOM     34  C   UNL     1      31.378 -11.903 -21.992  0.00  0.00    +0.042 C 
ATOM     35  C   UNL     1      32.372 -12.637 -21.060  0.00  0.00    +0.006 C 
ATOM     36  C   UNL     1      30.092 -11.569 -21.199  0.00  0.00    +0.006 C 
ENDBRANCH   5  34
TORSDOF 6
ENDMDL
MODEL 7
REMARK VINA RESULT:      -9.9      3.153     10.399
REMARK  Name = 67501411
REMARK  6 active torsions:
REMARK  status: ('A' for Active; 'I' for Inactive)
REMARK    1  A    between atoms: N_1  and  C_10
REMARK    2  A    between atoms: C_5  and  C_34
REMARK    3  A    between atoms: C_7  and  N_23
REMARK    4  A    between atoms: C_11  and  C_21
REMARK    5  A    between atoms: C_14  and  C_18
REMARK    6  A    between atoms: C_27  and  C_30
REMARK                            x       y       z     vdW  Elec       q    Type
REMARK                         _______ _______ _______ _____ _____    ______ ____
ROOT
ATOM      1  N   UNL     1      33.083 -12.461 -23.142  0.00  0.00    -0.213 N 
ATOM      2  N   UNL     1      33.207 -13.022 -21.925  0.00  0.00    -0.168 NA
ATOM      3  N   UNL     1      33.263 -13.042 -25.483  0.00  0.00    -0.225 NA
ATOM      4  C   UNL     1      33.615 -14.546 -23.582  0.00  0.00    +0.064 A 
ATOM      5  C   UNL     1      33.530 -14.291 -22.198  0.00  0.00    +0.083 A 
ATOM      6  C   UNL     1      33.317 -13.326 -24.169  0.00  0.00    +0.166 A 
ATOM      7  C   UNL     1      33.900 -15.628 -24.424  0.00  0.00    +0.055 C 
ATOM      8  C   UNL     1      33.861 -15.394 -25.799  0.00  0.00    +0.035 C 
ATOM      9  C   UNL     1      33.547 -14.118 -26.256  0.00  0.00    +0.102 C 
ENDROOT
BRANCH   1  10
ATOM     10  C   UNL     1      32.743 -11.114 -23.257  0.00  0.00    +0.080 C 
ATOM     11  C   UNL     1      31.641 -10.591 -22.582  0.00  0.00    -0.004 C 
ATOM     12  C   UNL     1      33.523 -10.286 -24.065  0.00  0.00    +0.019 C 
ATOM     13  C   UNL     1      31.319  -9.240 -22.711  0.00  0.00    +0.002 C 
ATOM     14  C   UNL     1      32.100  -8.412 -23.519  0.00  0.00    +0.053 C 
ATOM     15  C   UNL     1      33.202  -8.935 -24.196  0.00  0.00    +0.006 C 
BRANCH  14  18
ATOM     16  O   UNL     1      32.247  -6.308 -24.567  0.00  0.00    -0.270 OA
ATOM     17  N   UNL     1      30.870  -6.459 -22.741  0.00  0.00    -0.325 N 
ATOM     18  C   UNL     1      31.765  -7.004 -23.656  0.00  0.00    +0.243 C 
ATOM     19  H   UNL     1      30.619  -5.508 -22.802  0.00  0.00    +0.145 HD
ATOM     20  H   UNL     1      30.485  -7.023 -22.031  0.00  0.00    +0.145 HD
ENDBRANCH  14  18
BRANCH  11  21
ATOM     21  C   UNL     1      30.785 -11.452 -21.709  0.00  0.00    +0.028 C 
ATOM     22  C   UNL     1      30.884 -11.062 -20.238  0.00  0.00    +0.005 C 
ENDBRANCH  11  21
ENDBRANCH   1  10
BRANCH   7  23
ATOM     23  N   UNL     1      34.210 -16.884 -23.939  0.00  0.00    -0.282 N 
ATOM     24  N   UNL     1      34.536 -19.080 -23.908  0.00  0.00    -0.251 NA
ATOM     25  C   UNL     1      34.590 -17.188 -22.662  0.00  0.00    +0.138 C 
ATOM     26  C   UNL     1      34.191 -18.052 -24.650  0.00  0.00    +0.220 C 
ATOM     27  C   UNL     1      34.786 -18.549 -22.667  0.00  0.00    +0.079 C 
BRANCH  27  30
ATOM     28  N   UNL     1      35.337 -20.881 -19.978  0.00  0.00    -0.208 N 
ATOM     29  N   UNL     1      36.530 -20.265 -19.933  0.00  0.00    -0.176 NA
ATOM     30  C   UNL     1      35.198 -19.395 -21.572  0.00  0.00    +0.052 C 
ATOM     31  C   UNL     1      34.503 -20.398 -20.942  0.00  0.00    +0.087 C 
ATOM     32  C   UNL     1      36.439 -19.357 -20.909  0.00  0.00    +0.120 C 
ATOM     33  C   UNL     1      35.048 -21.949 -19.051  0.00  0.00    +0.140 C 
ENDBRANCH  27  30
ENDBRANCH   7  23
BRANCH   5  34
ATOM     34  C   UNL     1      33.751 -15.232 -21.087  0.00  0.00    +0.042 C 
ATOM     35  C   UNL     1      34.930 -14.824 -20.171  0.00  0.00    +0.006 C 
ATOM     36  C   UNL     1      32.489 -15.454 -20.220  0.00  0.00    +0.006 C 
ENDBRANCH   5  34
TORSDOF 6
ENDMDL
MODEL 8
REMARK VINA RESULT:      -9.8      1.750      2.234
REMARK  Name = 67501411
REMARK  6 active torsions:
REMARK  status: ('A' for Active; 'I' for Inactive)
REMARK    1  A    between atoms: N_1  and  C_10
REMARK    2  A    between atoms: C_5  and  C_34
REMARK    3  A    between atoms: C_7  and  N_23
REMARK    4  A    between atoms: C_11  and  C_21
REMARK    5  A    between atoms: C_14  and  C_18
REMARK    6  A    between atoms: C_27  and  C_30
REMARK                            x       y       z     vdW  Elec       q    Type
REMARK                         _______ _______ _______ _____ _____    ______ ____
ROOT
ATOM      1  N   UNL     1      33.646 -13.488 -22.567  0.00  0.00    -0.213 N 
ATOM      2  N   UNL     1      34.108 -12.894 -23.683  0.00  0.00    -0.168 NA
ATOM      3  N   UNL     1      32.169 -13.046 -20.703  0.00  0.00    -0.225 NA
ATOM      4  C   UNL     1      32.668 -11.521 -22.553  0.00  0.00    +0.064 A 
ATOM      5  C   UNL     1      33.510 -11.698 -23.670  0.00  0.00    +0.083 A 
ATOM      6  C   UNL     1      32.782 -12.712 -21.853  0.00  0.00    +0.166 A 
ATOM      7  C   UNL     1      31.828 -10.530 -22.031  0.00  0.00    +0.055 C 
ATOM      8  C   UNL     1      31.165 -10.819 -20.838  0.00  0.00    +0.035 C 
ATOM      9  C   UNL     1      31.369 -12.057 -20.236  0.00  0.00    +0.102 C 
ENDROOT
BRANCH   1  10
ATOM     10  C   UNL     1      34.058 -14.779 -22.242  0.00  0.00    +0.080 C 
ATOM     11  C   UNL     1      34.105 -15.783 -23.208  0.00  0.00    -0.004 C 
ATOM     12  C   UNL     1      34.427 -15.061 -20.926  0.00  0.00    +0.019 C 
ATOM     13  C   UNL     1      34.521 -17.068 -22.861  0.00  0.00    +0.002 C 
ATOM     14  C   UNL     1      34.890 -17.349 -21.545  0.00  0.00    +0.053 C 
ATOM     15  C   UNL     1      34.843 -16.345 -20.577  0.00  0.00    +0.006 C 
BRANCH  14  18
ATOM     16  O   UNL     1      36.348 -18.876 -20.500  0.00  0.00    -0.270 OA
ATOM     17  N   UNL     1      34.544 -19.760 -21.605  0.00  0.00    -0.325 N 
ATOM     18  C   UNL     1      35.324 -18.688 -21.181  0.00  0.00    +0.243 C 
ATOM     19  H   UNL     1      34.807 -20.681 -21.377  0.00  0.00    +0.145 HD
ATOM     20  H   UNL     1      33.728 -19.597 -22.133  0.00  0.00    +0.145 HD
ENDBRANCH  14  18
BRANCH  11  21
ATOM     21  C   UNL     1      33.716 -15.514 -24.626  0.00  0.00    +0.028 C 
ATOM     22  C   UNL     1      34.097 -16.661 -25.558  0.00  0.00    +0.005 C 
ENDBRANCH  11  21
ENDBRANCH   1  10
BRANCH   7  23
ATOM     23  N   UNL     1      31.647  -9.308 -22.651  0.00  0.00    -0.282 N 
ATOM     24  N   UNL     1      31.373  -7.820 -24.276  0.00  0.00    -0.251 NA
ATOM     25  C   UNL     1      31.540  -8.094 -22.033  0.00  0.00    +0.138 C 
ATOM     26  C   UNL     1      31.541  -9.094 -23.997  0.00  0.00    +0.220 C 
ATOM     27  C   UNL     1      31.372  -7.192 -23.056  0.00  0.00    +0.079 C 
BRANCH  27  30
ATOM     28  N   UNL     1      31.291  -3.595 -23.239  0.00  0.00    -0.208 N 
ATOM     29  N   UNL     1      30.458  -3.743 -22.195  0.00  0.00    -0.176 NA
ATOM     30  C   UNL     1      31.207  -5.759 -22.965  0.00  0.00    +0.052 C 
ATOM     31  C   UNL     1      31.767  -4.771 -23.737  0.00  0.00    +0.087 C 
ATOM     32  C   UNL     1      30.411  -5.069 -22.032  0.00  0.00    +0.120 C 
ATOM     33  C   UNL     1      31.600  -2.271 -23.724  0.00  0.00    +0.140 C 
ENDBRANCH  27  30
ENDBRANCH   7  23
BRANCH   5  34
ATOM     34  C   UNL     1      33.780 -10.747 -24.763  0.00  0.00    +0.042 C 
ATOM     35  C   UNL     1      34.892  -9.728 -24.420  0.00  0.00    +0.006 C 
ATOM     36  C   UNL     1      34.125 -11.444 -26.101  0.00  0.00    +0.006 C 
ENDBRANCH   5  34
TORSDOF 6
ENDMDL
MODEL 9
REMARK VINA RESULT:      -9.5      1.061      3.191
REMARK  Name = 67501411
REMARK  6 active torsions:
REMARK  status: ('A' for Active; 'I' for Inactive)
REMARK    1  A    between atoms: N_1  and  C_10
REMARK    2  A    between atoms: C_5  and  C_34
REMARK    3  A    between atoms: C_7  and  N_23
REMARK    4  A    between atoms: C_11  and  C_21
REMARK    5  A    between atoms: C_14  and  C_18
REMARK    6  A    between atoms: C_27  and  C_30
REMARK                            x       y       z     vdW  Elec       q    Type
REMARK                         _______ _______ _______ _____ _____    ______ ____
ROOT
ATOM      1  N   UNL     1      33.308 -12.711 -23.466  0.00  0.00    -0.213 N 
ATOM      2  N   UNL     1      32.376 -12.427 -22.538  0.00  0.00    -0.168 NA
ATOM      3  N   UNL     1      34.821 -11.589 -24.984  0.00  0.00    -0.225 NA
ATOM      4  C   UNL     1      33.259 -10.515 -23.433  0.00  0.00    +0.064 A 
ATOM      5  C   UNL     1      32.350 -11.090 -22.521  0.00  0.00    +0.083 A 
ATOM      6  C   UNL     1      33.868 -11.605 -24.034  0.00  0.00    +0.166 A 
ATOM      7  C   UNL     1      33.655  -9.235 -23.838  0.00  0.00    +0.055 C 
ATOM      8  C   UNL     1      34.641  -9.154 -24.823  0.00  0.00    +0.035 C 
ATOM      9  C   UNL     1      35.170 -10.330 -25.344  0.00  0.00    +0.102 C 
ENDROOT
BRANCH   1  10
ATOM     10  C   UNL     1      33.617 -14.038 -23.762  0.00  0.00    +0.080 C 
ATOM     11  C   UNL     1      34.221 -14.863 -22.814  0.00  0.00    -0.004 C 
ATOM     12  C   UNL     1      33.314 -14.537 -25.029  0.00  0.00    +0.019 C 
ATOM     13  C   UNL     1      34.521 -16.187 -23.130  0.00  0.00    +0.002 C 
ATOM     14  C   UNL     1      34.218 -16.687 -24.398  0.00  0.00    +0.053 C 
ATOM     15  C   UNL     1      33.614 -15.861 -25.347  0.00  0.00    +0.006 C 
BRANCH  14  18
ATOM     16  O   UNL     1      33.977 -18.647 -25.681  0.00  0.00    -0.270 OA
ATOM     17  N   UNL     1      35.486 -18.719 -23.956  0.00  0.00    -0.325 N 
ATOM     18  C   UNL     1      34.530 -18.067 -24.729  0.00  0.00    +0.243 C 
ATOM     19  H   UNL     1      35.723 -19.655 -24.152  0.00  0.00    +0.145 HD
ATOM     20  H   UNL     1      35.926 -18.245 -23.213  0.00  0.00    +0.145 HD
ENDBRANCH  14  18
BRANCH  11  21
ATOM     21  C   UNL     1      34.559 -14.357 -21.448  0.00  0.00    +0.028 C 
ATOM     22  C   UNL     1      34.279 -15.393 -20.363  0.00  0.00    +0.005 C 
ENDBRANCH  11  21
ENDBRANCH   1  10
BRANCH   7  23
ATOM     23  N   UNL     1      33.109  -8.084 -23.301  0.00  0.00    -0.282 N 
ATOM     24  N   UNL     1      32.470  -6.597 -21.782  0.00  0.00    -0.251 NA
ATOM     25  C   UNL     1      32.531  -7.061 -24.000  0.00  0.00    +0.138 C 
ATOM     26  C   UNL     1      33.049  -7.761 -21.975  0.00  0.00    +0.220 C 
ATOM     27  C   UNL     1      32.144  -6.156 -23.040  0.00  0.00    +0.079 C 
BRANCH  27  30
ATOM     28  N   UNL     1      30.475  -2.964 -22.980  0.00  0.00    -0.208 N 
ATOM     29  N   UNL     1      30.550  -3.105 -24.314  0.00  0.00    -0.176 NA
ATOM     30  C   UNL     1      31.480  -4.886 -23.227  0.00  0.00    +0.052 C 
ATOM     31  C   UNL     1      31.017  -4.002 -22.283  0.00  0.00    +0.087 C 
ATOM     32  C   UNL     1      31.166  -4.283 -24.459  0.00  0.00    +0.120 C 
ATOM     33  C   UNL     1      29.857  -1.786 -22.420  0.00  0.00    +0.140 C 
ENDBRANCH  27  30
ENDBRANCH   7  23
BRANCH   5  34
ATOM     34  C   UNL     1      31.426 -10.400 -21.604  0.00  0.00    +0.042 C 
ATOM     35  C   UNL     1      30.093 -11.158 -21.402  0.00  0.00    +0.006 C 
ATOM     36  C   UNL     1      32.054 -10.102 -20.221  0.00  0.00    +0.006 C 
ENDBRANCH   5  34
TORSDOF 6
ENDMDL
