MODEL 1
REMARK VINA RESULT:      -5.7      0.000      0.000
REMARK  Name = 78058
REMARK  16 active torsions:
REMARK  status: ('A' for Active; 'I' for Inactive)
REMARK    1  A    between atoms: C_1  and  O_2
REMARK    2  A    between atoms: C_1  and  C_11
REMARK    3  A    between atoms: O_2  and  C_3
REMARK    4  A    between atoms: C_3  and  C_4
REMARK    5  A    between atoms: C_4  and  O_5
REMARK    6  A    between atoms: O_5  and  C_6
REMARK    7  A    between atoms: C_6  and  C_7
REMARK    8  A    between atoms: C_7  and  O_8
REMARK    9  A    between atoms: O_8  and  C_9
REMARK   10  A    between atoms: C_11  and  O_12
REMARK   11  A    between atoms: O_12  and  C_13
REMARK   12  A    between atoms: C_13  and  C_14
REMARK   13  A    between atoms: C_14  and  O_15
REMARK   14  A    between atoms: O_15  and  C_16
REMARK   15  A    between atoms: C_16  and  C_17
REMARK   16  A    between atoms: C_17  and  O_18
REMARK                            x       y       z     vdW  Elec       q    Type
REMARK                         _______ _______ _______ _____ _____    ______ ____
ROOT
ATOM      1  C   UNL     1      33.659 -22.228 -18.906  0.00  0.00    +0.174 C 
ENDROOT
BRANCH   1   2
ATOM      2  O   UNL     1      34.982 -22.656 -19.201  0.00  0.00    -0.348 OA
BRANCH   2   3
ATOM      3  C   UNL     1      35.903 -21.576 -19.146  0.00  0.00    +0.174 C 
BRANCH   3   4
ATOM      4  C   UNL     1      35.518 -20.545 -20.189  0.00  0.00    +0.174 C 
BRANCH   4   5
ATOM      5  O   UNL     1      36.565 -19.588 -20.303  0.00  0.00    -0.348 OA
BRANCH   5   6
ATOM      6  C   UNL     1      36.325 -18.678 -21.368  0.00  0.00    +0.174 C 
BRANCH   6   7
ATOM      7  C   UNL     1      34.932 -18.098 -21.219  0.00  0.00    +0.174 C 
BRANCH   7   8
ATOM      8  O   UNL     1      34.336 -17.984 -22.506  0.00  0.00    -0.351 OA
BRANCH   8   9
ATOM      9  C   UNL     1      34.978 -18.826 -23.454  0.00  0.00    +0.142 C 
ATOM     10  C   UNL     1      34.524 -18.439 -24.844  0.00  0.00    +0.035 C 
ENDBRANCH   8   9
ENDBRANCH   7   8
ENDBRANCH   6   7
ENDBRANCH   5   6
ENDBRANCH   4   5
ENDBRANCH   3   4
ENDBRANCH   2   3
ENDBRANCH   1   2
BRANCH   1  11
ATOM     11  C   UNL     1      33.167 -22.957 -17.669  0.00  0.00    +0.174 C 
BRANCH  11  12
ATOM     12  O   UNL     1      34.164 -23.877 -17.247  0.00  0.00    -0.348 OA
BRANCH  12  13
ATOM     13  C   UNL     1      34.380 -23.802 -15.843  0.00  0.00    +0.174 C 
BRANCH  13  14
ATOM     14  C   UNL     1      35.793 -23.314 -15.586  0.00  0.00    +0.174 C 
BRANCH  14  15
ATOM     15  O   UNL     1      36.674 -24.428 -15.581  0.00  0.00    -0.348 OA
BRANCH  15  16
ATOM     16  C   UNL     1      36.172 -25.486 -14.773  0.00  0.00    +0.174 C 
BRANCH  16  17
ATOM     17  C   UNL     1      37.016 -26.726 -14.999  0.00  0.00    +0.169 C 
BRANCH  17  18
ATOM     18  O   UNL     1      36.758 -27.231 -16.303  0.00  0.00    -0.379 OA
ATOM     19  H   UNL     1      36.373 -26.529 -16.852  0.00  0.00    +0.211 HD
ENDBRANCH  17  18
ENDBRANCH  16  17
ENDBRANCH  15  16
ENDBRANCH  14  15
ENDBRANCH  13  14
ENDBRANCH  12  13
ENDBRANCH  11  12
ENDBRANCH   1  11
TORSDOF 16
ENDMDL
MODEL 2
REMARK VINA RESULT:      -5.7      2.397      4.380
REMARK  Name = 78058
REMARK  16 active torsions:
REMARK  status: ('A' for Active; 'I' for Inactive)
REMARK    1  A    between atoms: C_1  and  O_2
REMARK    2  A    between atoms: C_1  and  C_11
REMARK    3  A    between atoms: O_2  and  C_3
REMARK    4  A    between atoms: C_3  and  C_4
REMARK    5  A    between atoms: C_4  and  O_5
REMARK    6  A    between atoms: O_5  and  C_6
REMARK    7  A    between atoms: C_6  and  C_7
REMARK    8  A    between atoms: C_7  and  O_8
REMARK    9  A    between atoms: O_8  and  C_9
REMARK   10  A    between atoms: C_11  and  O_12
REMARK   11  A    between atoms: O_12  and  C_13
REMARK   12  A    between atoms: C_13  and  C_14
REMARK   13  A    between atoms: C_14  and  O_15
REMARK   14  A    between atoms: O_15  and  C_16
REMARK   15  A    between atoms: C_16  and  C_17
REMARK   16  A    between atoms: C_17  and  O_18
REMARK                            x       y       z     vdW  Elec       q    Type
REMARK                         _______ _______ _______ _____ _____    ______ ____
ROOT
ATOM      1  C   UNL     1      37.100 -22.881 -15.200  0.00  0.00    +0.174 C 
ENDROOT
BRANCH   1   2
ATOM      2  O   UNL     1      36.299 -23.633 -16.104  0.00  0.00    -0.348 OA
BRANCH   2   3
ATOM      3  C   UNL     1      34.982 -23.813 -15.606  0.00  0.00    +0.174 C 
BRANCH   3   4
ATOM      4  C   UNL     1      33.988 -23.377 -16.665  0.00  0.00    +0.174 C 
BRANCH   4   5
ATOM      5  O   UNL     1      34.683 -23.138 -17.883  0.00  0.00    -0.348 OA
BRANCH   5   6
ATOM      6  C   UNL     1      33.784 -22.924 -18.963  0.00  0.00    +0.174 C 
BRANCH   6   7
ATOM      7  C   UNL     1      33.855 -21.469 -19.384  0.00  0.00    +0.174 C 
BRANCH   7   8
ATOM      8  O   UNL     1      32.733 -21.167 -20.203  0.00  0.00    -0.351 OA
BRANCH   8   9
ATOM      9  C   UNL     1      32.809 -19.847 -20.725  0.00  0.00    +0.142 C 
ATOM     10  C   UNL     1      34.258 -19.508 -20.999  0.00  0.00    +0.035 C 
ENDBRANCH   8   9
ENDBRANCH   7   8
ENDBRANCH   6   7
ENDBRANCH   5   6
ENDBRANCH   4   5
ENDBRANCH   3   4
ENDBRANCH   2   3
ENDBRANCH   1   2
BRANCH   1  11
ATOM     11  C   UNL     1      36.659 -23.182 -13.780  0.00  0.00    +0.174 C 
BRANCH  11  12
ATOM     12  O   UNL     1      37.808 -23.411 -12.978  0.00  0.00    -0.348 OA
BRANCH  12  13
ATOM     13  C   UNL     1      37.544 -24.358 -11.949  0.00  0.00    +0.174 C 
BRANCH  13  14
ATOM     14  C   UNL     1      37.492 -25.747 -12.557  0.00  0.00    +0.174 C 
BRANCH  14  15
ATOM     15  O   UNL     1      38.771 -26.072 -13.082  0.00  0.00    -0.348 OA
BRANCH  15  16
ATOM     16  C   UNL     1      38.792 -25.977 -14.502  0.00  0.00    +0.174 C 
BRANCH  16  17
ATOM     17  C   UNL     1      40.100 -25.346 -14.938  0.00  0.00    +0.169 C 
BRANCH  17  18
ATOM     18  O   UNL     1      40.572 -26.012 -16.101  0.00  0.00    -0.379 OA
ATOM     19  H   UNL     1      41.150 -26.747 -15.841  0.00  0.00    +0.211 HD
ENDBRANCH  17  18
ENDBRANCH  16  17
ENDBRANCH  15  16
ENDBRANCH  14  15
ENDBRANCH  13  14
ENDBRANCH  12  13
ENDBRANCH  11  12
ENDBRANCH   1  11
TORSDOF 16
ENDMDL
MODEL 3
REMARK VINA RESULT:      -5.7      1.432      2.082
REMARK  Name = 78058
REMARK  16 active torsions:
REMARK  status: ('A' for Active; 'I' for Inactive)
REMARK    1  A    between atoms: C_1  and  O_2
REMARK    2  A    between atoms: C_1  and  C_11
REMARK    3  A    between atoms: O_2  and  C_3
REMARK    4  A    between atoms: C_3  and  C_4
REMARK    5  A    between atoms: C_4  and  O_5
REMARK    6  A    between atoms: O_5  and  C_6
REMARK    7  A    between atoms: C_6  and  C_7
REMARK    8  A    between atoms: C_7  and  O_8
REMARK    9  A    between atoms: O_8  and  C_9
REMARK   10  A    between atoms: C_11  and  O_12
REMARK   11  A    between atoms: O_12  and  C_13
REMARK   12  A    between atoms: C_13  and  C_14
REMARK   13  A    between atoms: C_14  and  O_15
REMARK   14  A    between atoms: O_15  and  C_16
REMARK   15  A    between atoms: C_16  and  C_17
REMARK   16  A    between atoms: C_17  and  O_18
REMARK                            x       y       z     vdW  Elec       q    Type
REMARK                         _______ _______ _______ _____ _____    ______ ____
ROOT
ATOM      1  C   UNL     1      33.300 -23.002 -17.537  0.00  0.00    +0.174 C 
ENDROOT
BRANCH   1   2
ATOM      2  O   UNL     1      34.142 -23.171 -18.671  0.00  0.00    -0.348 OA
BRANCH   2   3
ATOM      3  C   UNL     1      34.293 -21.958 -19.392  0.00  0.00    +0.174 C 
BRANCH   3   4
ATOM      4  C   UNL     1      35.728 -21.482 -19.266  0.00  0.00    +0.174 C 
BRANCH   4   5
ATOM      5  O   UNL     1      35.808 -20.130 -19.701  0.00  0.00    -0.348 OA
BRANCH   5   6
ATOM      6  C   UNL     1      35.388 -19.992 -21.052  0.00  0.00    +0.174 C 
BRANCH   6   7
ATOM      7  C   UNL     1      35.880 -18.662 -21.590  0.00  0.00    +0.174 C 
BRANCH   7   8
ATOM      8  O   UNL     1      35.434 -17.620 -20.730  0.00  0.00    -0.351 OA
BRANCH   8   9
ATOM      9  C   UNL     1      34.849 -16.554 -21.465  0.00  0.00    +0.142 C 
ATOM     10  C   UNL     1      34.460 -15.450 -20.505  0.00  0.00    +0.035 C 
ENDBRANCH   8   9
ENDBRANCH   7   8
ENDBRANCH   6   7
ENDBRANCH   5   6
ENDBRANCH   4   5
ENDBRANCH   3   4
ENDBRANCH   2   3
ENDBRANCH   1   2
BRANCH   1  11
ATOM     11  C   UNL     1      34.003 -23.556 -16.312  0.00  0.00    +0.174 C 
BRANCH  11  12
ATOM     12  O   UNL     1      35.406 -23.544 -16.538  0.00  0.00    -0.348 OA
BRANCH  12  13
ATOM     13  C   UNL     1      36.059 -22.592 -15.707  0.00  0.00    +0.174 C 
BRANCH  13  14
ATOM     14  C   UNL     1      37.546 -22.892 -15.685  0.00  0.00    +0.174 C 
BRANCH  14  15
ATOM     15  O   UNL     1      37.865 -23.567 -14.477  0.00  0.00    -0.348 OA
BRANCH  15  16
ATOM     16  C   UNL     1      38.296 -24.901 -14.723  0.00  0.00    +0.174 C 
BRANCH  16  17
ATOM     17  C   UNL     1      37.120 -25.842 -14.545  0.00  0.00    +0.169 C 
BRANCH  17  18
ATOM     18  O   UNL     1      36.700 -26.306 -15.821  0.00  0.00    -0.379 OA
ATOM     19  H   UNL     1      36.816 -25.600 -16.476  0.00  0.00    +0.211 HD
ENDBRANCH  17  18
ENDBRANCH  16  17
ENDBRANCH  15  16
ENDBRANCH  14  15
ENDBRANCH  13  14
ENDBRANCH  12  13
ENDBRANCH  11  12
ENDBRANCH   1  11
TORSDOF 16
ENDMDL
MODEL 4
REMARK VINA RESULT:      -5.6      2.099      2.626
REMARK  Name = 78058
REMARK  16 active torsions:
REMARK  status: ('A' for Active; 'I' for Inactive)
REMARK    1  A    between atoms: C_1  and  O_2
REMARK    2  A    between atoms: C_1  and  C_11
REMARK    3  A    between atoms: O_2  and  C_3
REMARK    4  A    between atoms: C_3  and  C_4
REMARK    5  A    between atoms: C_4  and  O_5
REMARK    6  A    between atoms: O_5  and  C_6
REMARK    7  A    between atoms: C_6  and  C_7
REMARK    8  A    between atoms: C_7  and  O_8
REMARK    9  A    between atoms: O_8  and  C_9
REMARK   10  A    between atoms: C_11  and  O_12
REMARK   11  A    between atoms: O_12  and  C_13
REMARK   12  A    between atoms: C_13  and  C_14
REMARK   13  A    between atoms: C_14  and  O_15
REMARK   14  A    between atoms: O_15  and  C_16
REMARK   15  A    between atoms: C_16  and  C_17
REMARK   16  A    between atoms: C_17  and  O_18
REMARK                            x       y       z     vdW  Elec       q    Type
REMARK                         _______ _______ _______ _____ _____    ______ ____
ROOT
ATOM      1  C   UNL     1      35.582 -21.486 -19.460  0.00  0.00    +0.174 C 
ENDROOT
BRANCH   1   2
ATOM      2  O   UNL     1      35.576 -20.147 -19.941  0.00  0.00    -0.348 OA
BRANCH   2   3
ATOM      3  C   UNL     1      34.652 -19.981 -21.006  0.00  0.00    +0.174 C 
BRANCH   3   4
ATOM      4  C   UNL     1      34.114 -18.563 -20.980  0.00  0.00    +0.174 C 
BRANCH   4   5
ATOM      5  O   UNL     1      35.208 -17.653 -20.963  0.00  0.00    -0.348 OA
BRANCH   5   6
ATOM      6  C   UNL     1      34.763 -16.304 -21.001  0.00  0.00    +0.174 C 
BRANCH   6   7
ATOM      7  C   UNL     1      34.405 -15.943 -22.430  0.00  0.00    +0.174 C 
BRANCH   7   8
ATOM      8  O   UNL     1      35.350 -16.537 -23.311  0.00  0.00    -0.351 OA
BRANCH   8   9
ATOM      9  C   UNL     1      34.789 -16.772 -24.595  0.00  0.00    +0.142 C 
ATOM     10  C   UNL     1      34.628 -18.263 -24.797  0.00  0.00    +0.035 C 
ENDBRANCH   8   9
ENDBRANCH   7   8
ENDBRANCH   6   7
ENDBRANCH   5   6
ENDBRANCH   4   5
ENDBRANCH   3   4
ENDBRANCH   2   3
ENDBRANCH   1   2
BRANCH   1  11
ATOM     11  C   UNL     1      36.710 -21.647 -18.458  0.00  0.00    +0.174 C 
BRANCH  11  12
ATOM     12  O   UNL     1      36.237 -22.393 -17.346  0.00  0.00    -0.348 OA
BRANCH  12  13
ATOM     13  C   UNL     1      37.064 -22.204 -16.203  0.00  0.00    +0.174 C 
BRANCH  13  14
ATOM     14  C   UNL     1      37.017 -23.455 -15.346  0.00  0.00    +0.174 C 
BRANCH  14  15
ATOM     15  O   UNL     1      38.333 -23.771 -14.915  0.00  0.00    -0.348 OA
BRANCH  15  16
ATOM     16  C   UNL     1      38.540 -25.177 -14.862  0.00  0.00    +0.174 C 
BRANCH  16  17
ATOM     17  C   UNL     1      40.029 -25.456 -14.794  0.00  0.00    +0.169 C 
BRANCH  17  18
ATOM     18  O   UNL     1      40.462 -25.974 -16.046  0.00  0.00    -0.379 OA
ATOM     19  H   UNL     1      40.456 -25.266 -16.709  0.00  0.00    +0.211 HD
ENDBRANCH  17  18
ENDBRANCH  16  17
ENDBRANCH  15  16
ENDBRANCH  14  15
ENDBRANCH  13  14
ENDBRANCH  12  13
ENDBRANCH  11  12
ENDBRANCH   1  11
TORSDOF 16
ENDMDL
MODEL 5
REMARK VINA RESULT:      -5.6      1.835      2.714
REMARK  Name = 78058
REMARK  16 active torsions:
REMARK  status: ('A' for Active; 'I' for Inactive)
REMARK    1  A    between atoms: C_1  and  O_2
REMARK    2  A    between atoms: C_1  and  C_11
REMARK    3  A    between atoms: O_2  and  C_3
REMARK    4  A    between atoms: C_3  and  C_4
REMARK    5  A    between atoms: C_4  and  O_5
REMARK    6  A    between atoms: O_5  and  C_6
REMARK    7  A    between atoms: C_6  and  C_7
REMARK    8  A    between atoms: C_7  and  O_8
REMARK    9  A    between atoms: O_8  and  C_9
REMARK   10  A    between atoms: C_11  and  O_12
REMARK   11  A    between atoms: O_12  and  C_13
REMARK   12  A    between atoms: C_13  and  C_14
REMARK   13  A    between atoms: C_14  and  O_15
REMARK   14  A    between atoms: O_15  and  C_16
REMARK   15  A    between atoms: C_16  and  C_17
REMARK   16  A    between atoms: C_17  and  O_18
REMARK                            x       y       z     vdW  Elec       q    Type
REMARK                         _______ _______ _______ _____ _____    ______ ____
ROOT
ATOM      1  C   UNL     1      34.611 -23.024 -16.501  0.00  0.00    +0.174 C 
ENDROOT
BRANCH   1   2
ATOM      2  O   UNL     1      34.000 -23.476 -17.703  0.00  0.00    -0.348 OA
BRANCH   2   3
ATOM      3  C   UNL     1      33.861 -22.422 -18.644  0.00  0.00    +0.174 C 
BRANCH   3   4
ATOM      4  C   UNL     1      35.230 -22.057 -19.186  0.00  0.00    +0.174 C 
BRANCH   4   5
ATOM      5  O   UNL     1      35.222 -20.693 -19.588  0.00  0.00    -0.348 OA
BRANCH   5   6
ATOM      6  C   UNL     1      34.058 -20.379 -20.340  0.00  0.00    +0.174 C 
BRANCH   6   7
ATOM      7  C   UNL     1      34.464 -19.598 -21.576  0.00  0.00    +0.174 C 
BRANCH   7   8
ATOM      8  O   UNL     1      34.732 -18.251 -21.206  0.00  0.00    -0.351 OA
BRANCH   8   9
ATOM      9  C   UNL     1      35.191 -17.488 -22.314  0.00  0.00    +0.142 C 
ATOM     10  C   UNL     1      35.411 -18.413 -23.492  0.00  0.00    +0.035 C 
ENDBRANCH   8   9
ENDBRANCH   7   8
ENDBRANCH   6   7
ENDBRANCH   5   6
ENDBRANCH   4   5
ENDBRANCH   3   4
ENDBRANCH   2   3
ENDBRANCH   1   2
BRANCH   1  11
ATOM     11  C   UNL     1      34.776 -24.200 -15.557  0.00  0.00    +0.174 C 
BRANCH  11  12
ATOM     12  O   UNL     1      36.057 -24.780 -15.760  0.00  0.00    -0.348 OA
BRANCH  12  13
ATOM     13  C   UNL     1      36.540 -25.402 -14.575  0.00  0.00    +0.174 C 
BRANCH  13  14
ATOM     14  C   UNL     1      37.022 -26.800 -14.912  0.00  0.00    +0.174 C 
BRANCH  14  15
ATOM     15  O   UNL     1      38.418 -26.882 -14.661  0.00  0.00    -0.348 OA
BRANCH  15  16
ATOM     16  C   UNL     1      38.901 -25.708 -14.017  0.00  0.00    +0.174 C 
BRANCH  16  17
ATOM     17  C   UNL     1      40.332 -25.457 -14.453  0.00  0.00    +0.169 C 
BRANCH  17  18
ATOM     18  O   UNL     1      40.986 -26.705 -14.641  0.00  0.00    -0.379 OA
ATOM     19  H   UNL     1      41.943 -26.590 -14.528  0.00  0.00    +0.211 HD
ENDBRANCH  17  18
ENDBRANCH  16  17
ENDBRANCH  15  16
ENDBRANCH  14  15
ENDBRANCH  13  14
ENDBRANCH  12  13
ENDBRANCH  11  12
ENDBRANCH   1  11
TORSDOF 16
ENDMDL
MODEL 6
REMARK VINA RESULT:      -5.5      3.249      5.078
REMARK  Name = 78058
REMARK  16 active torsions:
REMARK  status: ('A' for Active; 'I' for Inactive)
REMARK    1  A    between atoms: C_1  and  O_2
REMARK    2  A    between atoms: C_1  and  C_11
REMARK    3  A    between atoms: O_2  and  C_3
REMARK    4  A    between atoms: C_3  and  C_4
REMARK    5  A    between atoms: C_4  and  O_5
REMARK    6  A    between atoms: O_5  and  C_6
REMARK    7  A    between atoms: C_6  and  C_7
REMARK    8  A    between atoms: C_7  and  O_8
REMARK    9  A    between atoms: O_8  and  C_9
REMARK   10  A    between atoms: C_11  and  O_12
REMARK   11  A    between atoms: O_12  and  C_13
REMARK   12  A    between atoms: C_13  and  C_14
REMARK   13  A    between atoms: C_14  and  O_15
REMARK   14  A    between atoms: O_15  and  C_16
REMARK   15  A    between atoms: C_16  and  C_17
REMARK   16  A    between atoms: C_17  and  O_18
REMARK                            x       y       z     vdW  Elec       q    Type
REMARK                         _______ _______ _______ _____ _____    ______ ____
ROOT
ATOM      1  C   UNL     1      33.663 -22.121 -18.827  0.00  0.00    +0.174 C 
ENDROOT
BRANCH   1   2
ATOM      2  O   UNL     1      34.943 -22.585 -19.238  0.00  0.00    -0.348 OA
BRANCH   2   3
ATOM      3  C   UNL     1      35.940 -21.590 -19.057  0.00  0.00    +0.174 C 
BRANCH   3   4
ATOM      4  C   UNL     1      36.124 -20.832 -20.358  0.00  0.00    +0.174 C 
BRANCH   4   5
ATOM      5  O   UNL     1      35.440 -19.587 -20.270  0.00  0.00    -0.348 OA
BRANCH   5   6
ATOM      6  C   UNL     1      34.477 -19.449 -21.305  0.00  0.00    +0.174 C 
BRANCH   6   7
ATOM      7  C   UNL     1      35.099 -18.689 -22.461  0.00  0.00    +0.174 C 
BRANCH   7   8
ATOM      8  O   UNL     1      34.536 -19.156 -23.681  0.00  0.00    -0.351 OA
BRANCH   8   9
ATOM      9  C   UNL     1      34.656 -18.188 -24.714  0.00  0.00    +0.142 C 
ATOM     10  C   UNL     1      34.771 -16.814 -24.092  0.00  0.00    +0.035 C 
ENDBRANCH   8   9
ENDBRANCH   7   8
ENDBRANCH   6   7
ENDBRANCH   5   6
ENDBRANCH   4   5
ENDBRANCH   3   4
ENDBRANCH   2   3
ENDBRANCH   1   2
BRANCH   1  11
ATOM     11  C   UNL     1      33.132 -23.033 -17.737  0.00  0.00    +0.174 C 
BRANCH  11  12
ATOM     12  O   UNL     1      31.807 -22.639 -17.409  0.00  0.00    -0.348 OA
BRANCH  12  13
ATOM     13  C   UNL     1      31.413 -23.144 -16.138  0.00  0.00    +0.174 C 
BRANCH  13  14
ATOM     14  C   UNL     1      29.992 -22.701 -15.848  0.00  0.00    +0.174 C 
BRANCH  14  15
ATOM     15  O   UNL     1      29.325 -22.450 -17.077  0.00  0.00    -0.348 OA
BRANCH  15  16
ATOM     16  C   UNL     1      28.075 -23.126 -17.140  0.00  0.00    +0.174 C 
BRANCH  16  17
ATOM     17  C   UNL     1      26.990 -22.213 -16.601  0.00  0.00    +0.169 C 
BRANCH  17  18
ATOM     18  O   UNL     1      26.835 -21.108 -17.481  0.00  0.00    -0.379 OA
ATOM     19  H   UNL     1      26.886 -21.416 -18.400  0.00  0.00    +0.211 HD
ENDBRANCH  17  18
ENDBRANCH  16  17
ENDBRANCH  15  16
ENDBRANCH  14  15
ENDBRANCH  13  14
ENDBRANCH  12  13
ENDBRANCH  11  12
ENDBRANCH   1  11
TORSDOF 16
ENDMDL
MODEL 7
REMARK VINA RESULT:      -5.5      4.302      9.439
REMARK  Name = 78058
REMARK  16 active torsions:
REMARK  status: ('A' for Active; 'I' for Inactive)
REMARK    1  A    between atoms: C_1  and  O_2
REMARK    2  A    between atoms: C_1  and  C_11
REMARK    3  A    between atoms: O_2  and  C_3
REMARK    4  A    between atoms: C_3  and  C_4
REMARK    5  A    between atoms: C_4  and  O_5
REMARK    6  A    between atoms: O_5  and  C_6
REMARK    7  A    between atoms: C_6  and  C_7
REMARK    8  A    between atoms: C_7  and  O_8
REMARK    9  A    between atoms: O_8  and  C_9
REMARK   10  A    between atoms: C_11  and  O_12
REMARK   11  A    between atoms: O_12  and  C_13
REMARK   12  A    between atoms: C_13  and  C_14
REMARK   13  A    between atoms: C_14  and  O_15
REMARK   14  A    between atoms: O_15  and  C_16
REMARK   15  A    between atoms: C_16  and  C_17
REMARK   16  A    between atoms: C_17  and  O_18
REMARK                            x       y       z     vdW  Elec       q    Type
REMARK                         _______ _______ _______ _____ _____    ______ ____
ROOT
ATOM      1  C   UNL     1      34.015 -15.840 -25.487  0.00  0.00    +0.174 C 
ENDROOT
BRANCH   1   2
ATOM      2  O   UNL     1      33.694 -17.194 -25.782  0.00  0.00    -0.348 OA
BRANCH   2   3
ATOM      3  C   UNL     1      34.480 -18.093 -25.014  0.00  0.00    +0.174 C 
BRANCH   3   4
ATOM      4  C   UNL     1      35.123 -17.336 -23.869  0.00  0.00    +0.174 C 
BRANCH   4   5
ATOM      5  O   UNL     1      35.697 -18.269 -22.960  0.00  0.00    -0.348 OA
BRANCH   5   6
ATOM      6  C   UNL     1      34.873 -19.415 -22.802  0.00  0.00    +0.174 C 
BRANCH   6   7
ATOM      7  C   UNL     1      34.284 -19.411 -21.404  0.00  0.00    +0.174 C 
BRANCH   7   8
ATOM      8  O   UNL     1      35.338 -19.293 -20.456  0.00  0.00    -0.351 OA
BRANCH   8   9
ATOM      9  C   UNL     1      36.001 -20.534 -20.257  0.00  0.00    +0.142 C 
ATOM     10  C   UNL     1      35.109 -21.444 -19.441  0.00  0.00    +0.035 C 
ENDBRANCH   8   9
ENDBRANCH   7   8
ENDBRANCH   6   7
ENDBRANCH   5   6
ENDBRANCH   4   5
ENDBRANCH   3   4
ENDBRANCH   2   3
ENDBRANCH   1   2
BRANCH   1  11
ATOM     11  C   UNL     1      32.996 -14.933 -26.151  0.00  0.00    +0.174 C 
BRANCH  11  12
ATOM     12  O   UNL     1      32.911 -13.718 -25.420  0.00  0.00    -0.348 OA
BRANCH  12  13
ATOM     13  C   UNL     1      33.458 -13.857 -24.114  0.00  0.00    +0.174 C 
BRANCH  13  14
ATOM     14  C   UNL     1      32.436 -13.388 -23.097  0.00  0.00    +0.174 C 
BRANCH  14  15
ATOM     15  O   UNL     1      32.910 -13.689 -21.792  0.00  0.00    -0.348 OA
BRANCH  15  16
ATOM     16  C   UNL     1      34.030 -14.565 -21.833  0.00  0.00    +0.174 C 
BRANCH  16  17
ATOM     17  C   UNL     1      34.230 -15.179 -20.461  0.00  0.00    +0.169 C 
BRANCH  17  18
ATOM     18  O   UNL     1      35.139 -16.267 -20.568  0.00  0.00    -0.379 OA
ATOM     19  H   UNL     1      35.739 -16.115 -21.315  0.00  0.00    +0.211 HD
ENDBRANCH  17  18
ENDBRANCH  16  17
ENDBRANCH  15  16
ENDBRANCH  14  15
ENDBRANCH  13  14
ENDBRANCH  12  13
ENDBRANCH  11  12
ENDBRANCH   1  11
TORSDOF 16
ENDMDL
MODEL 8
REMARK VINA RESULT:      -5.5      3.213      8.948
REMARK  Name = 78058
REMARK  16 active torsions:
REMARK  status: ('A' for Active; 'I' for Inactive)
REMARK    1  A    between atoms: C_1  and  O_2
REMARK    2  A    between atoms: C_1  and  C_11
REMARK    3  A    between atoms: O_2  and  C_3
REMARK    4  A    between atoms: C_3  and  C_4
REMARK    5  A    between atoms: C_4  and  O_5
REMARK    6  A    between atoms: O_5  and  C_6
REMARK    7  A    between atoms: C_6  and  C_7
REMARK    8  A    between atoms: C_7  and  O_8
REMARK    9  A    between atoms: O_8  and  C_9
REMARK   10  A    between atoms: C_11  and  O_12
REMARK   11  A    between atoms: O_12  and  C_13
REMARK   12  A    between atoms: C_13  and  C_14
REMARK   13  A    between atoms: C_14  and  O_15
REMARK   14  A    between atoms: O_15  and  C_16
REMARK   15  A    between atoms: C_16  and  C_17
REMARK   16  A    between atoms: C_17  and  O_18
REMARK                            x       y       z     vdW  Elec       q    Type
REMARK                         _______ _______ _______ _____ _____    ______ ____
ROOT
ATOM      1  C   UNL     1      33.020 -20.142 -20.552  0.00  0.00    +0.174 C 
ENDROOT
BRANCH   1   2
ATOM      2  O   UNL     1      32.721 -21.077 -19.523  0.00  0.00    -0.348 OA
BRANCH   2   3
ATOM      3  C   UNL     1      33.839 -21.900 -19.227  0.00  0.00    +0.174 C 
BRANCH   3   4
ATOM      4  C   UNL     1      33.454 -22.889 -18.143  0.00  0.00    +0.174 C 
BRANCH   4   5
ATOM      5  O   UNL     1      32.108 -22.647 -17.752  0.00  0.00    -0.348 OA
BRANCH   5   6
ATOM      6  C   UNL     1      31.807 -23.267 -16.510  0.00  0.00    +0.174 C 
BRANCH   6   7
ATOM      7  C   UNL     1      30.384 -22.920 -16.115  0.00  0.00    +0.174 C 
BRANCH   7   8
ATOM      8  O   UNL     1      29.585 -24.094 -16.179  0.00  0.00    -0.351 OA
BRANCH   8   9
ATOM      9  C   UNL     1      28.294 -23.817 -16.707  0.00  0.00    +0.142 C 
ATOM     10  C   UNL     1      27.803 -22.502 -16.143  0.00  0.00    +0.035 C 
ENDBRANCH   8   9
ENDBRANCH   7   8
ENDBRANCH   6   7
ENDBRANCH   5   6
ENDBRANCH   4   5
ENDBRANCH   3   4
ENDBRANCH   2   3
ENDBRANCH   1   2
BRANCH   1  11
ATOM     11  C   UNL     1      34.523 -20.084 -20.747  0.00  0.00    +0.174 C 
BRANCH  11  12
ATOM     12  O   UNL     1      34.943 -18.728 -20.708  0.00  0.00    -0.348 OA
BRANCH  12  13
ATOM     13  C   UNL     1      36.115 -18.523 -21.489  0.00  0.00    +0.174 C 
BRANCH  13  14
ATOM     14  C   UNL     1      35.720 -17.933 -22.829  0.00  0.00    +0.174 C 
BRANCH  14  15
ATOM     15  O   UNL     1      34.617 -17.057 -22.643  0.00  0.00    -0.348 OA
BRANCH  15  16
ATOM     16  C   UNL     1      34.417 -16.222 -23.777  0.00  0.00    +0.174 C 
BRANCH  16  17
ATOM     17  C   UNL     1      34.809 -16.984 -25.029  0.00  0.00    +0.169 C 
BRANCH  17  18
ATOM     18  O   UNL     1      33.663 -17.138 -25.856  0.00  0.00    -0.379 OA
ATOM     19  H   UNL     1      32.926 -17.485 -25.328  0.00  0.00    +0.211 HD
ENDBRANCH  17  18
ENDBRANCH  16  17
ENDBRANCH  15  16
ENDBRANCH  14  15
ENDBRANCH  13  14
ENDBRANCH  12  13
ENDBRANCH  11  12
ENDBRANCH   1  11
TORSDOF 16
ENDMDL
MODEL 9
REMARK VINA RESULT:      -5.5      3.064      6.416
REMARK  Name = 78058
REMARK  16 active torsions:
REMARK  status: ('A' for Active; 'I' for Inactive)
REMARK    1  A    between atoms: C_1  and  O_2
REMARK    2  A    between atoms: C_1  and  C_11
REMARK    3  A    between atoms: O_2  and  C_3
REMARK    4  A    between atoms: C_3  and  C_4
REMARK    5  A    between atoms: C_4  and  O_5
REMARK    6  A    between atoms: O_5  and  C_6
REMARK    7  A    between atoms: C_6  and  C_7
REMARK    8  A    between atoms: C_7  and  O_8
REMARK    9  A    between atoms: O_8  and  C_9
REMARK   10  A    between atoms: C_11  and  O_12
REMARK   11  A    between atoms: O_12  and  C_13
REMARK   12  A    between atoms: C_13  and  C_14
REMARK   13  A    between atoms: C_14  and  O_15
REMARK   14  A    between atoms: O_15  and  C_16
REMARK   15  A    between atoms: C_16  and  C_17
REMARK   16  A    between atoms: C_17  and  O_18
REMARK                            x       y       z     vdW  Elec       q    Type
REMARK                         _______ _______ _______ _____ _____    ______ ____
ROOT
ATOM      1  C   UNL     1      34.424 -15.560 -21.063  0.00  0.00    +0.174 C 
ENDROOT
BRANCH   1   2
ATOM      2  O   UNL     1      33.057 -15.603 -21.452  0.00  0.00    -0.348 OA
BRANCH   2   3
ATOM      3  C   UNL     1      32.740 -14.557 -22.358  0.00  0.00    +0.174 C 
BRANCH   3   4
ATOM      4  C   UNL     1      34.027 -13.932 -22.862  0.00  0.00    +0.174 C 
BRANCH   4   5
ATOM      5  O   UNL     1      33.853 -13.543 -24.219  0.00  0.00    -0.348 OA
BRANCH   5   6
ATOM      6  C   UNL     1      32.880 -14.348 -24.871  0.00  0.00    +0.174 C 
BRANCH   6   7
ATOM      7  C   UNL     1      33.512 -15.005 -26.082  0.00  0.00    +0.174 C 
BRANCH   7   8
ATOM      8  O   UNL     1      33.498 -16.416 -25.906  0.00  0.00    -0.351 OA
BRANCH   8   9
ATOM      9  C   UNL     1      34.614 -16.857 -25.144  0.00  0.00    +0.142 C 
ATOM     10  C   UNL     1      34.470 -18.338 -24.871  0.00  0.00    +0.035 C 
ENDBRANCH   8   9
ENDBRANCH   7   8
ENDBRANCH   6   7
ENDBRANCH   5   6
ENDBRANCH   4   5
ENDBRANCH   3   4
ENDBRANCH   2   3
ENDBRANCH   1   2
BRANCH   1  11
ATOM     11  C   UNL     1      35.034 -16.937 -21.245  0.00  0.00    +0.174 C 
BRANCH  11  12
ATOM     12  O   UNL     1      33.993 -17.904 -21.282  0.00  0.00    -0.348 OA
BRANCH  12  13
ATOM     13  C   UNL     1      34.481 -19.205 -20.977  0.00  0.00    +0.174 C 
BRANCH  13  14
ATOM     14  C   UNL     1      35.992 -19.211 -21.108  0.00  0.00    +0.174 C 
BRANCH  14  15
ATOM     15  O   UNL     1      36.556 -19.763 -19.927  0.00  0.00    -0.348 OA
BRANCH  15  16
ATOM     16  C   UNL     1      36.392 -21.176 -19.882  0.00  0.00    +0.174 C 
BRANCH  16  17
ATOM     17  C   UNL     1      36.442 -21.634 -18.437  0.00  0.00    +0.169 C 
BRANCH  17  18
ATOM     18  O   UNL     1      35.325 -22.474 -18.178  0.00  0.00    -0.379 OA
ATOM     19  H   UNL     1      35.158 -22.505 -17.222  0.00  0.00    +0.211 HD
ENDBRANCH  17  18
ENDBRANCH  16  17
ENDBRANCH  15  16
ENDBRANCH  14  15
ENDBRANCH  13  14
ENDBRANCH  12  13
ENDBRANCH  11  12
ENDBRANCH   1  11
TORSDOF 16
ENDMDL
