MODEL 1
REMARK VINA RESULT:      -5.1      0.000      0.000
REMARK  Name = 437740
REMARK  5 active torsions:
REMARK  status: ('A' for Active; 'I' for Inactive)
REMARK    1  A    between atoms: S_1  and  C_4
REMARK    2  A    between atoms: S_1  and  C_8
REMARK    3  A    between atoms: C_8  and  C_9
REMARK    4  A    between atoms: C_9  and  C_10
REMARK    5  A    between atoms: C_10  and  C_12
REMARK                            x       y       z     vdW  Elec       q    Type
REMARK                         _______ _______ _______ _____ _____    ______ ____
ROOT
ATOM      1  S   UNL     1      38.311 -25.690 -14.522  0.00  0.00    -0.081 S 
ENDROOT
BRANCH   1   4
ATOM      2  N   UNL     1      35.678 -25.795 -14.550  0.00  0.00    -0.338 N 
ATOM      3  N   UNL     1      36.780 -27.184 -16.109  0.00  0.00    -0.280 NA
ATOM      4  C   UNL     1      36.789 -26.313 -15.153  0.00  0.00    +0.144 C 
ATOM      5  H   UNL     1      35.772 -25.134 -13.826  0.00  0.00    +0.144 HD
ATOM      6  H   UNL     1      34.781 -26.084 -14.838  0.00  0.00    +0.144 HD
ATOM      7  H   UNL     1      37.629 -27.506 -16.491  0.00  0.00    +0.189 HD
ENDBRANCH   1   4
BRANCH   1   8
ATOM      8  C   UNL     1      37.976 -25.645 -12.737  0.00  0.00    +0.066 C 
BRANCH   8   9
ATOM      9  C   UNL     1      38.232 -24.249 -12.175  0.00  0.00    +0.028 C 
BRANCH   9  10
ATOM     10  C   UNL     1      36.916 -23.504 -11.946  0.00  0.00    +0.106 C 
BRANCH  10  12
ATOM     11  N   UNL     1      35.276 -24.916 -10.453  0.00  0.00    -0.196 NA
ATOM     12  C   UNL     1      36.001 -24.292 -11.112  0.00  0.00    +0.073 C 
ENDBRANCH  10  12
ENDBRANCH   9  10
ENDBRANCH   8   9
ENDBRANCH   1   8
TORSDOF 5
ENDMDL
MODEL 2
REMARK VINA RESULT:      -4.9     10.943     11.744
REMARK  Name = 437740
REMARK  5 active torsions:
REMARK  status: ('A' for Active; 'I' for Inactive)
REMARK    1  A    between atoms: S_1  and  C_4
REMARK    2  A    between atoms: S_1  and  C_8
REMARK    3  A    between atoms: C_8  and  C_9
REMARK    4  A    between atoms: C_9  and  C_10
REMARK    5  A    between atoms: C_10  and  C_12
REMARK                            x       y       z     vdW  Elec       q    Type
REMARK                         _______ _______ _______ _____ _____    ______ ____
ROOT
ATOM      1  S   UNL     1      34.857 -18.865 -23.764  0.00  0.00    -0.081 S 
ENDROOT
BRANCH   1   4
ATOM      2  N   UNL     1      35.389 -16.284 -23.740  0.00  0.00    -0.338 N 
ATOM      3  N   UNL     1      34.546 -17.142 -25.771  0.00  0.00    -0.280 NA
ATOM      4  C   UNL     1      34.920 -17.286 -24.541  0.00  0.00    +0.144 C 
ATOM      5  H   UNL     1      35.655 -16.478 -22.812  0.00  0.00    +0.144 HD
ATOM      6  H   UNL     1      35.462 -15.366 -24.090  0.00  0.00    +0.144 HD
ATOM      7  H   UNL     1      34.219 -17.918 -26.282  0.00  0.00    +0.189 HD
ENDBRANCH   1   4
BRANCH   1   8
ATOM      8  C   UNL     1      34.613 -18.407 -22.024  0.00  0.00    +0.066 C 
BRANCH   8   9
ATOM      9  C   UNL     1      34.593 -19.649 -21.137  0.00  0.00    +0.028 C 
BRANCH   9  10
ATOM     10  C   UNL     1      33.171 -19.963 -20.669  0.00  0.00    +0.106 C 
BRANCH  10  12
ATOM     11  N   UNL     1      33.121 -22.134 -19.186  0.00  0.00    -0.196 NA
ATOM     12  C   UNL     1      33.143 -21.175 -19.840  0.00  0.00    +0.073 C 
ENDBRANCH  10  12
ENDBRANCH   9  10
ENDBRANCH   8   9
ENDBRANCH   1   8
TORSDOF 5
ENDMDL
MODEL 3
REMARK VINA RESULT:      -4.9      2.338      4.472
REMARK  Name = 437740
REMARK  5 active torsions:
REMARK  status: ('A' for Active; 'I' for Inactive)
REMARK    1  A    between atoms: S_1  and  C_4
REMARK    2  A    between atoms: S_1  and  C_8
REMARK    3  A    between atoms: C_8  and  C_9
REMARK    4  A    between atoms: C_9  and  C_10
REMARK    5  A    between atoms: C_10  and  C_12
REMARK                            x       y       z     vdW  Elec       q    Type
REMARK                         _______ _______ _______ _____ _____    ______ ____
ROOT
ATOM      1  S   UNL     1      37.460 -24.608 -12.076  0.00  0.00    -0.081 S 
ENDROOT
BRANCH   1   4
ATOM      2  N   UNL     1      35.025 -23.654 -12.404  0.00  0.00    -0.338 N 
ATOM      3  N   UNL     1      35.369 -24.953 -10.462  0.00  0.00    -0.280 NA
ATOM      4  C   UNL     1      35.789 -24.408 -11.558  0.00  0.00    +0.144 C 
ATOM      5  H   UNL     1      35.422 -23.275 -13.221  0.00  0.00    +0.144 HD
ATOM      6  H   UNL     1      34.076 -23.490 -12.197  0.00  0.00    +0.144 HD
ATOM      7  H   UNL     1      35.986 -25.483  -9.907  0.00  0.00    +0.189 HD
ENDBRANCH   1   4
BRANCH   1   8
ATOM      8  C   UNL     1      37.344 -26.090 -13.120  0.00  0.00    +0.066 C 
BRANCH   8   9
ATOM      9  C   UNL     1      37.571 -25.736 -14.587  0.00  0.00    +0.028 C 
BRANCH   9  10
ATOM     10  C   UNL     1      38.884 -24.971 -14.766  0.00  0.00    +0.106 C 
BRANCH  10  12
ATOM     11  N   UNL     1      40.953 -26.578 -14.539  0.00  0.00    -0.196 NA
ATOM     12  C   UNL     1      40.040 -25.868 -14.640  0.00  0.00    +0.073 C 
ENDBRANCH  10  12
ENDBRANCH   9  10
ENDBRANCH   8   9
ENDBRANCH   1   8
TORSDOF 5
ENDMDL
MODEL 4
REMARK VINA RESULT:      -4.8      1.565      3.907
REMARK  Name = 437740
REMARK  5 active torsions:
REMARK  status: ('A' for Active; 'I' for Inactive)
REMARK    1  A    between atoms: S_1  and  C_4
REMARK    2  A    between atoms: S_1  and  C_8
REMARK    3  A    between atoms: C_8  and  C_9
REMARK    4  A    between atoms: C_9  and  C_10
REMARK    5  A    between atoms: C_10  and  C_12
REMARK                            x       y       z     vdW  Elec       q    Type
REMARK                         _______ _______ _______ _____ _____    ______ ____
ROOT
ATOM      1  S   UNL     1      36.765 -23.398 -12.364  0.00  0.00    -0.081 S 
ENDROOT
BRANCH   1   4
ATOM      2  N   UNL     1      34.565 -24.747 -12.899  0.00  0.00    -0.338 N 
ATOM      3  N   UNL     1      35.375 -24.934 -10.689  0.00  0.00    -0.280 NA
ATOM      4  C   UNL     1      35.449 -24.471 -11.895  0.00  0.00    +0.144 C 
ATOM      5  H   UNL     1      34.695 -24.353 -13.792  0.00  0.00    +0.144 HD
ATOM      6  H   UNL     1      33.797 -25.341 -12.730  0.00  0.00    +0.144 HD
ATOM      7  H   UNL     1      36.056 -24.686 -10.022  0.00  0.00    +0.189 HD
ENDBRANCH   1   4
BRANCH   1   8
ATOM      8  C   UNL     1      38.218 -24.443 -12.053  0.00  0.00    +0.066 C 
BRANCH   8   9
ATOM      9  C   UNL     1      38.164 -25.708 -12.906  0.00  0.00    +0.028 C 
BRANCH   9  10
ATOM     10  C   UNL     1      38.115 -25.361 -14.395  0.00  0.00    +0.106 C 
BRANCH  10  12
ATOM     11  N   UNL     1      36.318 -26.816 -15.648  0.00  0.00    -0.196 NA
ATOM     12  C   UNL     1      37.111 -26.174 -15.094  0.00  0.00    +0.073 C 
ENDBRANCH  10  12
ENDBRANCH   9  10
ENDBRANCH   8   9
ENDBRANCH   1   8
TORSDOF 5
ENDMDL
MODEL 5
REMARK VINA RESULT:      -4.7     10.786     11.581
REMARK  Name = 437740
REMARK  5 active torsions:
REMARK  status: ('A' for Active; 'I' for Inactive)
REMARK    1  A    between atoms: S_1  and  C_4
REMARK    2  A    between atoms: S_1  and  C_8
REMARK    3  A    between atoms: C_8  and  C_9
REMARK    4  A    between atoms: C_9  and  C_10
REMARK    5  A    between atoms: C_10  and  C_12
REMARK                            x       y       z     vdW  Elec       q    Type
REMARK                         _______ _______ _______ _____ _____    ______ ____
ROOT
ATOM      1  S   UNL     1      34.486 -17.062 -21.354  0.00  0.00    -0.081 S 
ENDROOT
BRANCH   1   4
ATOM      2  N   UNL     1      34.473 -14.669 -22.459  0.00  0.00    -0.338 N 
ATOM      3  N   UNL     1      35.645 -16.342 -23.642  0.00  0.00    -0.280 NA
ATOM      4  C   UNL     1      34.934 -15.942 -22.638  0.00  0.00    +0.144 C 
ATOM      5  H   UNL     1      33.937 -14.446 -21.663  0.00  0.00    +0.144 HD
ATOM      6  H   UNL     1      34.676 -13.972 -23.126  0.00  0.00    +0.144 HD
ATOM      7  H   UNL     1      35.939 -17.281 -23.696  0.00  0.00    +0.189 HD
ENDBRANCH   1   4
BRANCH   1   8
ATOM      8  C   UNL     1      35.742 -18.360 -21.546  0.00  0.00    +0.066 C 
BRANCH   8   9
ATOM      9  C   UNL     1      35.256 -19.673 -20.939  0.00  0.00    +0.028 C 
BRANCH   9  10
ATOM     10  C   UNL     1      33.731 -19.688 -20.819  0.00  0.00    +0.106 C 
BRANCH  10  12
ATOM     11  N   UNL     1      32.910 -21.766 -19.433  0.00  0.00    -0.196 NA
ATOM     12  C   UNL     1      33.273 -20.849 -20.045  0.00  0.00    +0.073 C 
ENDBRANCH  10  12
ENDBRANCH   9  10
ENDBRANCH   8   9
ENDBRANCH   1   8
TORSDOF 5
ENDMDL
MODEL 6
REMARK VINA RESULT:      -4.7     10.058     10.973
REMARK  Name = 437740
REMARK  5 active torsions:
REMARK  status: ('A' for Active; 'I' for Inactive)
REMARK    1  A    between atoms: S_1  and  C_4
REMARK    2  A    between atoms: S_1  and  C_8
REMARK    3  A    between atoms: C_8  and  C_9
REMARK    4  A    between atoms: C_9  and  C_10
REMARK    5  A    between atoms: C_10  and  C_12
REMARK                            x       y       z     vdW  Elec       q    Type
REMARK                         _______ _______ _______ _____ _____    ______ ____
ROOT
ATOM      1  S   UNL     1      34.651 -17.323 -21.289  0.00  0.00    -0.081 S 
ENDROOT
BRANCH   1   4
ATOM      2  N   UNL     1      36.044 -18.293 -23.305  0.00  0.00    -0.338 N 
ATOM      3  N   UNL     1      35.421 -16.022 -23.482  0.00  0.00    -0.280 NA
ATOM      4  C   UNL     1      35.442 -17.153 -22.853  0.00  0.00    +0.144 C 
ATOM      5  H   UNL     1      36.013 -19.114 -22.764  0.00  0.00    +0.144 HD
ATOM      6  H   UNL     1      36.510 -18.293 -24.174  0.00  0.00    +0.144 HD
ATOM      7  H   UNL     1      34.963 -15.245 -23.086  0.00  0.00    +0.189 HD
ENDBRANCH   1   4
BRANCH   1   8
ATOM      8  C   UNL     1      34.845 -19.101 -20.973  0.00  0.00    +0.066 C 
BRANCH   8   9
ATOM      9  C   UNL     1      33.513 -19.827 -21.141  0.00  0.00    +0.028 C 
BRANCH   9  10
ATOM     10  C   UNL     1      33.167 -20.630 -19.886  0.00  0.00    +0.106 C 
BRANCH  10  12
ATOM     11  N   UNL     1      35.045 -22.389 -19.342  0.00  0.00    -0.196 NA
ATOM     12  C   UNL     1      34.215 -21.613 -19.583  0.00  0.00    +0.073 C 
ENDBRANCH  10  12
ENDBRANCH   9  10
ENDBRANCH   8   9
ENDBRANCH   1   8
TORSDOF 5
ENDMDL
MODEL 7
REMARK VINA RESULT:      -4.7      2.449      2.674
REMARK  Name = 437740
REMARK  5 active torsions:
REMARK  status: ('A' for Active; 'I' for Inactive)
REMARK    1  A    between atoms: S_1  and  C_4
REMARK    2  A    between atoms: S_1  and  C_8
REMARK    3  A    between atoms: C_8  and  C_9
REMARK    4  A    between atoms: C_9  and  C_10
REMARK    5  A    between atoms: C_10  and  C_12
REMARK                            x       y       z     vdW  Elec       q    Type
REMARK                         _______ _______ _______ _____ _____    ______ ____
ROOT
ATOM      1  S   UNL     1      38.803 -25.488 -13.159  0.00  0.00    -0.081 S 
ENDROOT
BRANCH   1   4
ATOM      2  N   UNL     1      39.712 -25.069 -15.597  0.00  0.00    -0.338 N 
ATOM      3  N   UNL     1      41.015 -26.500 -14.244  0.00  0.00    -0.280 NA
ATOM      4  C   UNL     1      39.987 -25.739 -14.438  0.00  0.00    +0.144 C 
ATOM      5  H   UNL     1      38.905 -24.508 -15.663  0.00  0.00    +0.144 HD
ATOM      6  H   UNL     1      40.320 -25.148 -16.368  0.00  0.00    +0.144 HD
ATOM      7  H   UNL     1      41.141 -26.947 -13.376  0.00  0.00    +0.189 HD
ENDBRANCH   1   4
BRANCH   1   8
ATOM      8  C   UNL     1      37.353 -24.938 -14.106  0.00  0.00    +0.066 C 
BRANCH   8   9
ATOM      9  C   UNL     1      36.798 -23.636 -13.533  0.00  0.00    +0.028 C 
BRANCH   9  10
ATOM     10  C   UNL     1      35.382 -23.838 -12.991  0.00  0.00    +0.106 C 
BRANCH  10  12
ATOM     11  N   UNL     1      35.428 -25.024 -10.645  0.00  0.00    -0.196 NA
ATOM     12  C   UNL     1      35.408 -24.501 -11.681  0.00  0.00    +0.073 C 
ENDBRANCH  10  12
ENDBRANCH   9  10
ENDBRANCH   8   9
ENDBRANCH   1   8
TORSDOF 5
ENDMDL
MODEL 8
REMARK VINA RESULT:      -4.6     12.262     13.074
REMARK  Name = 437740
REMARK  5 active torsions:
REMARK  status: ('A' for Active; 'I' for Inactive)
REMARK    1  A    between atoms: S_1  and  C_4
REMARK    2  A    between atoms: S_1  and  C_8
REMARK    3  A    between atoms: C_8  and  C_9
REMARK    4  A    between atoms: C_9  and  C_10
REMARK    5  A    between atoms: C_10  and  C_12
REMARK                            x       y       z     vdW  Elec       q    Type
REMARK                         _______ _______ _______ _____ _____    ______ ____
ROOT
ATOM      1  S   UNL     1      34.517 -17.672 -25.025  0.00  0.00    -0.081 S 
ENDROOT
BRANCH   1   4
ATOM      2  N   UNL     1      33.733 -15.373 -24.003  0.00  0.00    -0.338 N 
ATOM      3  N   UNL     1      33.607 -15.550 -26.354  0.00  0.00    -0.280 NA
ATOM      4  C   UNL     1      33.885 -16.036 -25.187  0.00  0.00    +0.144 C 
ATOM      5  H   UNL     1      33.969 -15.817 -23.156  0.00  0.00    +0.144 HD
ATOM      6  H   UNL     1      33.387 -14.450 -23.995  0.00  0.00    +0.144 HD
ATOM      7  H   UNL     1      33.747 -16.095 -27.162  0.00  0.00    +0.189 HD
ENDBRANCH   1   4
BRANCH   1   8
ATOM      8  C   UNL     1      34.938 -17.728 -23.259  0.00  0.00    +0.066 C 
BRANCH   8   9
ATOM      9  C   UNL     1      34.777 -19.144 -22.712  0.00  0.00    +0.028 C 
BRANCH   9  10
ATOM     10  C   UNL     1      34.636 -19.127 -21.189  0.00  0.00    +0.106 C 
BRANCH  10  12
ATOM     11  N   UNL     1      32.676 -20.695 -20.405  0.00  0.00    -0.196 NA
ATOM     12  C   UNL     1      33.542 -20.003 -20.750  0.00  0.00    +0.073 C 
ENDBRANCH  10  12
ENDBRANCH   9  10
ENDBRANCH   8   9
ENDBRANCH   1   8
TORSDOF 5
ENDMDL
MODEL 9
REMARK VINA RESULT:      -4.6      2.814      4.706
REMARK  Name = 437740
REMARK  5 active torsions:
REMARK  status: ('A' for Active; 'I' for Inactive)
REMARK    1  A    between atoms: S_1  and  C_4
REMARK    2  A    between atoms: S_1  and  C_8
REMARK    3  A    between atoms: C_8  and  C_9
REMARK    4  A    between atoms: C_9  and  C_10
REMARK    5  A    between atoms: C_10  and  C_12
REMARK                            x       y       z     vdW  Elec       q    Type
REMARK                         _______ _______ _______ _____ _____    ______ ____
ROOT
ATOM      1  S   UNL     1      36.105 -23.570 -13.010  0.00  0.00    -0.081 S 
ENDROOT
BRANCH   1   4
ATOM      2  N   UNL     1      36.582 -23.661 -10.420  0.00  0.00    -0.338 N 
ATOM      3  N   UNL     1      38.327 -22.799 -11.758  0.00  0.00    -0.280 NA
ATOM      4  C   UNL     1      37.142 -23.299 -11.613  0.00  0.00    +0.144 C 
ATOM      5  H   UNL     1      35.672 -24.036 -10.396  0.00  0.00    +0.144 HD
ATOM      6  H   UNL     1      37.090 -23.548  -9.583  0.00  0.00    +0.144 HD
ATOM      7  H   UNL     1      38.656 -22.564 -12.656  0.00  0.00    +0.189 HD
ENDBRANCH   1   4
BRANCH   1   8
ATOM      8  C   UNL     1      37.323 -23.666 -14.355  0.00  0.00    +0.066 C 
BRANCH   8   9
ATOM      9  C   UNL     1      37.495 -25.108 -14.825  0.00  0.00    +0.028 C 
BRANCH   9  10
ATOM     10  C   UNL     1      38.532 -25.840 -13.971  0.00  0.00    +0.106 C 
BRANCH  10  12
ATOM     11  N   UNL     1      40.967 -25.026 -14.537  0.00  0.00    -0.196 NA
ATOM     12  C   UNL     1      39.892 -25.386 -14.287  0.00  0.00    +0.073 C 
ENDBRANCH  10  12
ENDBRANCH   9  10
ENDBRANCH   8   9
ENDBRANCH   1   8
TORSDOF 5
ENDMDL
