MODEL 1
REMARK VINA RESULT:      -9.5      0.000      0.000
REMARK  Name = 9795739
REMARK  4 active torsions:
REMARK  status: ('A' for Active; 'I' for Inactive)
REMARK    1  A    between atoms: N_1  and  C_18
REMARK    2  A    between atoms: C_2  and  C_8
REMARK    3  A    between atoms: C_11  and  S_14
REMARK    4  A    between atoms: C_18  and  C_19
REMARK                            x       y       z     vdW  Elec       q    Type
REMARK                         _______ _______ _______ _____ _____    ______ ____
ROOT
ATOM      1  N   UNL     1      34.718 -16.073 -23.347  0.00  0.00    +0.387 N 
ATOM      2  C   UNL     1      34.512 -18.525 -21.758  0.00  0.00    +0.018 C 
ATOM      3  C   UNL     1      35.187 -18.494 -23.138  0.00  0.00    -0.019 C 
ATOM      4  C   UNL     1      34.565 -17.131 -21.115  0.00  0.00    -0.019 C 
ATOM      5  C   UNL     1      34.606 -17.379 -24.010  0.00  0.00    -0.077 C 
ATOM      6  C   UNL     1      34.006 -16.066 -22.061  0.00  0.00    -0.077 C 
ATOM      7  H   UNL     1      35.706 -15.899 -23.160  0.00  0.00    -0.080 HD
ENDROOT
BRANCH   2   8
ATOM      8  C   UNL     1      35.099 -19.598 -20.854  0.00  0.00    -0.021 C 
ATOM      9  C   UNL     1      34.264 -20.547 -20.269  0.00  0.00    +0.014 C 
ATOM     10  C   UNL     1      36.471 -19.628 -20.614  0.00  0.00    -0.004 C 
ATOM     11  C   UNL     1      34.804 -21.532 -19.441  0.00  0.00    +0.105 C 
ATOM     12  C   UNL     1      37.011 -20.612 -19.786  0.00  0.00    +0.001 C 
ATOM     13  C   UNL     1      36.176 -21.564 -19.199  0.00  0.00    +0.018 C 
BRANCH  11  14
ATOM     14  S   UNL     1      33.761 -22.725 -18.709  0.00  0.00    +0.010 S 
ATOM     15  O   UNL     1      32.437 -22.136 -18.564  0.00  0.00    -0.169 OA
ATOM     16  O   UNL     1      33.916 -23.987 -19.419  0.00  0.00    -0.169 OA
ATOM     17  C   UNL     1      34.434 -22.961 -17.080  0.00  0.00    +0.182 C 
ENDBRANCH  11  14
ENDBRANCH   2   8
BRANCH   1  18
ATOM     18  C   UNL     1      34.210 -15.012 -24.218  0.00  0.00    -0.077 C 
BRANCH  18  19
ATOM     19  C   UNL     1      33.624 -15.611 -25.494  0.00  0.00    -0.023 C 
ATOM     20  C   UNL     1      32.843 -14.572 -26.284  0.00  0.00    -0.002 C 
ENDBRANCH  18  19
ENDBRANCH   1  18
TORSDOF 4
ENDMDL
MODEL 2
REMARK VINA RESULT:      -9.1      3.948      7.344
REMARK  Name = 9795739
REMARK  4 active torsions:
REMARK  status: ('A' for Active; 'I' for Inactive)
REMARK    1  A    between atoms: N_1  and  C_18
REMARK    2  A    between atoms: C_2  and  C_8
REMARK    3  A    between atoms: C_11  and  S_14
REMARK    4  A    between atoms: C_18  and  C_19
REMARK                            x       y       z     vdW  Elec       q    Type
REMARK                         _______ _______ _______ _____ _____    ______ ____
ROOT
ATOM      1  N   UNL     1      34.577 -21.619 -18.717  0.00  0.00    +0.387 N 
ATOM      2  C   UNL     1      34.630 -20.232 -21.297  0.00  0.00    +0.018 C 
ATOM      3  C   UNL     1      33.368 -20.295 -20.423  0.00  0.00    -0.019 C 
ATOM      4  C   UNL     1      35.883 -20.390 -20.423  0.00  0.00    -0.019 C 
ATOM      5  C   UNL     1      33.367 -21.550 -19.547  0.00  0.00    -0.077 C 
ATOM      6  C   UNL     1      35.790 -21.642 -19.546  0.00  0.00    -0.077 C 
ATOM      7  H   UNL     1      34.609 -20.781 -18.136  0.00  0.00    -0.080 HD
ENDROOT
BRANCH   2   8
ATOM      8  C   UNL     1      34.678 -18.974 -22.149  0.00  0.00    -0.021 C 
ATOM      9  C   UNL     1      34.455 -17.730 -21.565  0.00  0.00    +0.014 C 
ATOM     10  C   UNL     1      34.944 -19.071 -23.514  0.00  0.00    -0.004 C 
ATOM     11  C   UNL     1      34.500 -16.576 -22.349  0.00  0.00    +0.105 C 
ATOM     12  C   UNL     1      34.989 -17.918 -24.297  0.00  0.00    +0.001 C 
ATOM     13  C   UNL     1      34.766 -16.670 -23.714  0.00  0.00    +0.018 C 
BRANCH  11  14
ATOM     14  S   UNL     1      34.225 -15.014 -21.619  0.00  0.00    +0.010 S 
ATOM     15  O   UNL     1      34.923 -14.986 -20.341  0.00  0.00    -0.169 OA
ATOM     16  O   UNL     1      34.488 -13.978 -22.609  0.00  0.00    -0.169 OA
ATOM     17  C   UNL     1      32.478 -14.982 -21.287  0.00  0.00    +0.182 C 
ENDBRANCH  11  14
ENDBRANCH   2   8
BRANCH   1  18
ATOM     18  C   UNL     1      34.533 -22.794 -17.846  0.00  0.00    -0.077 C 
BRANCH  18  19
ATOM     19  C   UNL     1      33.086 -23.158 -17.522  0.00  0.00    -0.023 C 
ATOM     20  C   UNL     1      32.890 -23.372 -16.028  0.00  0.00    -0.002 C 
ENDBRANCH  18  19
ENDBRANCH   1  18
TORSDOF 4
ENDMDL
MODEL 3
REMARK VINA RESULT:      -8.9      2.863      4.943
REMARK  Name = 9795739
REMARK  4 active torsions:
REMARK  status: ('A' for Active; 'I' for Inactive)
REMARK    1  A    between atoms: N_1  and  C_18
REMARK    2  A    between atoms: C_2  and  C_8
REMARK    3  A    between atoms: C_11  and  S_14
REMARK    4  A    between atoms: C_18  and  C_19
REMARK                            x       y       z     vdW  Elec       q    Type
REMARK                         _______ _______ _______ _____ _____    ______ ____
ROOT
ATOM      1  N   UNL     1      35.148 -19.793 -20.632  0.00  0.00    +0.387 N 
ATOM      2  C   UNL     1      34.045 -22.021 -19.083  0.00  0.00    +0.018 C 
ATOM      3  C   UNL     1      35.508 -21.572 -18.950  0.00  0.00    -0.019 C 
ATOM      4  C   UNL     1      33.178 -20.851 -19.571  0.00  0.00    -0.019 C 
ATOM      5  C   UNL     1      36.004 -20.922 -20.243  0.00  0.00    -0.077 C 
ATOM      6  C   UNL     1      33.759 -20.226 -20.842  0.00  0.00    -0.077 C 
ATOM      7  H   UNL     1      35.154 -19.116 -19.869  0.00  0.00    -0.080 HD
ENDROOT
BRANCH   2   8
ATOM      8  C   UNL     1      33.512 -22.635 -17.798  0.00  0.00    -0.021 C 
ATOM      9  C   UNL     1      32.150 -22.578 -17.513  0.00  0.00    +0.014 C 
ATOM     10  C   UNL     1      34.389 -23.252 -16.909  0.00  0.00    -0.004 C 
ATOM     11  C   UNL     1      31.662 -23.142 -16.334  0.00  0.00    +0.105 C 
ATOM     12  C   UNL     1      33.902 -23.817 -15.730  0.00  0.00    +0.001 C 
ATOM     13  C   UNL     1      32.538 -23.761 -15.442  0.00  0.00    +0.018 C 
BRANCH  11  14
ATOM     14  S   UNL     1      29.955 -23.076 -15.975  0.00  0.00    +0.010 S 
ATOM     15  O   UNL     1      29.796 -22.484 -14.654  0.00  0.00    -0.169 OA
ATOM     16  O   UNL     1      29.256 -22.498 -17.115  0.00  0.00    -0.169 OA
ATOM     17  C   UNL     1      29.458 -24.780 -15.873  0.00  0.00    +0.182 C 
ENDBRANCH  11  14
ENDBRANCH   2   8
BRANCH   1  18
ATOM     18  C   UNL     1      35.669 -19.148 -21.838  0.00  0.00    -0.077 C 
BRANCH  18  19
ATOM     19  C   UNL     1      34.623 -19.181 -22.949  0.00  0.00    -0.023 C 
ATOM     20  C   UNL     1      34.993 -18.241 -24.086  0.00  0.00    -0.002 C 
ENDBRANCH  18  19
ENDBRANCH   1  18
TORSDOF 4
ENDMDL
MODEL 4
REMARK VINA RESULT:      -8.8      2.952      4.559
REMARK  Name = 9795739
REMARK  4 active torsions:
REMARK  status: ('A' for Active; 'I' for Inactive)
REMARK    1  A    between atoms: N_1  and  C_18
REMARK    2  A    between atoms: C_2  and  C_8
REMARK    3  A    between atoms: C_11  and  S_14
REMARK    4  A    between atoms: C_18  and  C_19
REMARK                            x       y       z     vdW  Elec       q    Type
REMARK                         _______ _______ _______ _____ _____    ______ ____
ROOT
ATOM      1  N   UNL     1      34.510 -19.194 -21.088  0.00  0.00    +0.387 N 
ATOM      2  C   UNL     1      34.225 -21.628 -19.484  0.00  0.00    +0.018 C 
ATOM      3  C   UNL     1      35.561 -20.882 -19.615  0.00  0.00    -0.019 C 
ATOM      4  C   UNL     1      33.056 -20.661 -19.724  0.00  0.00    -0.019 C 
ATOM      5  C   UNL     1      35.639 -20.122 -20.941  0.00  0.00    -0.077 C 
ATOM      6  C   UNL     1      33.226 -19.908 -21.046  0.00  0.00    -0.077 C 
ATOM      7  H   UNL     1      34.533 -18.542 -20.304  0.00  0.00    -0.080 HD
ENDROOT
BRANCH   2   8
ATOM      8  C   UNL     1      34.102 -22.361 -18.157  0.00  0.00    -0.021 C 
ATOM      9  C   UNL     1      35.239 -22.609 -17.392  0.00  0.00    +0.014 C 
ATOM     10  C   UNL     1      32.851 -22.783 -17.712  0.00  0.00    -0.004 C 
ATOM     11  C   UNL     1      35.124 -23.280 -16.174  0.00  0.00    +0.105 C 
ATOM     12  C   UNL     1      32.736 -23.454 -16.494  0.00  0.00    +0.001 C 
ATOM     13  C   UNL     1      33.874 -23.703 -15.726  0.00  0.00    +0.018 C 
BRANCH  11  14
ATOM     14  S   UNL     1      36.547 -23.589 -15.211  0.00  0.00    +0.010 S 
ATOM     15  O   UNL     1      36.931 -24.980 -15.410  0.00  0.00    -0.169 OA
ATOM     16  O   UNL     1      37.518 -22.530 -15.450  0.00  0.00    -0.169 OA
ATOM     17  C   UNL     1      35.991 -23.411 -13.531  0.00  0.00    +0.182 C 
ENDBRANCH  11  14
ENDBRANCH   2   8
BRANCH   1  18
ATOM     18  C   UNL     1      34.630 -18.435 -22.334  0.00  0.00    -0.077 C 
BRANCH  18  19
ATOM     19  C   UNL     1      34.838 -19.382 -23.513  0.00  0.00    -0.023 C 
ATOM     20  C   UNL     1      34.399 -18.743 -24.821  0.00  0.00    -0.002 C 
ENDBRANCH  18  19
ENDBRANCH   1  18
TORSDOF 4
ENDMDL
MODEL 5
REMARK VINA RESULT:      -8.6      8.291      9.444
REMARK  Name = 9795739
REMARK  4 active torsions:
REMARK  status: ('A' for Active; 'I' for Inactive)
REMARK    1  A    between atoms: N_1  and  C_18
REMARK    2  A    between atoms: C_2  and  C_8
REMARK    3  A    between atoms: C_11  and  S_14
REMARK    4  A    between atoms: C_18  and  C_19
REMARK                            x       y       z     vdW  Elec       q    Type
REMARK                         _______ _______ _______ _____ _____    ______ ____
ROOT
ATOM      1  N   UNL     1      30.329 -24.405 -15.401  0.00  0.00    +0.387 N 
ATOM      2  C   UNL     1      33.059 -23.499 -14.846  0.00  0.00    +0.018 C 
ATOM      3  C   UNL     1      32.409 -24.665 -14.086  0.00  0.00    -0.019 C 
ATOM      4  C   UNL     1      32.406 -23.343 -16.228  0.00  0.00    -0.019 C 
ATOM      5  C   UNL     1      30.887 -24.516 -14.046  0.00  0.00    -0.077 C 
ATOM      6  C   UNL     1      30.883 -23.243 -16.111  0.00  0.00    -0.077 C 
ATOM      7  H   UNL     1      30.590 -25.244 -15.919  0.00  0.00    -0.080 HD
ENDROOT
BRANCH   2   8
ATOM      8  C   UNL     1      34.570 -23.641 -14.937  0.00  0.00    -0.021 C 
ATOM      9  C   UNL     1      35.222 -24.618 -14.188  0.00  0.00    +0.014 C 
ATOM     10  C   UNL     1      35.298 -22.792 -15.769  0.00  0.00    -0.004 C 
ATOM     11  C   UNL     1      36.609 -24.748 -14.273  0.00  0.00    +0.105 C 
ATOM     12  C   UNL     1      36.684 -22.923 -15.853  0.00  0.00    +0.001 C 
ATOM     13  C   UNL     1      37.339 -23.900 -15.104  0.00  0.00    +0.018 C 
BRANCH  11  14
ATOM     14  S   UNL     1      37.429 -25.973 -13.339  0.00  0.00    +0.010 S 
ATOM     15  O   UNL     1      36.881 -25.952 -11.989  0.00  0.00    -0.169 OA
ATOM     16  O   UNL     1      37.437 -27.217 -14.096  0.00  0.00    -0.169 OA
ATOM     17  C   UNL     1      39.114 -25.410 -13.252  0.00  0.00    +0.182 C 
ENDBRANCH  11  14
ENDBRANCH   2   8
BRANCH   1  18
ATOM     18  C   UNL     1      28.869 -24.320 -15.348  0.00  0.00    -0.077 C 
BRANCH  18  19
ATOM     19  C   UNL     1      28.350 -23.423 -16.468  0.00  0.00    -0.023 C 
ATOM     20  C   UNL     1      27.338 -22.414 -15.945  0.00  0.00    -0.002 C 
ENDBRANCH  18  19
ENDBRANCH   1  18
TORSDOF 4
ENDMDL
MODEL 6
REMARK VINA RESULT:      -8.5      4.382      6.366
REMARK  Name = 9795739
REMARK  4 active torsions:
REMARK  status: ('A' for Active; 'I' for Inactive)
REMARK    1  A    between atoms: N_1  and  C_18
REMARK    2  A    between atoms: C_2  and  C_8
REMARK    3  A    between atoms: C_11  and  S_14
REMARK    4  A    between atoms: C_18  and  C_19
REMARK                            x       y       z     vdW  Elec       q    Type
REMARK                         _______ _______ _______ _____ _____    ______ ____
ROOT
ATOM      1  N   UNL     1      32.664 -10.939 -22.496  0.00  0.00    +0.387 N 
ATOM      2  C   UNL     1      32.910 -13.587 -23.724  0.00  0.00    +0.018 C 
ATOM      3  C   UNL     1      33.841 -12.421 -24.090  0.00  0.00    -0.019 C 
ATOM      4  C   UNL     1      32.348 -13.387 -22.308  0.00  0.00    -0.019 C 
ATOM      5  C   UNL     1      33.147 -11.074 -23.877  0.00  0.00    -0.077 C 
ATOM      6  C   UNL     1      31.708 -12.004 -22.159  0.00  0.00    -0.077 C 
ATOM      7  H   UNL     1      33.466 -11.028 -21.872  0.00  0.00    -0.080 HD
ENDROOT
BRANCH   2   8
ATOM      8  C   UNL     1      33.588 -14.938 -23.888  0.00  0.00    -0.021 C 
ATOM      9  C   UNL     1      34.062 -15.619 -22.769  0.00  0.00    +0.014 C 
ATOM     10  C   UNL     1      33.733 -15.491 -25.159  0.00  0.00    -0.004 C 
ATOM     11  C   UNL     1      34.683 -16.859 -22.921  0.00  0.00    +0.105 C 
ATOM     12  C   UNL     1      34.354 -16.731 -25.311  0.00  0.00    +0.001 C 
ATOM     13  C   UNL     1      34.830 -17.414 -24.191  0.00  0.00    +0.018 C 
BRANCH  11  14
ATOM     14  S   UNL     1      35.275 -17.716 -21.521  0.00  0.00    +0.010 S 
ATOM     15  O   UNL     1      36.501 -18.405 -21.900  0.00  0.00    -0.169 OA
ATOM     16  O   UNL     1      35.278 -16.811 -20.380  0.00  0.00    -0.169 OA
ATOM     17  C   UNL     1      34.034 -18.949 -21.199  0.00  0.00    +0.182 C 
ENDBRANCH  11  14
ENDBRANCH   2   8
BRANCH   1  18
ATOM     18  C   UNL     1      32.054  -9.624 -22.294  0.00  0.00    -0.077 C 
BRANCH  18  19
ATOM     19  C   UNL     1      31.987  -9.296 -20.804  0.00  0.00    -0.023 C 
ATOM     20  C   UNL     1      32.400  -7.857 -20.536  0.00  0.00    -0.002 C 
ENDBRANCH  18  19
ENDBRANCH   1  18
TORSDOF 4
ENDMDL
MODEL 7
REMARK VINA RESULT:      -8.4      4.111      8.403
REMARK  Name = 9795739
REMARK  4 active torsions:
REMARK  status: ('A' for Active; 'I' for Inactive)
REMARK    1  A    between atoms: N_1  and  C_18
REMARK    2  A    between atoms: C_2  and  C_8
REMARK    3  A    between atoms: C_11  and  S_14
REMARK    4  A    between atoms: C_18  and  C_19
REMARK                            x       y       z     vdW  Elec       q    Type
REMARK                         _______ _______ _______ _____ _____    ______ ____
ROOT
ATOM      1  N   UNL     1      36.540 -22.806 -15.420  0.00  0.00    +0.387 N 
ATOM      2  C   UNL     1      35.584 -22.281 -18.139  0.00  0.00    +0.018 C 
ATOM      3  C   UNL     1      34.655 -22.783 -17.023  0.00  0.00    -0.019 C 
ATOM      4  C   UNL     1      36.782 -21.536 -17.531  0.00  0.00    -0.019 C 
ATOM      5  C   UNL     1      35.431 -23.590 -15.981  0.00  0.00    -0.077 C 
ATOM      6  C   UNL     1      37.481 -22.389 -16.470  0.00  0.00    -0.077 C 
ATOM      7  H   UNL     1      36.148 -21.965 -14.997  0.00  0.00    -0.080 HD
ENDROOT
BRANCH   2   8
ATOM      8  C   UNL     1      34.846 -21.441 -19.169  0.00  0.00    -0.021 C 
ATOM      9  C   UNL     1      35.551 -20.543 -19.968  0.00  0.00    +0.014 C 
ATOM     10  C   UNL     1      33.466 -21.571 -19.309  0.00  0.00    -0.004 C 
ATOM     11  C   UNL     1      34.872 -19.773 -20.913  0.00  0.00    +0.105 C 
ATOM     12  C   UNL     1      32.787 -20.801 -20.255  0.00  0.00    +0.001 C 
ATOM     13  C   UNL     1      33.491 -19.901 -21.055  0.00  0.00    +0.018 C 
BRANCH  11  14
ATOM     14  S   UNL     1      35.752 -18.650 -21.918  0.00  0.00    +0.010 S 
ATOM     15  O   UNL     1      37.160 -18.729 -21.554  0.00  0.00    -0.169 OA
ATOM     16  O   UNL     1      35.353 -18.845 -23.305  0.00  0.00    -0.169 OA
ATOM     17  C   UNL     1      35.151 -17.050 -21.426  0.00  0.00    +0.182 C 
ENDBRANCH  11  14
ENDBRANCH   2   8
BRANCH   1  18
ATOM     18  C   UNL     1      37.236 -23.572 -14.386  0.00  0.00    -0.077 C 
BRANCH  18  19
ATOM     19  C   UNL     1      37.254 -25.055 -14.748  0.00  0.00    -0.023 C 
ATOM     20  C   UNL     1      38.642 -25.651 -14.571  0.00  0.00    -0.002 C 
ENDBRANCH  18  19
ENDBRANCH   1  18
TORSDOF 4
ENDMDL
MODEL 8
REMARK VINA RESULT:      -8.3      3.090      5.194
REMARK  Name = 9795739
REMARK  4 active torsions:
REMARK  status: ('A' for Active; 'I' for Inactive)
REMARK    1  A    between atoms: N_1  and  C_18
REMARK    2  A    between atoms: C_2  and  C_8
REMARK    3  A    between atoms: C_11  and  S_14
REMARK    4  A    between atoms: C_18  and  C_19
REMARK                            x       y       z     vdW  Elec       q    Type
REMARK                         _______ _______ _______ _____ _____    ______ ____
ROOT
ATOM      1  N   UNL     1      34.912 -20.010 -20.544  0.00  0.00    +0.387 N 
ATOM      2  C   UNL     1      34.098 -22.232 -18.817  0.00  0.00    +0.018 C 
ATOM      3  C   UNL     1      35.538 -21.696 -18.843  0.00  0.00    -0.019 C 
ATOM      4  C   UNL     1      33.119 -21.133 -19.258  0.00  0.00    -0.019 C 
ATOM      5  C   UNL     1      35.868 -21.072 -20.201  0.00  0.00    -0.077 C 
ATOM      6  C   UNL     1      33.538 -20.529 -20.601  0.00  0.00    -0.077 C 
ATOM      7  H   UNL     1      34.950 -19.303 -19.809  0.00  0.00    -0.080 HD
ENDROOT
BRANCH   2   8
ATOM      8  C   UNL     1      33.728 -22.822 -17.465  0.00  0.00    -0.021 C 
ATOM      9  C   UNL     1      32.391 -23.051 -17.149  0.00  0.00    +0.014 C 
ATOM     10  C   UNL     1      34.729 -23.131 -16.546  0.00  0.00    -0.004 C 
ATOM     11  C   UNL     1      32.053 -23.594 -15.908  0.00  0.00    +0.105 C 
ATOM     12  C   UNL     1      34.391 -23.673 -15.306  0.00  0.00    +0.001 C 
ATOM     13  C   UNL     1      33.053 -23.904 -14.987  0.00  0.00    +0.018 C 
BRANCH  11  14
ATOM     14  S   UNL     1      30.379 -23.886 -15.510  0.00  0.00    +0.010 S 
ATOM     15  O   UNL     1      30.039 -25.229 -15.959  0.00  0.00    -0.169 OA
ATOM     16  O   UNL     1      30.151 -23.509 -14.122  0.00  0.00    -0.169 OA
ATOM     17  C   UNL     1      29.477 -22.730 -16.516  0.00  0.00    +0.182 C 
ENDBRANCH  11  14
ENDBRANCH   2   8
BRANCH   1  18
ATOM     18  C   UNL     1      35.275 -19.386 -21.816  0.00  0.00    -0.077 C 
BRANCH  18  19
ATOM     19  C   UNL     1      34.499 -18.086 -22.008  0.00  0.00    -0.023 C 
ATOM     20  C   UNL     1      34.972 -17.011 -21.042  0.00  0.00    -0.002 C 
ENDBRANCH  18  19
ENDBRANCH   1  18
TORSDOF 4
ENDMDL
MODEL 9
REMARK VINA RESULT:      -8.3      4.522      7.223
REMARK  Name = 9795739
REMARK  4 active torsions:
REMARK  status: ('A' for Active; 'I' for Inactive)
REMARK    1  A    between atoms: N_1  and  C_18
REMARK    2  A    between atoms: C_2  and  C_8
REMARK    3  A    between atoms: C_11  and  S_14
REMARK    4  A    between atoms: C_18  and  C_19
REMARK                            x       y       z     vdW  Elec       q    Type
REMARK                         _______ _______ _______ _____ _____    ______ ____
ROOT
ATOM      1  N   UNL     1      35.397 -21.217 -19.061  0.00  0.00    +0.387 N 
ATOM      2  C   UNL     1      35.415 -23.049 -16.776  0.00  0.00    +0.018 C 
ATOM      3  C   UNL     1      36.444 -21.919 -16.931  0.00  0.00    -0.019 C 
ATOM      4  C   UNL     1      34.128 -22.698 -17.537  0.00  0.00    -0.019 C 
ATOM      5  C   UNL     1      36.663 -21.573 -18.406  0.00  0.00    -0.077 C 
ATOM      6  C   UNL     1      34.431 -22.323 -18.990  0.00  0.00    -0.077 C 
ATOM      7  H   UNL     1      34.999 -20.419 -18.565  0.00  0.00    -0.080 HD
ENDROOT
BRANCH   2   8
ATOM      8  C   UNL     1      35.147 -23.387 -15.318  0.00  0.00    -0.021 C 
ATOM      9  C   UNL     1      36.187 -23.346 -14.392  0.00  0.00    +0.014 C 
ATOM     10  C   UNL     1      33.861 -23.739 -14.913  0.00  0.00    -0.004 C 
ATOM     11  C   UNL     1      35.939 -23.655 -13.054  0.00  0.00    +0.105 C 
ATOM     12  C   UNL     1      33.613 -24.048 -13.575  0.00  0.00    +0.001 C 
ATOM     13  C   UNL     1      34.653 -24.007 -12.646  0.00  0.00    +0.018 C 
BRANCH  11  14
ATOM     14  S   UNL     1      37.238 -23.599 -11.890  0.00  0.00    +0.010 S 
ATOM     15  O   UNL     1      37.781 -22.248 -11.886  0.00  0.00    -0.169 OA
ATOM     16  O   UNL     1      36.781 -24.198 -10.643  0.00  0.00    -0.169 OA
ATOM     17  C   UNL     1      38.479 -24.683 -12.560  0.00  0.00    +0.182 C 
ENDBRANCH  11  14
ENDBRANCH   2   8
BRANCH   1  18
ATOM     18  C   UNL     1      35.632 -20.834 -20.454  0.00  0.00    -0.077 C 
BRANCH  18  19
ATOM     19  C   UNL     1      34.728 -19.667 -20.841  0.00  0.00    -0.023 C 
ATOM     20  C   UNL     1      35.540 -18.429 -21.188  0.00  0.00    -0.002 C 
ENDBRANCH  18  19
ENDBRANCH   1  18
TORSDOF 4
ENDMDL
