MODEL 1
REMARK VINA RESULT:      -9.4      0.000      0.000
REMARK  Name = 11373270
REMARK  11 active torsions:
REMARK  status: ('A' for Active; 'I' for Inactive)
REMARK    1  A    between atoms: C_1  and  C_4
REMARK    2  A    between atoms: C_1  and  C_18
REMARK    3  A    between atoms: N_3  and  C_6
REMARK    4  A    between atoms: C_7  and  O_12
REMARK    5  A    between atoms: C_9  and  O_16
REMARK    6  A    between atoms: C_11  and  O_14
REMARK    7  A    between atoms: C_18  and  C_20
REMARK    8  A    between atoms: C_21  and  C_31
REMARK    9  A    between atoms: C_23  and  O_26
REMARK   10  A    between atoms: C_24  and  O_28
REMARK   11  A    between atoms: C_31  and  O_32
REMARK                            x       y       z     vdW  Elec       q    Type
REMARK                         _______ _______ _______ _____ _____    ______ ____
ROOT
ATOM      1  C   UNL     1      34.628 -18.197 -22.623  0.00  0.00    +0.090 C 
ENDROOT
BRANCH   1   4
ATOM      2  O   UNL     1      35.544 -18.169 -20.417  0.00  0.00    -0.275 OA
ATOM      3  N   UNL     1      34.369 -20.076 -21.133  0.00  0.00    -0.281 N 
ATOM      4  C   UNL     1      34.917 -18.805 -21.260  0.00  0.00    +0.227 C 
ATOM      5  H   UNL     1      33.876 -20.417 -21.913  0.00  0.00    +0.155 HD
BRANCH   3   6
ATOM      6  C   UNL     1      34.437 -20.936 -20.011  0.00  0.00    +0.088 C 
ATOM      7  C   UNL     1      35.666 -21.268 -19.465  0.00  0.00    +0.150 C 
ATOM      8  C   UNL     1      33.257 -21.432 -19.480  0.00  0.00    +0.057 C 
ATOM      9  C   UNL     1      33.308 -22.281 -18.375  0.00  0.00    +0.169 C 
ATOM     10  C   UNL     1      35.718 -22.118 -18.361  0.00  0.00    +0.078 C 
ATOM     11  C   UNL     1      34.538 -22.625 -17.815  0.00  0.00    +0.175 C 
BRANCH   7  12
ATOM     12  O   UNL     1      36.831 -20.785 -19.983  0.00  0.00    -0.504 OA
ATOM     13  H   UNL     1      37.201 -19.993 -19.646  0.00  0.00    +0.292 HD
ENDBRANCH   7  12
BRANCH  11  14
ATOM     14  O   UNL     1      34.600 -23.453 -16.736  0.00  0.00    -0.468 OA
ATOM     15  C   UNL     1      35.451 -23.056 -15.663  0.00  0.00    +0.253 C 
ENDBRANCH  11  14
BRANCH   9  16
ATOM     16  O   UNL     1      32.148 -22.771 -17.852  0.00  0.00    -0.503 OA
ATOM     17  H   UNL     1      31.575 -23.285 -18.385  0.00  0.00    +0.292 HD
ENDBRANCH   9  16
ENDBRANCH   3   6
ENDBRANCH   1   4
BRANCH   1  18
ATOM     18  C   UNL     1      35.266 -16.809 -22.768  0.00  0.00    +0.037 C 
BRANCH  18  20
ATOM     19 CL   UNL     1      34.961 -17.182 -25.771  0.00  0.00    -0.079 Cl
ATOM     20  C   UNL     1      34.401 -15.819 -23.486  0.00  0.00    +0.001 C 
ATOM     21  C   UNL     1      33.789 -14.794 -22.764  0.00  0.00    +0.106 C 
ATOM     22  C   UNL     1      34.206 -15.915 -24.863  0.00  0.00    +0.088 C 
ATOM     23  C   UNL     1      32.981 -13.865 -23.421  0.00  0.00    +0.143 C 
ATOM     24  C   UNL     1      33.399 -14.986 -25.520  0.00  0.00    +0.147 C 
ATOM     25  C   UNL     1      32.786 -13.961 -24.798  0.00  0.00    +0.074 C 
BRANCH  23  26
ATOM     26  O   UNL     1      32.373 -12.856 -22.736  0.00  0.00    -0.505 OA
ATOM     27  H   UNL     1      31.483 -12.631 -22.926  0.00  0.00    +0.292 HD
ENDBRANCH  23  26
BRANCH  24  28
ATOM     28  O   UNL     1      33.188 -15.052 -26.866  0.00  0.00    -0.505 OA
ATOM     29  H   UNL     1      33.858 -15.386 -27.429  0.00  0.00    +0.292 HD
ENDBRANCH  24  28
BRANCH  21  31
ATOM     30  O   UNL     1      35.086 -14.533 -20.781  0.00  0.00    -0.245 OA
ATOM     31  C   UNL     1      33.986 -14.684 -21.323  0.00  0.00    +0.344 C 
BRANCH  31  32
ATOM     32  O   UNL     1      32.800 -14.767 -20.650  0.00  0.00    -0.441 OA
ATOM     33  C   UNL     1      32.199 -16.064 -20.563  0.00  0.00    +0.256 C 
ENDBRANCH  31  32
ENDBRANCH  21  31
ENDBRANCH  18  20
ENDBRANCH   1  18
TORSDOF 11
ENDMDL
MODEL 2
REMARK VINA RESULT:      -9.3      1.085      1.722
REMARK  Name = 11373270
REMARK  11 active torsions:
REMARK  status: ('A' for Active; 'I' for Inactive)
REMARK    1  A    between atoms: C_1  and  C_4
REMARK    2  A    between atoms: C_1  and  C_18
REMARK    3  A    between atoms: N_3  and  C_6
REMARK    4  A    between atoms: C_7  and  O_12
REMARK    5  A    between atoms: C_9  and  O_16
REMARK    6  A    between atoms: C_11  and  O_14
REMARK    7  A    between atoms: C_18  and  C_20
REMARK    8  A    between atoms: C_21  and  C_31
REMARK    9  A    between atoms: C_23  and  O_26
REMARK   10  A    between atoms: C_24  and  O_28
REMARK   11  A    between atoms: C_31  and  O_32
REMARK                            x       y       z     vdW  Elec       q    Type
REMARK                         _______ _______ _______ _____ _____    ______ ____
ROOT
ATOM      1  C   UNL     1      34.551 -18.578 -22.567  0.00  0.00    +0.090 C 
ENDROOT
BRANCH   1   4
ATOM      2  O   UNL     1      33.202 -18.848 -20.614  0.00  0.00    -0.275 OA
ATOM      3  N   UNL     1      35.047 -20.271 -20.922  0.00  0.00    -0.281 N 
ATOM      4  C   UNL     1      34.182 -19.233 -21.245  0.00  0.00    +0.227 C 
ATOM      5  H   UNL     1      35.769 -20.453 -21.565  0.00  0.00    +0.155 HD
BRANCH   3   6
ATOM      6  C   UNL     1      35.010 -21.100 -19.775  0.00  0.00    +0.088 C 
ATOM      7  C   UNL     1      33.845 -21.773 -19.444  0.00  0.00    +0.150 C 
ATOM      8  C   UNL     1      36.154 -21.218 -19.002  0.00  0.00    +0.057 C 
ATOM      9  C   UNL     1      36.132 -22.030 -17.868  0.00  0.00    +0.169 C 
ATOM     10  C   UNL     1      33.823 -22.585 -18.310  0.00  0.00    +0.078 C 
ATOM     11  C   UNL     1      34.967 -22.714 -17.522  0.00  0.00    +0.175 C 
BRANCH   7  12
ATOM     12  O   UNL     1      32.716 -21.660 -20.199  0.00  0.00    -0.504 OA
ATOM     13  H   UNL     1      32.094 -22.360 -20.221  0.00  0.00    +0.292 HD
ENDBRANCH   7  12
BRANCH  11  14
ATOM     14  O   UNL     1      34.933 -23.510 -16.418  0.00  0.00    -0.468 OA
ATOM     15  C   UNL     1      33.719 -23.531 -15.670  0.00  0.00    +0.253 C 
ENDBRANCH  11  14
BRANCH   9  16
ATOM     16  O   UNL     1      37.255 -22.147 -17.106  0.00  0.00    -0.503 OA
ATOM     17  H   UNL     1      38.100 -22.062 -17.501  0.00  0.00    +0.292 HD
ENDBRANCH   9  16
ENDBRANCH   3   6
ENDBRANCH   1   4
BRANCH   1  18
ATOM     18  C   UNL     1      35.094 -17.159 -22.360  0.00  0.00    +0.037 C 
BRANCH  18  20
ATOM     19 CL   UNL     1      34.868 -17.676 -25.350  0.00  0.00    -0.079 Cl
ATOM     20  C   UNL     1      34.387 -16.118 -23.173  0.00  0.00    +0.001 C 
ATOM     21  C   UNL     1      33.876 -14.984 -22.541  0.00  0.00    +0.106 C 
ATOM     22  C   UNL     1      34.238 -16.274 -24.551  0.00  0.00    +0.088 C 
ATOM     23  C   UNL     1      33.216 -14.008 -23.286  0.00  0.00    +0.143 C 
ATOM     24  C   UNL     1      33.578 -15.297 -25.297  0.00  0.00    +0.147 C 
ATOM     25  C   UNL     1      33.066 -14.164 -24.663  0.00  0.00    +0.074 C 
BRANCH  23  26
ATOM     26  O   UNL     1      32.708 -12.893 -22.689  0.00  0.00    -0.505 OA
ATOM     27  H   UNL     1      32.267 -12.245 -23.204  0.00  0.00    +0.292 HD
ENDBRANCH  23  26
BRANCH  24  28
ATOM     28  O   UNL     1      33.416 -15.420 -26.645  0.00  0.00    -0.505 OA
ATOM     29  H   UNL     1      32.889 -16.113 -26.993  0.00  0.00    +0.292 HD
ENDBRANCH  24  28
BRANCH  21  31
ATOM     30  O   UNL     1      35.113 -14.772 -20.514  0.00  0.00    -0.245 OA
ATOM     31  C   UNL     1      34.027 -14.811 -21.100  0.00  0.00    +0.344 C 
BRANCH  31  32
ATOM     32  O   UNL     1      32.813 -14.694 -20.482  0.00  0.00    -0.441 OA
ATOM     33  C   UNL     1      31.985 -15.863 -20.467  0.00  0.00    +0.256 C 
ENDBRANCH  31  32
ENDBRANCH  21  31
ENDBRANCH  18  20
ENDBRANCH   1  18
TORSDOF 11
ENDMDL
MODEL 3
REMARK VINA RESULT:      -9.2      3.828      9.895
REMARK  Name = 11373270
REMARK  11 active torsions:
REMARK  status: ('A' for Active; 'I' for Inactive)
REMARK    1  A    between atoms: C_1  and  C_4
REMARK    2  A    between atoms: C_1  and  C_18
REMARK    3  A    between atoms: N_3  and  C_6
REMARK    4  A    between atoms: C_7  and  O_12
REMARK    5  A    between atoms: C_9  and  O_16
REMARK    6  A    between atoms: C_11  and  O_14
REMARK    7  A    between atoms: C_18  and  C_20
REMARK    8  A    between atoms: C_21  and  C_31
REMARK    9  A    between atoms: C_23  and  O_26
REMARK   10  A    between atoms: C_24  and  O_28
REMARK   11  A    between atoms: C_31  and  O_32
REMARK                            x       y       z     vdW  Elec       q    Type
REMARK                         _______ _______ _______ _____ _____    ______ ____
ROOT
ATOM      1  C   UNL     1      33.521 -23.761 -17.615  0.00  0.00    +0.090 C 
ENDROOT
BRANCH   1   4
ATOM      2  O   UNL     1      34.216 -23.837 -19.899  0.00  0.00    -0.275 OA
ATOM      3  N   UNL     1      34.140 -21.757 -18.806  0.00  0.00    -0.281 N 
ATOM      4  C   UNL     1      34.011 -23.136 -18.912  0.00  0.00    +0.227 C 
ATOM      5  H   UNL     1      33.906 -21.364 -17.935  0.00  0.00    +0.155 HD
BRANCH   3   6
ATOM      6  C   UNL     1      34.567 -20.852 -19.806  0.00  0.00    +0.088 C 
ATOM      7  C   UNL     1      33.644 -20.290 -20.673  0.00  0.00    +0.150 C 
ATOM      8  C   UNL     1      35.916 -20.546 -19.894  0.00  0.00    +0.057 C 
ATOM      9  C   UNL     1      36.352 -19.655 -20.875  0.00  0.00    +0.169 C 
ATOM     10  C   UNL     1      34.080 -19.401 -21.655  0.00  0.00    +0.078 C 
ATOM     11  C   UNL     1      35.435 -19.082 -21.756  0.00  0.00    +0.175 C 
BRANCH   7  12
ATOM     12  O   UNL     1      32.316 -20.588 -20.592  0.00  0.00    -0.504 OA
ATOM     13  H   UNL     1      31.875 -20.541 -19.768  0.00  0.00    +0.292 HD
ENDBRANCH   7  12
BRANCH  11  14
ATOM     14  O   UNL     1      35.849 -18.212 -22.718  0.00  0.00    -0.468 OA
ATOM     15  C   UNL     1      35.125 -18.211 -23.946  0.00  0.00    +0.253 C 
ENDBRANCH  11  14
BRANCH   9  16
ATOM     16  O   UNL     1      37.678 -19.354 -20.965  0.00  0.00    -0.503 OA
ATOM     17  H   UNL     1      38.139 -19.040 -20.212  0.00  0.00    +0.292 HD
ENDBRANCH   9  16
ENDBRANCH   3   6
ENDBRANCH   1   4
BRANCH   1  18
ATOM     18  C   UNL     1      33.631 -22.781 -16.440  0.00  0.00    +0.037 C 
BRANCH  18  20
ATOM     19 CL   UNL     1      36.604 -22.220 -16.761  0.00  0.00    -0.079 Cl
ATOM     20  C   UNL     1      34.529 -23.256 -15.340  0.00  0.00    +0.001 C 
ATOM     21  C   UNL     1      33.978 -23.918 -14.242  0.00  0.00    +0.106 C 
ATOM     22  C   UNL     1      35.906 -23.040 -15.405  0.00  0.00    +0.088 C 
ATOM     23  C   UNL     1      34.804 -24.364 -13.211  0.00  0.00    +0.143 C 
ATOM     24  C   UNL     1      36.732 -23.487 -14.373  0.00  0.00    +0.147 C 
ATOM     25  C   UNL     1      36.180 -24.149 -13.276  0.00  0.00    +0.074 C 
BRANCH  23  26
ATOM     26  O   UNL     1      34.287 -25.013 -12.129  0.00  0.00    -0.505 OA
ATOM     27  H   UNL     1      34.455 -24.691 -11.265  0.00  0.00    +0.292 HD
ENDBRANCH  23  26
BRANCH  24  28
ATOM     28  O   UNL     1      38.081 -23.292 -14.407  0.00  0.00    -0.505 OA
ATOM     29  H   UNL     1      38.607 -23.763 -15.022  0.00  0.00    +0.292 HD
ENDBRANCH  24  28
BRANCH  21  31
ATOM     30  O   UNL     1      32.007 -25.260 -14.253  0.00  0.00    -0.245 OA
ATOM     31  C   UNL     1      32.540 -24.148 -14.164  0.00  0.00    +0.344 C 
BRANCH  31  32
ATOM     32  O   UNL     1      31.857 -22.979 -13.978  0.00  0.00    -0.441 OA
ATOM     33  C   UNL     1      30.576 -22.875 -14.610  0.00  0.00    +0.256 C 
ENDBRANCH  31  32
ENDBRANCH  21  31
ENDBRANCH  18  20
ENDBRANCH   1  18
TORSDOF 11
ENDMDL
MODEL 4
REMARK VINA RESULT:      -9.1      5.455      8.829
REMARK  Name = 11373270
REMARK  11 active torsions:
REMARK  status: ('A' for Active; 'I' for Inactive)
REMARK    1  A    between atoms: C_1  and  C_4
REMARK    2  A    between atoms: C_1  and  C_18
REMARK    3  A    between atoms: N_3  and  C_6
REMARK    4  A    between atoms: C_7  and  O_12
REMARK    5  A    between atoms: C_9  and  O_16
REMARK    6  A    between atoms: C_11  and  O_14
REMARK    7  A    between atoms: C_18  and  C_20
REMARK    8  A    between atoms: C_21  and  C_31
REMARK    9  A    between atoms: C_23  and  O_26
REMARK   10  A    between atoms: C_24  and  O_28
REMARK   11  A    between atoms: C_31  and  O_32
REMARK                            x       y       z     vdW  Elec       q    Type
REMARK                         _______ _______ _______ _____ _____    ______ ____
ROOT
ATOM      1  C   UNL     1      33.911  -9.875 -24.055  0.00  0.00    +0.090 C 
ENDROOT
BRANCH   1   4
ATOM      2  O   UNL     1      34.653 -11.209 -25.893  0.00  0.00    -0.275 OA
ATOM      3  N   UNL     1      33.693 -12.277 -24.031  0.00  0.00    -0.281 N 
ATOM      4  C   UNL     1      34.126 -11.192 -24.784  0.00  0.00    +0.227 C 
ATOM      5  H   UNL     1      33.314 -12.070 -23.147  0.00  0.00    +0.155 HD
BRANCH   3   6
ATOM      6  C   UNL     1      33.735 -13.645 -24.388  0.00  0.00    +0.088 C 
ATOM      7  C   UNL     1      34.357 -14.560 -23.553  0.00  0.00    +0.150 C 
ATOM      8  C   UNL     1      33.148 -14.042 -25.579  0.00  0.00    +0.057 C 
ATOM      9  C   UNL     1      33.182 -15.387 -25.944  0.00  0.00    +0.169 C 
ATOM     10  C   UNL     1      34.392 -15.906 -23.918  0.00  0.00    +0.078 C 
ATOM     11  C   UNL     1      33.804 -16.320 -25.114  0.00  0.00    +0.175 C 
BRANCH   7  12
ATOM     12  O   UNL     1      34.938 -14.177 -22.382  0.00  0.00    -0.504 OA
ATOM     13  H   UNL     1      35.423 -14.797 -21.874  0.00  0.00    +0.292 HD
ENDBRANCH   7  12
BRANCH  11  14
ATOM     14  O   UNL     1      33.844 -17.637 -25.460  0.00  0.00    -0.468 OA
ATOM     15  C   UNL     1      34.581 -18.509 -24.605  0.00  0.00    +0.253 C 
ENDBRANCH  11  14
BRANCH   9  16
ATOM     16  O   UNL     1      32.605 -15.779 -27.115  0.00  0.00    -0.503 OA
ATOM     17  H   UNL     1      31.984 -15.222 -27.540  0.00  0.00    +0.292 HD
ENDBRANCH   9  16
ENDBRANCH   3   6
ENDBRANCH   1   4
BRANCH   1  18
ATOM     18  C   UNL     1      32.443  -9.683 -23.658  0.00  0.00    +0.037 C 
BRANCH  18  20
ATOM     19 CL   UNL     1      32.124 -11.428 -21.187  0.00  0.00    -0.079 Cl
ATOM     20  C   UNL     1      32.258  -8.975 -22.351  0.00  0.00    +0.001 C 
ATOM     21  C   UNL     1      32.240  -7.580 -22.324  0.00  0.00    +0.106 C 
ATOM     22  C   UNL     1      32.105  -9.697 -21.168  0.00  0.00    +0.088 C 
ATOM     23  C   UNL     1      32.069  -6.908 -21.114  0.00  0.00    +0.143 C 
ATOM     24  C   UNL     1      31.934  -9.025 -19.957  0.00  0.00    +0.147 C 
ATOM     25  C   UNL     1      31.916  -7.630 -19.931  0.00  0.00    +0.074 C 
BRANCH  23  26
ATOM     26  O   UNL     1      32.049  -5.546 -21.064  0.00  0.00    -0.505 OA
ATOM     27  H   UNL     1      31.239  -5.085 -21.170  0.00  0.00    +0.292 HD
ENDBRANCH  23  26
BRANCH  24  28
ATOM     28  O   UNL     1      31.781  -9.701 -18.784  0.00  0.00    -0.505 OA
ATOM     29  H   UNL     1      32.382 -10.382 -18.553  0.00  0.00    +0.292 HD
ENDBRANCH  24  28
BRANCH  21  31
ATOM     30  O   UNL     1      33.490  -6.536 -24.066  0.00  0.00    -0.245 OA
ATOM     31  C   UNL     1      32.399  -6.814 -23.556  0.00  0.00    +0.344 C 
BRANCH  31  32
ATOM     32  O   UNL     1      31.189  -6.448 -24.075  0.00  0.00    -0.441 OA
ATOM     33  C   UNL     1      31.082  -5.110 -24.573  0.00  0.00    +0.256 C 
ENDBRANCH  31  32
ENDBRANCH  21  31
ENDBRANCH  18  20
ENDBRANCH   1  18
TORSDOF 11
ENDMDL
MODEL 5
REMARK VINA RESULT:      -8.9      3.864      9.970
REMARK  Name = 11373270
REMARK  11 active torsions:
REMARK  status: ('A' for Active; 'I' for Inactive)
REMARK    1  A    between atoms: C_1  and  C_4
REMARK    2  A    between atoms: C_1  and  C_18
REMARK    3  A    between atoms: N_3  and  C_6
REMARK    4  A    between atoms: C_7  and  O_12
REMARK    5  A    between atoms: C_9  and  O_16
REMARK    6  A    between atoms: C_11  and  O_14
REMARK    7  A    between atoms: C_18  and  C_20
REMARK    8  A    between atoms: C_21  and  C_31
REMARK    9  A    between atoms: C_23  and  O_26
REMARK   10  A    between atoms: C_24  and  O_28
REMARK   11  A    between atoms: C_31  and  O_32
REMARK                            x       y       z     vdW  Elec       q    Type
REMARK                         _______ _______ _______ _____ _____    ______ ____
ROOT
ATOM      1  C   UNL     1      33.484 -23.877 -18.074  0.00  0.00    +0.090 C 
ENDROOT
BRANCH   1   4
ATOM      2  O   UNL     1      34.344 -23.743 -20.298  0.00  0.00    -0.275 OA
ATOM      3  N   UNL     1      34.091 -21.761 -19.059  0.00  0.00    -0.281 N 
ATOM      4  C   UNL     1      34.035 -23.132 -19.279  0.00  0.00    +0.227 C 
ATOM      5  H   UNL     1      33.777 -21.448 -18.180  0.00  0.00    +0.155 HD
BRANCH   3   6
ATOM      6  C   UNL     1      34.546 -20.762 -19.952  0.00  0.00    +0.088 C 
ATOM      7  C   UNL     1      33.639 -20.068 -20.736  0.00  0.00    +0.150 C 
ATOM      8  C   UNL     1      35.906 -20.501 -20.022  0.00  0.00    +0.057 C 
ATOM      9  C   UNL     1      36.369 -19.519 -20.898  0.00  0.00    +0.169 C 
ATOM     10  C   UNL     1      34.102 -19.087 -21.613  0.00  0.00    +0.078 C 
ATOM     11  C   UNL     1      35.468 -18.812 -21.694  0.00  0.00    +0.175 C 
BRANCH   7  12
ATOM     12  O   UNL     1      32.301 -20.321 -20.674  0.00  0.00    -0.504 OA
ATOM     13  H   UNL     1      31.745 -20.077 -21.386  0.00  0.00    +0.292 HD
ENDBRANCH   7  12
BRANCH  11  14
ATOM     14  O   UNL     1      35.908 -17.852 -22.553  0.00  0.00    -0.468 OA
ATOM     15  C   UNL     1      35.251 -17.760 -23.815  0.00  0.00    +0.253 C 
ENDBRANCH  11  14
BRANCH   9  16
ATOM     16  O   UNL     1      37.705 -19.261 -20.968  0.00  0.00    -0.503 OA
ATOM     17  H   UNL     1      38.012 -18.377 -20.967  0.00  0.00    +0.292 HD
ENDBRANCH   9  16
ENDBRANCH   3   6
ENDBRANCH   1   4
BRANCH   1  18
ATOM     18  C   UNL     1      32.918 -22.912 -17.024  0.00  0.00    +0.037 C 
BRANCH  18  20
ATOM     19 CL   UNL     1      29.970 -23.508 -16.565  0.00  0.00    -0.079 Cl
ATOM     20  C   UNL     1      32.557 -23.572 -15.729  0.00  0.00    +0.001 C 
ATOM     21  C   UNL     1      33.563 -23.878 -14.812  0.00  0.00    +0.106 C 
ATOM     22  C   UNL     1      31.229 -23.882 -15.437  0.00  0.00    +0.088 C 
ATOM     23  C   UNL     1      33.241 -24.493 -13.603  0.00  0.00    +0.143 C 
ATOM     24  C   UNL     1      30.906 -24.497 -14.226  0.00  0.00    +0.147 C 
ATOM     25  C   UNL     1      31.913 -24.803 -13.310  0.00  0.00    +0.074 C 
BRANCH  23  26
ATOM     26  O   UNL     1      34.207 -24.801 -12.692  0.00  0.00    -0.505 OA
ATOM     27  H   UNL     1      34.983 -24.278 -12.638  0.00  0.00    +0.292 HD
ENDBRANCH  23  26
BRANCH  24  28
ATOM     28  O   UNL     1      29.618 -24.812 -13.910  0.00  0.00    -0.505 OA
ATOM     29  H   UNL     1      29.347 -25.708 -13.885  0.00  0.00    +0.292 HD
ENDBRANCH  24  28
BRANCH  21  31
ATOM     30  O   UNL     1      35.434 -22.421 -15.057  0.00  0.00    -0.245 OA
ATOM     31  C   UNL     1      34.956 -23.559 -15.109  0.00  0.00    +0.344 C 
BRANCH  31  32
ATOM     32  O   UNL     1      35.662 -24.679 -15.448  0.00  0.00    -0.441 OA
ATOM     33  C   UNL     1      37.033 -24.722 -15.037  0.00  0.00    +0.256 C 
ENDBRANCH  31  32
ENDBRANCH  21  31
ENDBRANCH  18  20
ENDBRANCH   1  18
TORSDOF 11
ENDMDL
MODEL 6
REMARK VINA RESULT:      -8.9      4.031     10.015
REMARK  Name = 11373270
REMARK  11 active torsions:
REMARK  status: ('A' for Active; 'I' for Inactive)
REMARK    1  A    between atoms: C_1  and  C_4
REMARK    2  A    between atoms: C_1  and  C_18
REMARK    3  A    between atoms: N_3  and  C_6
REMARK    4  A    between atoms: C_7  and  O_12
REMARK    5  A    between atoms: C_9  and  O_16
REMARK    6  A    between atoms: C_11  and  O_14
REMARK    7  A    between atoms: C_18  and  C_20
REMARK    8  A    between atoms: C_21  and  C_31
REMARK    9  A    between atoms: C_23  and  O_26
REMARK   10  A    between atoms: C_24  and  O_28
REMARK   11  A    between atoms: C_31  and  O_32
REMARK                            x       y       z     vdW  Elec       q    Type
REMARK                         _______ _______ _______ _____ _____    ______ ____
ROOT
ATOM      1  C   UNL     1      32.947 -23.473 -17.904  0.00  0.00    +0.090 C 
ENDROOT
BRANCH   1   4
ATOM      2  O   UNL     1      35.144 -22.560 -18.109  0.00  0.00    -0.275 OA
ATOM      3  N   UNL     1      33.423 -21.684 -19.450  0.00  0.00    -0.281 N 
ATOM      4  C   UNL     1      33.976 -22.516 -18.484  0.00  0.00    +0.227 C 
ATOM      5  H   UNL     1      32.465 -21.809 -19.636  0.00  0.00    +0.155 HD
BRANCH   3   6
ATOM      6  C   UNL     1      34.078 -20.676 -20.197  0.00  0.00    +0.088 C 
ATOM      7  C   UNL     1      33.342 -19.821 -21.001  0.00  0.00    +0.150 C 
ATOM      8  C   UNL     1      35.457 -20.569 -20.105  0.00  0.00    +0.057 C 
ATOM      9  C   UNL     1      36.116 -19.581 -20.837  0.00  0.00    +0.169 C 
ATOM     10  C   UNL     1      34.001 -18.833 -21.733  0.00  0.00    +0.078 C 
ATOM     11  C   UNL     1      35.389 -18.713 -21.651  0.00  0.00    +0.175 C 
BRANCH   7  12
ATOM     12  O   UNL     1      31.986 -19.922 -21.097  0.00  0.00    -0.504 OA
ATOM     13  H   UNL     1      31.479 -19.181 -21.366  0.00  0.00    +0.292 HD
ENDBRANCH   7  12
BRANCH  11  14
ATOM     14  O   UNL     1      36.021 -17.745 -22.370  0.00  0.00    -0.468 OA
ATOM     15  C   UNL     1      35.248 -16.607 -22.744  0.00  0.00    +0.253 C 
ENDBRANCH  11  14
BRANCH   9  16
ATOM     16  O   UNL     1      37.472 -19.475 -20.749  0.00  0.00    -0.503 OA
ATOM     17  H   UNL     1      37.857 -18.731 -20.332  0.00  0.00    +0.292 HD
ENDBRANCH   9  16
ENDBRANCH   3   6
ENDBRANCH   1   4
BRANCH   1  18
ATOM     18  C   UNL     1      32.030 -22.771 -16.895  0.00  0.00    +0.037 C 
BRANCH  18  20
ATOM     19 CL   UNL     1      34.358 -23.299 -15.009  0.00  0.00    -0.079 Cl
ATOM     20  C   UNL     1      31.737 -23.588 -15.674  0.00  0.00    +0.001 C 
ATOM     21  C   UNL     1      30.442 -24.060 -15.460  0.00  0.00    +0.106 C 
ATOM     22  C   UNL     1      32.746 -23.878 -14.756  0.00  0.00    +0.088 C 
ATOM     23  C   UNL     1      30.155 -24.821 -14.327  0.00  0.00    +0.143 C 
ATOM     24  C   UNL     1      32.459 -24.640 -13.622  0.00  0.00    +0.147 C 
ATOM     25  C   UNL     1      31.164 -25.111 -13.409  0.00  0.00    +0.074 C 
BRANCH  23  26
ATOM     26  O   UNL     1      28.898 -25.293 -14.097  0.00  0.00    -0.505 OA
ATOM     27  H   UNL     1      28.538 -25.958 -14.651  0.00  0.00    +0.292 HD
ENDBRANCH  23  26
BRANCH  24  28
ATOM     28  O   UNL     1      33.423 -24.941 -12.706  0.00  0.00    -0.505 OA
ATOM     29  H   UNL     1      33.913 -24.254 -12.298  0.00  0.00    +0.292 HD
ENDBRANCH  24  28
BRANCH  21  31
ATOM     30  O   UNL     1      28.925 -24.576 -17.225  0.00  0.00    -0.245 OA
ATOM     31  C   UNL     1      29.379 -23.763 -16.415  0.00  0.00    +0.344 C 
BRANCH  31  32
ATOM     32  O   UNL     1      28.949 -22.471 -16.295  0.00  0.00    -0.441 OA
ATOM     33  C   UNL     1      27.595 -22.281 -15.870  0.00  0.00    +0.256 C 
ENDBRANCH  31  32
ENDBRANCH  21  31
ENDBRANCH  18  20
ENDBRANCH   1  18
TORSDOF 11
ENDMDL
MODEL 7
REMARK VINA RESULT:      -8.9      2.009      3.458
REMARK  Name = 11373270
REMARK  11 active torsions:
REMARK  status: ('A' for Active; 'I' for Inactive)
REMARK    1  A    between atoms: C_1  and  C_4
REMARK    2  A    between atoms: C_1  and  C_18
REMARK    3  A    between atoms: N_3  and  C_6
REMARK    4  A    between atoms: C_7  and  O_12
REMARK    5  A    between atoms: C_9  and  O_16
REMARK    6  A    between atoms: C_11  and  O_14
REMARK    7  A    between atoms: C_18  and  C_20
REMARK    8  A    between atoms: C_21  and  C_31
REMARK    9  A    between atoms: C_23  and  O_26
REMARK   10  A    between atoms: C_24  and  O_28
REMARK   11  A    between atoms: C_31  and  O_32
REMARK                            x       y       z     vdW  Elec       q    Type
REMARK                         _______ _______ _______ _____ _____    ______ ____
ROOT
ATOM      1  C   UNL     1      34.952 -15.901 -22.738  0.00  0.00    +0.090 C 
ENDROOT
BRANCH   1   4
ATOM      2  O   UNL     1      34.710 -16.382 -20.411  0.00  0.00    -0.275 OA
ATOM      3  N   UNL     1      35.074 -18.161 -21.904  0.00  0.00    -0.281 N 
ATOM      4  C   UNL     1      34.906 -16.831 -21.537  0.00  0.00    +0.227 C 
ATOM      5  H   UNL     1      35.198 -18.335 -22.865  0.00  0.00    +0.155 HD
BRANCH   3   6
ATOM      6  C   UNL     1      35.087 -19.294 -21.058  0.00  0.00    +0.088 C 
ATOM      7  C   UNL     1      36.290 -19.786 -20.576  0.00  0.00    +0.150 C 
ATOM      8  C   UNL     1      33.881 -19.893 -20.728  0.00  0.00    +0.057 C 
ATOM      9  C   UNL     1      33.879 -21.012 -19.895  0.00  0.00    +0.169 C 
ATOM     10  C   UNL     1      36.287 -20.905 -19.744  0.00  0.00    +0.078 C 
ATOM     11  C   UNL     1      35.081 -21.519 -19.402  0.00  0.00    +0.175 C 
BRANCH   7  12
ATOM     12  O   UNL     1      37.479 -19.203 -20.898  0.00  0.00    -0.504 OA
ATOM     13  H   UNL     1      38.168 -19.718 -21.270  0.00  0.00    +0.292 HD
ENDBRANCH   7  12
BRANCH  11  14
ATOM     14  O   UNL     1      35.091 -22.610 -18.588  0.00  0.00    -0.468 OA
ATOM     15  C   UNL     1      35.608 -22.432 -17.271  0.00  0.00    +0.253 C 
ENDBRANCH  11  14
BRANCH   9  16
ATOM     16  O   UNL     1      32.694 -21.602 -19.570  0.00  0.00    -0.503 OA
ATOM     17  H   UNL     1      32.417 -22.375 -20.021  0.00  0.00    +0.292 HD
ENDBRANCH   9  16
ENDBRANCH   3   6
ENDBRANCH   1   4
BRANCH   1  18
ATOM     18  C   UNL     1      33.545 -15.479 -23.178  0.00  0.00    +0.037 C 
BRANCH  18  20
ATOM     19 CL   UNL     1      33.620 -12.772 -21.793  0.00  0.00    -0.079 Cl
ATOM     20  C   UNL     1      33.525 -14.269 -24.061  0.00  0.00    +0.001 C 
ATOM     21  C   UNL     1      33.474 -14.432 -25.446  0.00  0.00    +0.106 C 
ATOM     22  C   UNL     1      33.557 -12.989 -23.510  0.00  0.00    +0.088 C 
ATOM     23  C   UNL     1      33.455 -13.314 -26.279  0.00  0.00    +0.143 C 
ATOM     24  C   UNL     1      33.538 -11.870 -24.344  0.00  0.00    +0.147 C 
ATOM     25  C   UNL     1      33.488 -12.033 -25.728  0.00  0.00    +0.074 C 
BRANCH  23  26
ATOM     26  O   UNL     1      33.406 -13.449 -27.634  0.00  0.00    -0.505 OA
ATOM     27  H   UNL     1      34.111 -13.129 -28.163  0.00  0.00    +0.292 HD
ENDBRANCH  23  26
BRANCH  24  28
ATOM     28  O   UNL     1      33.569 -10.605 -23.837  0.00  0.00    -0.505 OA
ATOM     29  H   UNL     1      34.338 -10.080 -23.932  0.00  0.00    +0.292 HD
ENDBRANCH  24  28
BRANCH  21  31
ATOM     30  O   UNL     1      32.460 -16.249 -26.610  0.00  0.00    -0.245 OA
ATOM     31  C   UNL     1      33.440 -15.768 -26.032  0.00  0.00    +0.344 C 
BRANCH  31  32
ATOM     32  O   UNL     1      34.631 -16.417 -25.863  0.00  0.00    -0.441 OA
ATOM     33  C   UNL     1      34.563 -17.798 -25.494  0.00  0.00    +0.256 C 
ENDBRANCH  31  32
ENDBRANCH  21  31
ENDBRANCH  18  20
ENDBRANCH   1  18
TORSDOF 11
ENDMDL
MODEL 8
REMARK VINA RESULT:      -8.9      1.571      2.557
REMARK  Name = 11373270
REMARK  11 active torsions:
REMARK  status: ('A' for Active; 'I' for Inactive)
REMARK    1  A    between atoms: C_1  and  C_4
REMARK    2  A    between atoms: C_1  and  C_18
REMARK    3  A    between atoms: N_3  and  C_6
REMARK    4  A    between atoms: C_7  and  O_12
REMARK    5  A    between atoms: C_9  and  O_16
REMARK    6  A    between atoms: C_11  and  O_14
REMARK    7  A    between atoms: C_18  and  C_20
REMARK    8  A    between atoms: C_21  and  C_31
REMARK    9  A    between atoms: C_23  and  O_26
REMARK   10  A    between atoms: C_24  and  O_28
REMARK   11  A    between atoms: C_31  and  O_32
REMARK                            x       y       z     vdW  Elec       q    Type
REMARK                         _______ _______ _______ _____ _____    ______ ____
ROOT
ATOM      1  C   UNL     1      35.454 -19.690 -21.689  0.00  0.00    +0.090 C 
ENDROOT
BRANCH   1   4
ATOM      2  O   UNL     1      36.844 -19.614 -19.749  0.00  0.00    -0.275 OA
ATOM      3  N   UNL     1      35.087 -21.174 -19.824  0.00  0.00    -0.281 N 
ATOM      4  C   UNL     1      35.894 -20.153 -20.310  0.00  0.00    +0.227 C 
ATOM      5  H   UNL     1      34.352 -21.465 -20.411  0.00  0.00    +0.155 HD
BRANCH   3   6
ATOM      6  C   UNL     1      35.198 -21.845 -18.584  0.00  0.00    +0.088 C 
ATOM      7  C   UNL     1      34.113 -22.537 -18.070  0.00  0.00    +0.150 C 
ATOM      8  C   UNL     1      36.405 -21.792 -17.903  0.00  0.00    +0.057 C 
ATOM      9  C   UNL     1      36.529 -22.448 -16.679  0.00  0.00    +0.169 C 
ATOM     10  C   UNL     1      34.236 -23.192 -16.845  0.00  0.00    +0.078 C 
ATOM     11  C   UNL     1      35.445 -23.148 -16.149  0.00  0.00    +0.175 C 
BRANCH   7  12
ATOM     12  O   UNL     1      32.923 -22.591 -18.733  0.00  0.00    -0.504 OA
ATOM     13  H   UNL     1      32.779 -23.251 -19.382  0.00  0.00    +0.292 HD
ENDBRANCH   7  12
BRANCH  11  14
ATOM     14  O   UNL     1      35.554 -23.792 -14.954  0.00  0.00    -0.468 OA
ATOM     15  C   UNL     1      35.550 -25.218 -14.984  0.00  0.00    +0.253 C 
ENDBRANCH  11  14
BRANCH   9  16
ATOM     16  O   UNL     1      37.714 -22.396 -16.008  0.00  0.00    -0.503 OA
ATOM     17  H   UNL     1      38.200 -21.597 -15.977  0.00  0.00    +0.292 HD
ENDBRANCH   9  16
ENDBRANCH   3   6
ENDBRANCH   1   4
BRANCH   1  18
ATOM     18  C   UNL     1      34.344 -18.634 -21.602  0.00  0.00    +0.037 C 
BRANCH  18  20
ATOM     19 CL   UNL     1      34.553 -19.422 -24.533  0.00  0.00    -0.079 Cl
ATOM     20  C   UNL     1      34.492 -17.520 -22.592  0.00  0.00    +0.001 C 
ATOM     21  C   UNL     1      34.526 -16.201 -22.138  0.00  0.00    +0.106 C 
ATOM     22  C   UNL     1      34.594 -17.791 -23.956  0.00  0.00    +0.088 C 
ATOM     23  C   UNL     1      34.662 -15.153 -23.048  0.00  0.00    +0.143 C 
ATOM     24  C   UNL     1      34.730 -16.743 -24.867  0.00  0.00    +0.147 C 
ATOM     25  C   UNL     1      34.764 -15.424 -24.412  0.00  0.00    +0.074 C 
BRANCH  23  26
ATOM     26  O   UNL     1      34.698 -13.858 -22.628  0.00  0.00    -0.505 OA
ATOM     27  H   UNL     1      34.702 -13.161 -23.256  0.00  0.00    +0.292 HD
ENDBRANCH  23  26
BRANCH  24  28
ATOM     28  O   UNL     1      34.833 -16.974 -26.207  0.00  0.00    -0.505 OA
ATOM     29  H   UNL     1      34.934 -16.256 -26.800  0.00  0.00    +0.292 HD
ENDBRANCH  24  28
BRANCH  21  31
ATOM     30  O   UNL     1      35.235 -16.278 -19.863  0.00  0.00    -0.245 OA
ATOM     31  C   UNL     1      34.420 -15.906 -20.713  0.00  0.00    +0.344 C 
BRANCH  31  32
ATOM     32  O   UNL     1      33.305 -15.164 -20.439  0.00  0.00    -0.441 OA
ATOM     33  C   UNL     1      32.044 -15.833 -20.553  0.00  0.00    +0.256 C 
ENDBRANCH  31  32
ENDBRANCH  21  31
ENDBRANCH  18  20
ENDBRANCH   1  18
TORSDOF 11
ENDMDL
MODEL 9
REMARK VINA RESULT:      -8.9      4.458      7.584
REMARK  Name = 11373270
REMARK  11 active torsions:
REMARK  status: ('A' for Active; 'I' for Inactive)
REMARK    1  A    between atoms: C_1  and  C_4
REMARK    2  A    between atoms: C_1  and  C_18
REMARK    3  A    between atoms: N_3  and  C_6
REMARK    4  A    between atoms: C_7  and  O_12
REMARK    5  A    between atoms: C_9  and  O_16
REMARK    6  A    between atoms: C_11  and  O_14
REMARK    7  A    between atoms: C_18  and  C_20
REMARK    8  A    between atoms: C_21  and  C_31
REMARK    9  A    between atoms: C_23  and  O_26
REMARK   10  A    between atoms: C_24  and  O_28
REMARK   11  A    between atoms: C_31  and  O_32
REMARK                            x       y       z     vdW  Elec       q    Type
REMARK                         _______ _______ _______ _____ _____    ______ ____
ROOT
ATOM      1  C   UNL     1      33.751 -10.939 -23.830  0.00  0.00    +0.090 C 
ENDROOT
BRANCH   1   4
ATOM      2  O   UNL     1      33.489 -12.735 -25.383  0.00  0.00    -0.275 OA
ATOM      3  N   UNL     1      34.198 -13.222 -23.195  0.00  0.00    -0.281 N 
ATOM      4  C   UNL     1      33.783 -12.403 -24.237  0.00  0.00    +0.227 C 
ATOM      5  H   UNL     1      34.415 -12.772 -22.347  0.00  0.00    +0.155 HD
BRANCH   3   6
ATOM      6  C   UNL     1      34.348 -14.629 -23.210  0.00  0.00    +0.088 C 
ATOM      7  C   UNL     1      34.553 -15.317 -22.025  0.00  0.00    +0.150 C 
ATOM      8  C   UNL     1      34.285 -15.292 -24.425  0.00  0.00    +0.057 C 
ATOM      9  C   UNL     1      34.430 -16.679 -24.456  0.00  0.00    +0.169 C 
ATOM     10  C   UNL     1      34.699 -16.704 -22.056  0.00  0.00    +0.078 C 
ATOM     11  C   UNL     1      34.638 -17.386 -23.272  0.00  0.00    +0.175 C 
BRANCH   7  12
ATOM     12  O   UNL     1      34.617 -14.671 -20.827  0.00  0.00    -0.504 OA
ATOM     13  H   UNL     1      34.077 -13.922 -20.669  0.00  0.00    +0.292 HD
ENDBRANCH   7  12
BRANCH  11  14
ATOM     14  O   UNL     1      34.782 -18.740 -23.289  0.00  0.00    -0.468 OA
ATOM     15  C   UNL     1      34.559 -19.431 -22.061  0.00  0.00    +0.253 C 
ENDBRANCH  11  14
BRANCH   9  16
ATOM     16  O   UNL     1      34.370 -17.333 -25.650  0.00  0.00    -0.503 OA
ATOM     17  H   UNL     1      33.539 -17.524 -26.038  0.00  0.00    +0.292 HD
ENDBRANCH   9  16
ENDBRANCH   3   6
ENDBRANCH   1   4
BRANCH   1  18
ATOM     18  C   UNL     1      32.324 -10.473 -23.513  0.00  0.00    +0.037 C 
BRANCH  18  20
ATOM     19 CL   UNL     1      31.608 -12.441 -21.306  0.00  0.00    -0.079 Cl
ATOM     20  C   UNL     1      32.164  -9.911 -22.134  0.00  0.00    +0.001 C 
ATOM     21  C   UNL     1      32.347  -8.544 -21.926  0.00  0.00    +0.106 C 
ATOM     22  C   UNL     1      31.837 -10.742 -21.063  0.00  0.00    +0.088 C 
ATOM     23  C   UNL     1      32.201  -8.007 -20.647  0.00  0.00    +0.143 C 
ATOM     24  C   UNL     1      31.692 -10.205 -19.783  0.00  0.00    +0.147 C 
ATOM     25  C   UNL     1      31.874  -8.837 -19.576  0.00  0.00    +0.074 C 
BRANCH  23  26
ATOM     26  O   UNL     1      32.375  -6.675 -20.421  0.00  0.00    -0.505 OA
ATOM     27  H   UNL     1      31.697  -6.178 -20.005  0.00  0.00    +0.292 HD
ENDBRANCH  23  26
BRANCH  24  28
ATOM     28  O   UNL     1      31.372 -10.990 -18.715  0.00  0.00    -0.505 OA
ATOM     29  H   UNL     1      30.647 -11.580 -18.767  0.00  0.00    +0.292 HD
ENDBRANCH  24  28
BRANCH  21  31
ATOM     30  O   UNL     1      31.875  -7.240 -23.866  0.00  0.00    -0.245 OA
ATOM     31  C   UNL     1      32.689  -7.666 -23.041  0.00  0.00    +0.344 C 
BRANCH  31  32
ATOM     32  O   UNL     1      34.024  -7.372 -23.051  0.00  0.00    -0.441 OA
ATOM     33  C   UNL     1      34.594  -7.021 -24.317  0.00  0.00    +0.256 C 
ENDBRANCH  31  32
ENDBRANCH  21  31
ENDBRANCH  18  20
ENDBRANCH   1  18
TORSDOF 11
ENDMDL
