MODEL 1
REMARK VINA RESULT:      -8.3      0.000      0.000
REMARK  Name = 46937127
REMARK  2 active torsions:
REMARK  status: ('A' for Active; 'I' for Inactive)
REMARK    1  A    between atoms: C_3  and  N_16
REMARK    2  A    between atoms: C_8  and  C_15
REMARK                            x       y       z     vdW  Elec       q    Type
REMARK                         _______ _______ _______ _____ _____    ______ ____
ROOT
ATOM      1  C   UNL     1      36.131 -18.657 -21.540  0.00  0.00    +0.002 C 
ATOM      2  C   UNL     1      34.085 -18.009 -22.299  0.00  0.00    +0.002 C 
ATOM      3  C   UNL     1      35.313 -17.341 -21.629  0.00  0.00    -0.057 C 
ATOM      4  C   UNL     1      36.160 -19.056 -23.035  0.00  0.00    +0.003 C 
ATOM      5  C   UNL     1      34.756 -18.613 -23.555  0.00  0.00    +0.003 C 
ATOM      6  C   UNL     1      35.116 -19.561 -20.878  0.00  0.00    -0.025 C 
ATOM      7  C   UNL     1      33.851 -19.162 -21.346  0.00  0.00    -0.029 C 
ATOM      8  C   UNL     1      35.264 -20.617 -20.005  0.00  0.00    +0.067 C 
ATOM      9  C   UNL     1      32.698 -19.806 -20.955  0.00  0.00    -0.005 C 
ATOM     10  C   UNL     1      34.101 -21.274 -19.593  0.00  0.00    +0.004 C 
ATOM     11  C   UNL     1      32.833 -20.873 -20.063  0.00  0.00    -0.000 C 
ENDROOT
BRANCH   8  15
ATOM     12  F   UNL     1      36.523 -22.026 -18.562  0.00  0.00    -0.166 F 
ATOM     13  F   UNL     1      37.404 -21.564 -20.494  0.00  0.00    -0.166 F 
ATOM     14  F   UNL     1      37.333 -20.045 -18.949  0.00  0.00    -0.166 F 
ATOM     15  C   UNL     1      36.599 -21.051 -19.517  0.00  0.00    +0.418 C 
ENDBRANCH   8  15
BRANCH   3  16
ATOM     16  N   UNL     1      35.041 -16.703 -20.347  0.00  0.00    +0.382 N 
ATOM     17  H   UNL     1      35.430 -17.271 -19.594  0.00  0.00    -0.089 HD
ATOM     18  H   UNL     1      34.034 -16.612 -20.220  0.00  0.00    -0.089 HD
ATOM     19  H   UNL     1      35.471 -15.777 -20.330  0.00  0.00    -0.089 HD
ENDBRANCH   3  16
TORSDOF 2
ENDMDL
MODEL 2
REMARK VINA RESULT:      -7.9      3.628      5.358
REMARK  Name = 46937127
REMARK  2 active torsions:
REMARK  status: ('A' for Active; 'I' for Inactive)
REMARK    1  A    between atoms: C_3  and  N_16
REMARK    2  A    between atoms: C_8  and  C_15
REMARK                            x       y       z     vdW  Elec       q    Type
REMARK                         _______ _______ _______ _____ _____    ______ ____
ROOT
ATOM      1  C   UNL     1      35.005 -17.594 -21.329  0.00  0.00    +0.002 C 
ATOM      2  C   UNL     1      35.114 -19.406 -22.701  0.00  0.00    +0.002 C 
ATOM      3  C   UNL     1      36.031 -18.709 -21.664  0.00  0.00    -0.057 C 
ATOM      4  C   UNL     1      33.806 -18.460 -20.874  0.00  0.00    +0.003 C 
ATOM      5  C   UNL     1      33.881 -19.703 -21.816  0.00  0.00    +0.003 C 
ATOM      6  C   UNL     1      34.673 -17.105 -22.721  0.00  0.00    -0.025 C 
ATOM      7  C   UNL     1      34.740 -18.225 -23.570  0.00  0.00    -0.029 C 
ATOM      8  C   UNL     1      34.326 -15.859 -23.194  0.00  0.00    +0.067 C 
ATOM      9  C   UNL     1      34.462 -18.130 -24.915  0.00  0.00    -0.005 C 
ATOM     10  C   UNL     1      34.050 -15.747 -24.560  0.00  0.00    +0.004 C 
ATOM     11  C   UNL     1      34.117 -16.870 -25.410  0.00  0.00    -0.000 C 
ENDROOT
BRANCH   8  15
ATOM     12  F   UNL     1      33.070 -14.624 -21.597  0.00  0.00    -0.166 F 
ATOM     13  F   UNL     1      35.230 -14.622 -21.357  0.00  0.00    -0.166 F 
ATOM     14  F   UNL     1      34.320 -13.478 -22.959  0.00  0.00    -0.166 F 
ATOM     15  C   UNL     1      34.241 -14.675 -22.299  0.00  0.00    +0.418 C 
ENDBRANCH   8  15
BRANCH   3  16
ATOM     16  N   UNL     1      37.302 -18.230 -22.193  0.00  0.00    +0.382 N 
ATOM     17  H   UNL     1      38.029 -18.923 -22.012  0.00  0.00    -0.089 HD
ATOM     18  H   UNL     1      37.550 -17.351 -21.739  0.00  0.00    -0.089 HD
ATOM     19  H   UNL     1      37.217 -18.081 -23.199  0.00  0.00    -0.089 HD
ENDBRANCH   3  16
TORSDOF 2
ENDMDL
MODEL 3
REMARK VINA RESULT:      -7.8      2.309      3.367
REMARK  Name = 46937127
REMARK  2 active torsions:
REMARK  status: ('A' for Active; 'I' for Inactive)
REMARK    1  A    between atoms: C_3  and  N_16
REMARK    2  A    between atoms: C_8  and  C_15
REMARK                            x       y       z     vdW  Elec       q    Type
REMARK                         _______ _______ _______ _____ _____    ______ ____
ROOT
ATOM      1  C   UNL     1      33.753 -18.676 -21.740  0.00  0.00    +0.002 C 
ATOM      2  C   UNL     1      35.846 -17.875 -22.138  0.00  0.00    +0.002 C 
ATOM      3  C   UNL     1      34.630 -18.347 -22.977  0.00  0.00    -0.057 C 
ATOM      4  C   UNL     1      33.747 -17.296 -21.040  0.00  0.00    +0.003 C 
ATOM      5  C   UNL     1      35.183 -16.747 -21.313  0.00  0.00    +0.003 C 
ATOM      6  C   UNL     1      34.707 -19.547 -20.955  0.00  0.00    -0.025 C 
ATOM      7  C   UNL     1      36.002 -19.052 -21.201  0.00  0.00    -0.029 C 
ATOM      8  C   UNL     1      34.489 -20.614 -20.111  0.00  0.00    +0.067 C 
ATOM      9  C   UNL     1      37.113 -19.610 -20.609  0.00  0.00    -0.005 C 
ATOM     10  C   UNL     1      35.611 -21.194 -19.510  0.00  0.00    +0.004 C 
ATOM     11  C   UNL     1      36.907 -20.697 -19.756  0.00  0.00    -0.000 C 
ENDROOT
BRANCH   8  15
ATOM     12  F   UNL     1      33.126 -22.232 -19.025  0.00  0.00    -0.166 F 
ATOM     13  F   UNL     1      32.303 -20.229 -19.222  0.00  0.00    -0.166 F 
ATOM     14  F   UNL     1      32.444 -21.515 -20.962  0.00  0.00    -0.166 F 
ATOM     15  C   UNL     1      33.123 -21.132 -19.838  0.00  0.00    +0.418 C 
ENDBRANCH   8  15
BRANCH   3  16
ATOM     16  N   UNL     1      34.894 -19.479 -23.857  0.00  0.00    +0.382 N 
ATOM     17  H   UNL     1      34.177 -20.190 -23.722  0.00  0.00    -0.089 HD
ATOM     18  H   UNL     1      35.809 -19.872 -23.638  0.00  0.00    -0.089 HD
ATOM     19  H   UNL     1      34.883 -19.164 -24.827  0.00  0.00    -0.089 HD
ENDBRANCH   3  16
TORSDOF 2
ENDMDL
MODEL 4
REMARK VINA RESULT:      -7.5     10.181     11.753
REMARK  Name = 46937127
REMARK  2 active torsions:
REMARK  status: ('A' for Active; 'I' for Inactive)
REMARK    1  A    between atoms: C_3  and  N_16
REMARK    2  A    between atoms: C_8  and  C_15
REMARK                            x       y       z     vdW  Elec       q    Type
REMARK                         _______ _______ _______ _____ _____    ______ ____
ROOT
ATOM      1  C   UNL     1      32.156  -8.461 -23.620  0.00  0.00    +0.002 C 
ATOM      2  C   UNL     1      32.578  -6.368 -22.832  0.00  0.00    +0.002 C 
ATOM      3  C   UNL     1      33.240  -7.368 -23.815  0.00  0.00    -0.057 C 
ATOM      4  C   UNL     1      30.894  -7.663 -24.028  0.00  0.00    +0.003 C 
ATOM      5  C   UNL     1      31.183  -6.229 -23.486  0.00  0.00    +0.003 C 
ATOM      6  C   UNL     1      32.132  -8.553 -22.111  0.00  0.00    -0.025 C 
ATOM      7  C   UNL     1      32.393  -7.259 -21.623  0.00  0.00    -0.029 C 
ATOM      8  C   UNL     1      31.887  -9.610 -21.262  0.00  0.00    +0.067 C 
ATOM      9  C   UNL     1      32.415  -6.987 -20.273  0.00  0.00    -0.005 C 
ATOM     10  C   UNL     1      31.915  -9.348 -19.889  0.00  0.00    +0.004 C 
ATOM     11  C   UNL     1      32.176  -8.052 -19.401  0.00  0.00    -0.000 C 
ENDROOT
BRANCH   8  15
ATOM     12  F   UNL     1      30.406 -11.052 -22.438  0.00  0.00    -0.166 F 
ATOM     13  F   UNL     1      32.534 -11.447 -22.651  0.00  0.00    -0.166 F 
ATOM     14  F   UNL     1      31.526 -11.927 -20.792  0.00  0.00    -0.166 F 
ATOM     15  C   UNL     1      31.598 -10.976 -21.773  0.00  0.00    +0.418 C 
ENDBRANCH   8  15
BRANCH   3  16
ATOM     16  N   UNL     1      34.592  -7.778 -23.455  0.00  0.00    +0.382 N 
ATOM     17  H   UNL     1      34.640  -7.951 -22.452  0.00  0.00    -0.089 HD
ATOM     18  H   UNL     1      35.248  -7.038 -23.705  0.00  0.00    -0.089 HD
ATOM     19  H   UNL     1      34.834  -8.631 -23.960  0.00  0.00    -0.089 HD
ENDBRANCH   3  16
TORSDOF 2
ENDMDL
MODEL 5
REMARK VINA RESULT:      -7.5      3.873      5.380
REMARK  Name = 46937127
REMARK  2 active torsions:
REMARK  status: ('A' for Active; 'I' for Inactive)
REMARK    1  A    between atoms: C_3  and  N_16
REMARK    2  A    between atoms: C_8  and  C_15
REMARK                            x       y       z     vdW  Elec       q    Type
REMARK                         _______ _______ _______ _____ _____    ______ ____
ROOT
ATOM      1  C   UNL     1      35.060 -18.847 -23.055  0.00  0.00    +0.002 C 
ATOM      2  C   UNL     1      35.347 -18.505 -20.823  0.00  0.00    +0.002 C 
ATOM      3  C   UNL     1      34.567 -19.491 -21.731  0.00  0.00    -0.057 C 
ATOM      4  C   UNL     1      36.589 -18.983 -22.865  0.00  0.00    +0.003 C 
ATOM      5  C   UNL     1      36.787 -18.747 -21.335  0.00  0.00    +0.003 C 
ATOM      6  C   UNL     1      34.725 -17.397 -22.791  0.00  0.00    -0.025 C 
ATOM      7  C   UNL     1      34.903 -17.184 -21.411  0.00  0.00    -0.029 C 
ATOM      8  C   UNL     1      34.344 -16.377 -23.636  0.00  0.00    +0.067 C 
ATOM      9  C   UNL     1      34.705 -15.948 -20.838  0.00  0.00    -0.005 C 
ATOM     10  C   UNL     1      34.132 -15.118 -23.066  0.00  0.00    +0.004 C 
ATOM     11  C   UNL     1      34.311 -14.907 -21.683  0.00  0.00    -0.000 C 
ENDROOT
BRANCH   8  15
ATOM     12  F   UNL     1      35.355 -16.658 -25.770  0.00  0.00    -0.166 F 
ATOM     13  F   UNL     1      33.510 -17.750 -25.408  0.00  0.00    -0.166 F 
ATOM     14  F   UNL     1      33.453 -15.605 -25.717  0.00  0.00    -0.166 F 
ATOM     15  C   UNL     1      34.167 -16.593 -25.096  0.00  0.00    +0.418 C 
ENDBRANCH   8  15
BRANCH   3  16
ATOM     16  N   UNL     1      33.121 -19.480 -21.548  0.00  0.00    +0.382 N 
ATOM     17  H   UNL     1      32.881 -20.002 -20.705  0.00  0.00    -0.089 HD
ATOM     18  H   UNL     1      32.673 -19.912 -22.355  0.00  0.00    -0.089 HD
ATOM     19  H   UNL     1      32.797 -18.517 -21.455  0.00  0.00    -0.089 HD
ENDBRANCH   3  16
TORSDOF 2
ENDMDL
MODEL 6
REMARK VINA RESULT:      -7.4      6.644      8.813
REMARK  Name = 46937127
REMARK  2 active torsions:
REMARK  status: ('A' for Active; 'I' for Inactive)
REMARK    1  A    between atoms: C_3  and  N_16
REMARK    2  A    between atoms: C_8  and  C_15
REMARK                            x       y       z     vdW  Elec       q    Type
REMARK                         _______ _______ _______ _____ _____    ______ ____
ROOT
ATOM      1  C   UNL     1      37.503 -24.059 -13.277  0.00  0.00    +0.002 C 
ATOM      2  C   UNL     1      35.767 -24.830 -12.023  0.00  0.00    +0.002 C 
ATOM      3  C   UNL     1      37.099 -25.389 -12.588  0.00  0.00    -0.057 C 
ATOM      4  C   UNL     1      37.495 -23.110 -12.055  0.00  0.00    +0.003 C 
ATOM      5  C   UNL     1      36.304 -23.639 -11.196  0.00  0.00    +0.003 C 
ATOM      6  C   UNL     1      36.241 -23.763 -14.055  0.00  0.00    -0.025 C 
ATOM      7  C   UNL     1      35.167 -24.239 -13.280  0.00  0.00    -0.029 C 
ATOM      8  C   UNL     1      36.037 -23.134 -15.264  0.00  0.00    +0.067 C 
ATOM      9  C   UNL     1      33.860 -24.101 -13.693  0.00  0.00    -0.005 C 
ATOM     10  C   UNL     1      34.715 -22.995 -15.698  0.00  0.00    +0.004 C 
ATOM     11  C   UNL     1      33.640 -23.473 -14.921  0.00  0.00    -0.000 C 
ENDROOT
BRANCH   8  15
ATOM     12  F   UNL     1      36.840 -22.462 -17.399  0.00  0.00    -0.166 F 
ATOM     13  F   UNL     1      37.628 -21.396 -15.675  0.00  0.00    -0.166 F 
ATOM     14  F   UNL     1      38.269 -23.429 -16.073  0.00  0.00    -0.166 F 
ATOM     15  C   UNL     1      37.167 -22.618 -16.080  0.00  0.00    +0.418 C 
ENDBRANCH   8  15
BRANCH   3  16
ATOM     16  N   UNL     1      36.954 -26.525 -13.490  0.00  0.00    +0.382 N 
ATOM     17  H   UNL     1      36.239 -26.318 -14.187  0.00  0.00    -0.089 HD
ATOM     18  H   UNL     1      36.681 -27.350 -12.956  0.00  0.00    -0.089 HD
ATOM     19  H   UNL     1      37.843 -26.703 -13.959  0.00  0.00    -0.089 HD
ENDBRANCH   3  16
TORSDOF 2
ENDMDL
MODEL 7
REMARK VINA RESULT:      -7.3      5.674      7.806
REMARK  Name = 46937127
REMARK  2 active torsions:
REMARK  status: ('A' for Active; 'I' for Inactive)
REMARK    1  A    between atoms: C_3  and  N_16
REMARK    2  A    between atoms: C_8  and  C_15
REMARK                            x       y       z     vdW  Elec       q    Type
REMARK                         _______ _______ _______ _____ _____    ______ ____
ROOT
ATOM      1  C   UNL     1      35.969 -23.948 -15.734  0.00  0.00    +0.002 C 
ATOM      2  C   UNL     1      35.610 -24.502 -13.556  0.00  0.00    +0.002 C 
ATOM      3  C   UNL     1      36.277 -25.148 -14.799  0.00  0.00    -0.057 C 
ATOM      4  C   UNL     1      36.673 -22.812 -14.955  0.00  0.00    +0.003 C 
ATOM      5  C   UNL     1      36.426 -23.192 -13.461  0.00  0.00    +0.003 C 
ATOM      6  C   UNL     1      34.487 -23.782 -15.482  0.00  0.00    -0.025 C 
ATOM      7  C   UNL     1      34.264 -24.125 -14.135  0.00  0.00    -0.029 C 
ATOM      8  C   UNL     1      33.462 -23.361 -16.300  0.00  0.00    +0.067 C 
ATOM      9  C   UNL     1      33.011 -24.054 -13.569  0.00  0.00    -0.005 C 
ATOM     10  C   UNL     1      32.182 -23.293 -15.739  0.00  0.00    +0.004 C 
ATOM     11  C   UNL     1      31.961 -23.636 -14.389  0.00  0.00    -0.000 C 
ENDROOT
BRANCH   8  15
ATOM     12  F   UNL     1      32.737 -22.137 -18.206  0.00  0.00    -0.166 F 
ATOM     13  F   UNL     1      34.884 -22.351 -17.936  0.00  0.00    -0.166 F 
ATOM     14  F   UNL     1      33.701 -24.051 -18.577  0.00  0.00    -0.166 F 
ATOM     15  C   UNL     1      33.693 -22.986 -17.719  0.00  0.00    +0.418 C 
ENDBRANCH   8  15
BRANCH   3  16
ATOM     16  N   UNL     1      35.693 -26.416 -15.219  0.00  0.00    +0.382 N 
ATOM     17  H   UNL     1      34.976 -26.244 -15.922  0.00  0.00    -0.089 HD
ATOM     18  H   UNL     1      35.276 -26.881 -14.413  0.00  0.00    -0.089 HD
ATOM     19  H   UNL     1      36.422 -27.011 -15.614  0.00  0.00    -0.089 HD
ENDBRANCH   3  16
TORSDOF 2
ENDMDL
MODEL 8
REMARK VINA RESULT:      -7.2      9.098     10.732
REMARK  Name = 46937127
REMARK  2 active torsions:
REMARK  status: ('A' for Active; 'I' for Inactive)
REMARK    1  A    between atoms: C_3  and  N_16
REMARK    2  A    between atoms: C_8  and  C_15
REMARK                            x       y       z     vdW  Elec       q    Type
REMARK                         _______ _______ _______ _____ _____    ______ ____
ROOT
ATOM      1  C   UNL     1      31.890  -8.436 -21.838  0.00  0.00    +0.002 C 
ATOM      2  C   UNL     1      33.106  -8.000 -23.711  0.00  0.00    +0.002 C 
ATOM      3  C   UNL     1      31.714  -7.617 -23.144  0.00  0.00    -0.057 C 
ATOM      4  C   UNL     1      33.180  -7.785 -21.284  0.00  0.00    +0.003 C 
ATOM      5  C   UNL     1      34.014  -7.487 -22.569  0.00  0.00    +0.003 C 
ATOM      6  C   UNL     1      32.300  -9.774 -22.410  0.00  0.00    -0.025 C 
ATOM      7  C   UNL     1      33.052  -9.505 -23.569  0.00  0.00    -0.029 C 
ATOM      8  C   UNL     1      32.080 -11.062 -21.974  0.00  0.00    +0.067 C 
ATOM      9  C   UNL     1      33.606 -10.516 -24.323  0.00  0.00    -0.005 C 
ATOM     10  C   UNL     1      32.630 -12.099 -22.735  0.00  0.00    +0.004 C 
ATOM     11  C   UNL     1      33.383 -11.828 -23.896  0.00  0.00    -0.000 C 
ENDROOT
BRANCH   8  15
ATOM     12  F   UNL     1      31.587 -12.575 -20.207  0.00  0.00    -0.166 F 
ATOM     13  F   UNL     1      31.505 -10.455 -19.734  0.00  0.00    -0.166 F 
ATOM     14  F   UNL     1      29.944 -11.354 -20.940  0.00  0.00    -0.166 F 
ATOM     15  C   UNL     1      31.298 -11.352 -20.744  0.00  0.00    +0.418 C 
ENDBRANCH   8  15
BRANCH   3  16
ATOM     16  N   UNL     1      30.583  -8.020 -23.970  0.00  0.00    +0.382 N 
ATOM     17  H   UNL     1      30.925  -8.438 -24.835  0.00  0.00    -0.089 HD
ATOM     18  H   UNL     1      30.014  -7.202 -24.189  0.00  0.00    -0.089 HD
ATOM     19  H   UNL     1      30.017  -8.701 -23.463  0.00  0.00    -0.089 HD
ENDBRANCH   3  16
TORSDOF 2
ENDMDL
MODEL 9
REMARK VINA RESULT:      -7.1      9.291     11.071
REMARK  Name = 46937127
REMARK  2 active torsions:
REMARK  status: ('A' for Active; 'I' for Inactive)
REMARK    1  A    between atoms: C_3  and  N_16
REMARK    2  A    between atoms: C_8  and  C_15
REMARK                            x       y       z     vdW  Elec       q    Type
REMARK                         _______ _______ _______ _____ _____    ______ ____
ROOT
ATOM      1  C   UNL     1      31.688  -8.707 -21.671  0.00  0.00    +0.002 C 
ATOM      2  C   UNL     1      33.083  -7.150 -22.571  0.00  0.00    +0.002 C 
ATOM      3  C   UNL     1      31.553  -7.355 -22.420  0.00  0.00    -0.057 C 
ATOM      4  C   UNL     1      32.552  -8.262 -20.467  0.00  0.00    +0.003 C 
ATOM      5  C   UNL     1      33.509  -7.195 -21.084  0.00  0.00    +0.003 C 
ATOM      6  C   UNL     1      32.614  -9.445 -22.610  0.00  0.00    -0.025 C 
ATOM      7  C   UNL     1      33.477  -8.483 -23.167  0.00  0.00    -0.029 C 
ATOM      8  C   UNL     1      32.723 -10.782 -22.925  0.00  0.00    +0.067 C 
ATOM      9  C   UNL     1      34.473  -8.831 -24.053  0.00  0.00    -0.005 C 
ATOM     10  C   UNL     1      33.724 -11.147 -23.830  0.00  0.00    +0.004 C 
ATOM     11  C   UNL     1      34.589 -10.182 -24.387  0.00  0.00    -0.000 C 
ENDROOT
BRANCH   8  15
ATOM     12  F   UNL     1      31.863 -12.998 -22.996  0.00  0.00    -0.166 F 
ATOM     13  F   UNL     1      32.113 -12.106 -21.029  0.00  0.00    -0.166 F 
ATOM     14  F   UNL     1      30.504 -11.439 -22.321  0.00  0.00    -0.166 F 
ATOM     15  C   UNL     1      31.823 -11.804 -22.330  0.00  0.00    +0.418 C 
ENDBRANCH   8  15
BRANCH   3  16
ATOM     16  N   UNL     1      30.817  -7.423 -23.676  0.00  0.00    +0.382 N 
ATOM     17  H   UNL     1      31.308  -8.035 -24.327  0.00  0.00    -0.089 HD
ATOM     18  H   UNL     1      30.743  -6.488 -24.078  0.00  0.00    -0.089 HD
ATOM     19  H   UNL     1      29.881  -7.792 -23.502  0.00  0.00    -0.089 HD
ENDBRANCH   3  16
TORSDOF 2
ENDMDL
