MODEL 1
REMARK VINA RESULT:      -8.4      0.000      0.000
REMARK  Name = 3033860
REMARK  4 active torsions:
REMARK  status: ('A' for Active; 'I' for Inactive)
REMARK    1  A    between atoms: C_5  and  C_6
REMARK    2  A    between atoms: C_5  and  N_17
REMARK    3  A    between atoms: C_12  and  C_26
REMARK    4  A    between atoms: C_15  and  N_34
REMARK                            x       y       z     vdW  Elec       q    Type
REMARK                         _______ _______ _______ _____ _____    ______ ____
ROOT
ATOM      1  O   UNL     1      32.262 -18.743 -20.272  0.00  0.00    -0.267 OA
ATOM      2  N   UNL     1      33.904 -17.369 -21.292  0.00  0.00    -0.209 N 
ATOM      3  N   UNL     1      35.412 -18.963 -21.799  0.00  0.00    -0.387 NA
ATOM      4  N   UNL     1      35.456 -16.099 -23.534  0.00  0.00    -0.261 NA
ATOM      5  C   UNL     1      34.336 -19.555 -21.187  0.00  0.00    +0.180 C 
ATOM      6  C   UNL     1      35.109 -17.701 -21.821  0.00  0.00    +0.194 C 
ATOM      7  C   UNL     1      33.360 -16.065 -21.218  0.00  0.00    +0.062 C 
ATOM      8  C   UNL     1      33.327 -18.527 -20.817  0.00  0.00    +0.285 C 
ATOM      9  C   UNL     1      33.656 -15.075 -22.178  0.00  0.00    +0.033 C 
ATOM     10  C   UNL     1      36.039 -16.647 -22.326  0.00  0.00    +0.200 C 
ATOM     11  C   UNL     1      34.384 -15.384 -23.449  0.00  0.00    +0.079 C 
ATOM     12  C   UNL     1      32.512 -15.725 -20.150  0.00  0.00    +0.017 C 
ATOM     13  C   UNL     1      33.170 -13.766 -22.013  0.00  0.00    +0.027 C 
ATOM     14  C   UNL     1      32.357 -13.446 -20.928  0.00  0.00    +0.143 C 
ATOM     15  C   UNL     1      32.017 -14.427 -20.007  0.00  0.00    +0.025 C 
ENDROOT
BRANCH  11  17
ATOM     16 CL   UNL     1      33.533 -17.429 -25.603  0.00  0.00    -0.082 Cl
ATOM     17  C   UNL     1      33.829 -14.860 -24.731  0.00  0.00    +0.028 C 
ATOM     18  C   UNL     1      33.421 -15.711 -25.752  0.00  0.00    +0.059 C 
ATOM     19  C   UNL     1      33.729 -13.480 -24.878  0.00  0.00    +0.002 C 
ATOM     20  C   UNL     1      32.906 -15.177 -26.933  0.00  0.00    +0.011 C 
ATOM     21  C   UNL     1      33.214 -12.946 -26.059  0.00  0.00    +0.000 C 
ATOM     22  C   UNL     1      32.803 -13.794 -27.087  0.00  0.00    +0.001 C 
ENDBRANCH  11  17
BRANCH  14  25
ATOM     23  O   UNL     1      31.660 -11.433 -21.804  0.00  0.00    -0.126 OA
ATOM     24  O   UNL     1      31.639 -11.692 -19.620  0.00  0.00    -0.126 OA
ATOM     25  N   UNL     1      31.860 -12.124 -20.777  0.00  0.00    +0.058 N 
ENDBRANCH  14  25
BRANCH   5  26
ATOM     26  C   UNL     1      34.180 -20.855 -20.934  0.00  0.00    +0.137 C 
BRANCH  26  27
ATOM     27  N   UNL     1      34.762 -21.588 -19.957  0.00  0.00    -0.271 NA
ATOM     28  N   UNL     1      35.797 -22.569 -17.493  0.00  0.00    +0.387 N 
ATOM     29  C   UNL     1      34.035 -22.621 -19.226  0.00  0.00    +0.050 C 
ATOM     30  C   UNL     1      36.199 -21.537 -19.703  0.00  0.00    +0.050 C 
ATOM     31  C   UNL     1      34.347 -22.525 -17.731  0.00  0.00    -0.060 C 
ATOM     32  C   UNL     1      36.464 -21.464 -18.198  0.00  0.00    -0.060 C 
ATOM     33  C   UNL     1      36.085 -22.515 -16.062  0.00  0.00    -0.101 C 
ATOM     34  H   UNL     1      36.158 -23.450 -17.859  0.00  0.00    -0.080 HD
ENDBRANCH  26  27
ENDBRANCH   5  26
TORSDOF 4
ENDMDL
MODEL 2
REMARK VINA RESULT:      -8.0      6.894     10.018
REMARK  Name = 3033860
REMARK  4 active torsions:
REMARK  status: ('A' for Active; 'I' for Inactive)
REMARK    1  A    between atoms: C_5  and  C_6
REMARK    2  A    between atoms: C_5  and  N_17
REMARK    3  A    between atoms: C_12  and  C_26
REMARK    4  A    between atoms: C_15  and  N_34
REMARK                            x       y       z     vdW  Elec       q    Type
REMARK                         _______ _______ _______ _____ _____    ______ ____
ROOT
ATOM      1  O   UNL     1      30.634  -9.360 -23.004  0.00  0.00    -0.267 OA
ATOM      2  N   UNL     1      32.563  -8.033 -23.385  0.00  0.00    -0.209 N 
ATOM      3  N   UNL     1      34.070  -9.690 -23.629  0.00  0.00    -0.387 NA
ATOM      4  N   UNL     1      34.741  -6.696 -24.971  0.00  0.00    -0.261 NA
ATOM      5  C   UNL     1      32.838 -10.247 -23.399  0.00  0.00    +0.180 C 
ATOM      6  C   UNL     1      33.850  -8.410 -23.598  0.00  0.00    +0.194 C 
ATOM      7  C   UNL     1      32.087  -6.703 -23.323  0.00  0.00    +0.062 C 
ATOM      8  C   UNL     1      31.819  -9.181 -23.212  0.00  0.00    +0.285 C 
ATOM      9  C   UNL     1      32.688  -5.658 -24.055  0.00  0.00    +0.033 C 
ATOM     10  C   UNL     1      34.936  -7.393 -23.715  0.00  0.00    +0.200 C 
ATOM     11  C   UNL     1      33.726  -5.909 -25.105  0.00  0.00    +0.079 C 
ATOM     12  C   UNL     1      30.993  -6.394 -22.497  0.00  0.00    +0.017 C 
ATOM     13  C   UNL     1      32.242  -4.335 -23.890  0.00  0.00    +0.027 C 
ATOM     14  C   UNL     1      31.177  -4.049 -23.041  0.00  0.00    +0.143 C 
ATOM     15  C   UNL     1      30.544  -5.078 -22.357  0.00  0.00    +0.025 C 
ENDROOT
BRANCH  11  17
ATOM     16 CL   UNL     1      36.284  -5.365 -26.750  0.00  0.00    -0.082 Cl
ATOM     17  C   UNL     1      33.578  -5.233 -26.426  0.00  0.00    +0.028 C 
ATOM     18  C   UNL     1      34.677  -4.952 -27.231  0.00  0.00    +0.059 C 
ATOM     19  C   UNL     1      32.294  -4.887 -26.837  0.00  0.00    +0.002 C 
ATOM     20  C   UNL     1      34.491  -4.319 -28.459  0.00  0.00    +0.011 C 
ATOM     21  C   UNL     1      32.108  -4.255 -28.066  0.00  0.00    +0.000 C 
ATOM     22  C   UNL     1      33.206  -3.970 -28.877  0.00  0.00    +0.001 C 
ENDBRANCH  11  17
BRANCH  14  25
ATOM     23  O   UNL     1      29.665  -2.501 -22.254  0.00  0.00    -0.126 OA
ATOM     24  O   UNL     1      31.401  -1.786 -23.400  0.00  0.00    -0.126 OA
ATOM     25  N   UNL     1      30.725  -2.711 -22.890  0.00  0.00    +0.058 N 
ENDBRANCH  14  25
BRANCH   5  26
ATOM     26  C   UNL     1      32.551 -11.549 -23.339  0.00  0.00    +0.137 C 
BRANCH  26  27
ATOM     27  N   UNL     1      33.242 -12.578 -23.880  0.00  0.00    -0.271 NA
ATOM     28  N   UNL     1      34.058 -15.076 -24.976  0.00  0.00    +0.387 N 
ATOM     29  C   UNL     1      33.436 -12.709 -25.321  0.00  0.00    +0.050 C 
ATOM     30  C   UNL     1      34.004 -13.516 -23.060  0.00  0.00    +0.050 C 
ATOM     31  C   UNL     1      33.210 -14.159 -25.752  0.00  0.00    -0.060 C 
ATOM     32  C   UNL     1      33.766 -14.949 -23.541  0.00  0.00    -0.060 C 
ATOM     33  C   UNL     1      33.864 -16.455 -25.420  0.00  0.00    -0.101 C 
ATOM     34  H   UNL     1      35.034 -14.824 -25.132  0.00  0.00    -0.080 HD
ENDBRANCH  26  27
ENDBRANCH   5  26
TORSDOF 4
ENDMDL
MODEL 3
REMARK VINA RESULT:      -7.7      5.361      8.050
REMARK  Name = 3033860
REMARK  4 active torsions:
REMARK  status: ('A' for Active; 'I' for Inactive)
REMARK    1  A    between atoms: C_5  and  C_6
REMARK    2  A    between atoms: C_5  and  N_17
REMARK    3  A    between atoms: C_12  and  C_26
REMARK    4  A    between atoms: C_15  and  N_34
REMARK                            x       y       z     vdW  Elec       q    Type
REMARK                         _______ _______ _______ _____ _____    ______ ____
ROOT
ATOM      1  O   UNL     1      31.686 -12.083 -23.206  0.00  0.00    -0.267 OA
ATOM      2  N   UNL     1      33.320 -10.400 -23.560  0.00  0.00    -0.209 N 
ATOM      3  N   UNL     1      34.545 -11.445 -25.136  0.00  0.00    -0.387 NA
ATOM      4  N   UNL     1      34.683  -8.104 -24.944  0.00  0.00    -0.261 NA
ATOM      5  C   UNL     1      33.503 -12.262 -24.776  0.00  0.00    +0.180 C 
ATOM      6  C   UNL     1      34.392 -10.391 -24.392  0.00  0.00    +0.194 C 
ATOM      7  C   UNL     1      32.949  -9.365 -22.671  0.00  0.00    +0.062 C 
ATOM      8  C   UNL     1      32.683 -11.612 -23.720  0.00  0.00    +0.285 C 
ATOM      9  C   UNL     1      33.222  -8.008 -22.947  0.00  0.00    +0.033 C 
ATOM     10  C   UNL     1      35.360  -9.254 -24.380  0.00  0.00    +0.200 C 
ATOM     11  C   UNL     1      33.725  -7.548 -24.280  0.00  0.00    +0.079 C 
ATOM     12  C   UNL     1      32.304  -9.681 -21.463  0.00  0.00    +0.017 C 
ATOM     13  C   UNL     1      32.922  -7.021 -21.993  0.00  0.00    +0.027 C 
ATOM     14  C   UNL     1      32.311  -7.364 -20.789  0.00  0.00    +0.143 C 
ATOM     15  C   UNL     1      31.990  -8.690 -20.531  0.00  0.00    +0.025 C 
ENDROOT
BRANCH  11  17
ATOM     16 CL   UNL     1      35.355  -5.901 -26.325  0.00  0.00    -0.082 Cl
ATOM     17  C   UNL     1      33.063  -6.376 -24.923  0.00  0.00    +0.028 C 
ATOM     18  C   UNL     1      33.723  -5.582 -25.854  0.00  0.00    +0.059 C 
ATOM     19  C   UNL     1      31.748  -6.096 -24.561  0.00  0.00    +0.002 C 
ATOM     20  C   UNL     1      33.064  -4.498 -26.431  0.00  0.00    +0.011 C 
ATOM     21  C   UNL     1      31.088  -5.011 -25.138  0.00  0.00    +0.000 C 
ATOM     22  C   UNL     1      31.746  -4.211 -26.072  0.00  0.00    +0.001 C 
ENDBRANCH  11  17
BRANCH  14  25
ATOM     23  O   UNL     1      32.717  -6.252 -18.814  0.00  0.00    -0.126 OA
ATOM     24  O   UNL     1      31.016  -5.609 -20.051  0.00  0.00    -0.126 OA
ATOM     25  N   UNL     1      31.999  -6.358 -19.837  0.00  0.00    +0.058 N 
ENDBRANCH  14  25
BRANCH   5  26
ATOM     26  C   UNL     1      33.231 -13.470 -25.272  0.00  0.00    +0.137 C 
BRANCH  26  27
ATOM     27  N   UNL     1      33.478 -14.674 -24.707  0.00  0.00    -0.271 NA
ATOM     28  N   UNL     1      34.683 -17.005 -23.604  0.00  0.00    +0.387 N 
ATOM     29  C   UNL     1      33.501 -14.863 -23.260  0.00  0.00    +0.050 C 
ATOM     30  C   UNL     1      33.542 -15.901 -25.498  0.00  0.00    +0.050 C 
ATOM     31  C   UNL     1      34.692 -15.736 -22.863  0.00  0.00    -0.060 C 
ATOM     32  C   UNL     1      34.733 -16.752 -25.051  0.00  0.00    -0.060 C 
ATOM     33  C   UNL     1      35.802 -17.850 -23.191  0.00  0.00    -0.101 C 
ATOM     34  H   UNL     1      33.816 -17.498 -23.391  0.00  0.00    -0.080 HD
ENDBRANCH  26  27
ENDBRANCH   5  26
TORSDOF 4
ENDMDL
MODEL 4
REMARK VINA RESULT:      -6.6      6.742      9.544
REMARK  Name = 3033860
REMARK  4 active torsions:
REMARK  status: ('A' for Active; 'I' for Inactive)
REMARK    1  A    between atoms: C_5  and  C_6
REMARK    2  A    between atoms: C_5  and  N_17
REMARK    3  A    between atoms: C_12  and  C_26
REMARK    4  A    between atoms: C_15  and  N_34
REMARK                            x       y       z     vdW  Elec       q    Type
REMARK                         _______ _______ _______ _____ _____    ______ ____
ROOT
ATOM      1  O   UNL     1      30.490  -9.493 -23.016  0.00  0.00    -0.267 OA
ATOM      2  N   UNL     1      32.494  -8.247 -23.245  0.00  0.00    -0.209 N 
ATOM      3  N   UNL     1      33.937  -9.964 -23.458  0.00  0.00    -0.387 NA
ATOM      4  N   UNL     1      34.818  -6.965 -24.661  0.00  0.00    -0.261 NA
ATOM      5  C   UNL     1      32.670 -10.470 -23.316  0.00  0.00    +0.180 C 
ATOM      6  C   UNL     1      33.773  -8.677 -23.397  0.00  0.00    +0.194 C 
ATOM      7  C   UNL     1      32.075  -6.898 -23.167  0.00  0.00    +0.062 C 
ATOM      8  C   UNL     1      31.691  -9.363 -23.151  0.00  0.00    +0.285 C 
ATOM      9  C   UNL     1      32.764  -5.861 -23.829  0.00  0.00    +0.033 C 
ATOM     10  C   UNL     1      34.909  -7.707 -23.421  0.00  0.00    +0.200 C 
ATOM     11  C   UNL     1      33.848  -6.128 -24.827  0.00  0.00    +0.079 C 
ATOM     12  C   UNL     1      30.951  -6.563 -22.394  0.00  0.00    +0.017 C 
ATOM     13  C   UNL     1      32.369  -4.524 -23.647  0.00  0.00    +0.027 C 
ATOM     14  C   UNL     1      31.270  -4.215 -22.849  0.00  0.00    +0.143 C 
ATOM     15  C   UNL     1      30.554  -5.233 -22.236  0.00  0.00    +0.025 C 
ENDROOT
BRANCH  11  17
ATOM     16 CL   UNL     1      31.090  -5.264 -25.918  0.00  0.00    -0.082 Cl
ATOM     17  C   UNL     1      33.807  -5.406 -26.132  0.00  0.00    +0.028 C 
ATOM     18  C   UNL     1      32.608  -4.981 -26.694  0.00  0.00    +0.059 C 
ATOM     19  C   UNL     1      35.016  -5.166 -26.778  0.00  0.00    +0.002 C 
ATOM     20  C   UNL     1      32.617  -4.308 -27.915  0.00  0.00    +0.011 C 
ATOM     21  C   UNL     1      35.025  -4.493 -27.999  0.00  0.00    +0.000 C 
ATOM     22  C   UNL     1      33.826  -4.064 -28.568  0.00  0.00    +0.001 C 
ENDBRANCH  11  17
BRANCH  14  25
ATOM     23  O   UNL     1      31.680  -1.953 -22.981  0.00  0.00    -0.126 OA
ATOM     24  O   UNL     1      29.722  -2.624 -22.238  0.00  0.00    -0.126 OA
ATOM     25  N   UNL     1      30.871  -2.862 -22.681  0.00  0.00    +0.058 N 
ENDBRANCH  14  25
BRANCH   5  26
ATOM     26  C   UNL     1      32.323 -11.758 -23.314  0.00  0.00    +0.137 C 
BRANCH  26  27
ATOM     27  N   UNL     1      32.930 -12.782 -22.672  0.00  0.00    -0.271 NA
ATOM     28  N   UNL     1      33.709 -15.327 -21.662  0.00  0.00    +0.387 N 
ATOM     29  C   UNL     1      34.110 -13.447 -23.215  0.00  0.00    +0.050 C 
ATOM     30  C   UNL     1      32.572 -13.161 -21.308  0.00  0.00    +0.050 C 
ATOM     31  C   UNL     1      33.977 -14.963 -23.061  0.00  0.00    -0.060 C 
ATOM     32  C   UNL     1      32.472 -14.684 -21.195  0.00  0.00    -0.060 C 
ATOM     33  C   UNL     1      33.621 -16.778 -21.516  0.00  0.00    -0.101 C 
ATOM     34  H   UNL     1      34.484 -14.994 -21.088  0.00  0.00    -0.080 HD
ENDBRANCH  26  27
ENDBRANCH   5  26
TORSDOF 4
ENDMDL
MODEL 5
REMARK VINA RESULT:      -6.3      3.165      4.660
REMARK  Name = 3033860
REMARK  4 active torsions:
REMARK  status: ('A' for Active; 'I' for Inactive)
REMARK    1  A    between atoms: C_5  and  C_6
REMARK    2  A    between atoms: C_5  and  N_17
REMARK    3  A    between atoms: C_12  and  C_26
REMARK    4  A    between atoms: C_15  and  N_34
REMARK                            x       y       z     vdW  Elec       q    Type
REMARK                         _______ _______ _______ _____ _____    ______ ____
ROOT
ATOM      1  O   UNL     1      35.726 -16.991 -23.527  0.00  0.00    -0.267 OA
ATOM      2  N   UNL     1      33.870 -15.679 -22.848  0.00  0.00    -0.209 N 
ATOM      3  N   UNL     1      33.844 -16.234 -20.665  0.00  0.00    -0.387 NA
ATOM      4  N   UNL     1      32.423 -13.352 -21.608  0.00  0.00    -0.261 NA
ATOM      5  C   UNL     1      34.880 -16.896 -21.274  0.00  0.00    +0.180 C 
ATOM      6  C   UNL     1      33.291 -15.557 -21.626  0.00  0.00    +0.194 C 
ATOM      7  C   UNL     1      33.452 -15.031 -24.034  0.00  0.00    +0.062 C 
ATOM      8  C   UNL     1      34.915 -16.569 -22.725  0.00  0.00    +0.285 C 
ATOM      9  C   UNL     1      32.831 -13.764 -24.015  0.00  0.00    +0.033 C 
ATOM     10  C   UNL     1      32.053 -14.743 -21.443  0.00  0.00    +0.200 C 
ATOM     11  C   UNL     1      32.764 -12.923 -22.777  0.00  0.00    +0.079 C 
ATOM     12  C   UNL     1      33.635 -15.664 -25.275  0.00  0.00    +0.017 C 
ATOM     13  C   UNL     1      32.345 -13.199 -25.208  0.00  0.00    +0.027 C 
ATOM     14  C   UNL     1      32.511 -13.861 -26.421  0.00  0.00    +0.143 C 
ATOM     15  C   UNL     1      33.168 -15.084 -26.457  0.00  0.00    +0.025 C 
ENDROOT
BRANCH  11  17
ATOM     16 CL   UNL     1      31.166 -10.884 -21.094  0.00  0.00    -0.082 Cl
ATOM     17  C   UNL     1      33.144 -11.484 -22.875  0.00  0.00    +0.028 C 
ATOM     18  C   UNL     1      32.478 -10.502 -22.151  0.00  0.00    +0.059 C 
ATOM     19  C   UNL     1      34.198 -11.148 -23.720  0.00  0.00    +0.002 C 
ATOM     20  C   UNL     1      32.870  -9.169 -22.271  0.00  0.00    +0.011 C 
ATOM     21  C   UNL     1      34.589  -9.815 -23.841  0.00  0.00    +0.000 C 
ATOM     22  C   UNL     1      33.925  -8.825 -23.117  0.00  0.00    +0.001 C 
ENDBRANCH  11  17
BRANCH  14  25
ATOM     23  O   UNL     1      32.748 -12.441 -28.218  0.00  0.00    -0.126 OA
ATOM     24  O   UNL     1      30.899 -13.619 -28.047  0.00  0.00    -0.126 OA
ATOM     25  N   UNL     1      32.029 -13.278 -27.622  0.00  0.00    +0.058 N 
ENDBRANCH  14  25
BRANCH   5  26
ATOM     26  C   UNL     1      35.748 -17.724 -20.691  0.00  0.00    +0.137 C 
BRANCH  26  27
ATOM     27  N   UNL     1      35.655 -19.067 -20.558  0.00  0.00    -0.271 NA
ATOM     28  N   UNL     1      35.227 -21.719 -19.617  0.00  0.00    +0.387 N 
ATOM     29  C   UNL     1      34.477 -19.809 -20.994  0.00  0.00    +0.050 C 
ATOM     30  C   UNL     1      36.795 -19.885 -20.153  0.00  0.00    +0.050 C 
ATOM     31  C   UNL     1      34.088 -20.846 -19.939  0.00  0.00    -0.060 C 
ATOM     32  C   UNL     1      36.356 -20.921 -19.116  0.00  0.00    -0.060 C 
ATOM     33  C   UNL     1      34.838 -22.731 -18.637  0.00  0.00    -0.101 C 
ATOM     34  H   UNL     1      35.520 -22.196 -20.469  0.00  0.00    -0.080 HD
ENDBRANCH  26  27
ENDBRANCH   5  26
TORSDOF 4
ENDMDL
MODEL 6
REMARK VINA RESULT:      -6.0      6.929      9.916
REMARK  Name = 3033860
REMARK  4 active torsions:
REMARK  status: ('A' for Active; 'I' for Inactive)
REMARK    1  A    between atoms: C_5  and  C_6
REMARK    2  A    between atoms: C_5  and  N_17
REMARK    3  A    between atoms: C_12  and  C_26
REMARK    4  A    between atoms: C_15  and  N_34
REMARK                            x       y       z     vdW  Elec       q    Type
REMARK                         _______ _______ _______ _____ _____    ______ ____
ROOT
ATOM      1  O   UNL     1      31.203  -9.635 -23.585  0.00  0.00    -0.267 OA
ATOM      2  N   UNL     1      32.992  -8.100 -23.854  0.00  0.00    -0.209 N 
ATOM      3  N   UNL     1      34.646  -9.576 -24.258  0.00  0.00    -0.387 NA
ATOM      4  N   UNL     1      35.010  -6.422 -25.323  0.00  0.00    -0.261 NA
ATOM      5  C   UNL     1      33.475 -10.267 -24.073  0.00  0.00    +0.180 C 
ATOM      6  C   UNL     1      34.305  -8.331 -24.108  0.00  0.00    +0.194 C 
ATOM      7  C   UNL     1      32.392  -6.833 -23.668  0.00  0.00    +0.062 C 
ATOM      8  C   UNL     1      32.362  -9.324 -23.782  0.00  0.00    +0.285 C 
ATOM      9  C   UNL     1      32.881  -5.673 -24.304  0.00  0.00    +0.033 C 
ATOM     10  C   UNL     1      35.288  -7.208 -24.138  0.00  0.00    +0.200 C 
ATOM     11  C   UNL     1      33.923  -5.727 -25.379  0.00  0.00    +0.079 C 
ATOM     12  C   UNL     1      31.286  -6.706 -22.810  0.00  0.00    +0.017 C 
ATOM     13  C   UNL     1      32.314  -4.419 -24.016  0.00  0.00    +0.027 C 
ATOM     14  C   UNL     1      31.239  -4.315 -23.137  0.00  0.00    +0.143 C 
ATOM     15  C   UNL     1      30.716  -5.458 -22.547  0.00  0.00    +0.025 C 
ENDROOT
BRANCH  11  17
ATOM     16 CL   UNL     1      36.367  -5.076 -27.152  0.00  0.00    -0.082 Cl
ATOM     17  C   UNL     1      33.692  -4.951 -26.631  0.00  0.00    +0.028 C 
ATOM     18  C   UNL     1      34.736  -4.616 -27.487  0.00  0.00    +0.059 C 
ATOM     19  C   UNL     1      32.387  -4.567 -26.924  0.00  0.00    +0.002 C 
ATOM     20  C   UNL     1      34.473  -3.891 -28.648  0.00  0.00    +0.011 C 
ATOM     21  C   UNL     1      32.124  -3.841 -28.086  0.00  0.00    +0.000 C 
ATOM     22  C   UNL     1      33.167  -3.502 -28.948  0.00  0.00    +0.001 C 
ENDBRANCH  11  17
BRANCH  14  25
ATOM     23  O   UNL     1      31.142  -2.033 -23.426  0.00  0.00    -0.126 OA
ATOM     24  O   UNL     1      29.699  -2.982 -22.064  0.00  0.00    -0.126 OA
ATOM     25  N   UNL     1      30.664  -3.046 -22.862  0.00  0.00    +0.058 N 
ENDBRANCH  14  25
BRANCH   5  26
ATOM     26  C   UNL     1      33.315 -11.590 -24.130  0.00  0.00    +0.137 C 
BRANCH  26  27
ATOM     27  N   UNL     1      32.741 -12.399 -23.210  0.00  0.00    -0.271 NA
ATOM     28  N   UNL     1      32.217 -14.197 -21.066  0.00  0.00    +0.387 N 
ATOM     29  C   UNL     1      32.217 -11.888 -21.947  0.00  0.00    +0.050 C 
ATOM     30  C   UNL     1      32.428 -13.797 -23.496  0.00  0.00    +0.050 C 
ATOM     31  C   UNL     1      32.626 -12.810 -20.797  0.00  0.00    -0.060 C 
ATOM     32  C   UNL     1      32.831 -14.678 -22.312  0.00  0.00    -0.060 C 
ATOM     33  C   UNL     1      32.576 -15.064 -19.947  0.00  0.00    -0.101 C 
ATOM     34  H   UNL     1      31.203 -14.219 -21.176  0.00  0.00    -0.080 HD
ENDBRANCH  26  27
ENDBRANCH   5  26
TORSDOF 4
ENDMDL
MODEL 7
REMARK VINA RESULT:      -5.8      3.198      8.705
REMARK  Name = 3033860
REMARK  4 active torsions:
REMARK  status: ('A' for Active; 'I' for Inactive)
REMARK    1  A    between atoms: C_5  and  C_6
REMARK    2  A    between atoms: C_5  and  N_17
REMARK    3  A    between atoms: C_12  and  C_26
REMARK    4  A    between atoms: C_15  and  N_34
REMARK                            x       y       z     vdW  Elec       q    Type
REMARK                         _______ _______ _______ _____ _____    ______ ____
ROOT
ATOM      1  O   UNL     1      31.323 -13.316 -22.882  0.00  0.00    -0.267 OA
ATOM      2  N   UNL     1      33.229 -14.361 -21.932  0.00  0.00    -0.209 N 
ATOM      3  N   UNL     1      33.320 -13.205 -20.000  0.00  0.00    -0.387 NA
ATOM      4  N   UNL     1      34.767 -16.222 -20.139  0.00  0.00    -0.261 NA
ATOM      5  C   UNL     1      32.249 -12.756 -20.731  0.00  0.00    +0.180 C 
ATOM      6  C   UNL     1      33.852 -14.123 -20.750  0.00  0.00    +0.194 C 
ATOM      7  C   UNL     1      33.619 -15.316 -22.900  0.00  0.00    +0.062 C 
ATOM      8  C   UNL     1      32.170 -13.483 -22.026  0.00  0.00    +0.285 C 
ATOM      9  C   UNL     1      34.266 -16.518 -22.546  0.00  0.00    +0.033 C 
ATOM     10  C   UNL     1      35.113 -14.838 -20.392  0.00  0.00    +0.200 C 
ATOM     11  C   UNL     1      34.395 -16.970 -21.124  0.00  0.00    +0.079 C 
ATOM     12  C   UNL     1      33.379 -15.065 -24.261  0.00  0.00    +0.017 C 
ATOM     13  C   UNL     1      34.722 -17.394 -23.547  0.00  0.00    +0.027 C 
ATOM     14  C   UNL     1      34.500 -17.107 -24.891  0.00  0.00    +0.143 C 
ATOM     15  C   UNL     1      33.817 -15.952 -25.247  0.00  0.00    +0.025 C 
ENDROOT
BRANCH  11  17
ATOM     16 CL   UNL     1      36.695 -19.015 -20.852  0.00  0.00    -0.082 Cl
ATOM     17  C   UNL     1      34.041 -18.381 -20.793  0.00  0.00    +0.028 C 
ATOM     18  C   UNL     1      35.014 -19.364 -20.651  0.00  0.00    +0.059 C 
ATOM     19  C   UNL     1      32.694 -18.690 -20.626  0.00  0.00    +0.002 C 
ATOM     20  C   UNL     1      34.638 -20.670 -20.339  0.00  0.00    +0.011 C 
ATOM     21  C   UNL     1      32.318 -19.996 -20.314  0.00  0.00    +0.000 C 
ATOM     22  C   UNL     1      33.289 -20.986 -20.171  0.00  0.00    +0.001 C 
ENDBRANCH  11  17
BRANCH  14  25
ATOM     23  O   UNL     1      34.590 -19.203 -25.839  0.00  0.00    -0.126 OA
ATOM     24  O   UNL     1      35.699 -17.566 -26.802  0.00  0.00    -0.126 OA
ATOM     25  N   UNL     1      34.952 -18.005 -25.894  0.00  0.00    +0.058 N 
ENDBRANCH  14  25
BRANCH   5  26
ATOM     26  C   UNL     1      31.385 -11.805 -20.374  0.00  0.00    +0.137 C 
BRANCH  26  27
ATOM     27  N   UNL     1      31.359 -10.512 -20.772  0.00  0.00    -0.271 NA
ATOM     28  N   UNL     1      31.995  -7.923 -21.770  0.00  0.00    +0.387 N 
ATOM     29  C   UNL     1      30.916 -10.121 -22.107  0.00  0.00    +0.050 C 
ATOM     30  C   UNL     1      31.581  -9.410 -19.840  0.00  0.00    +0.050 C 
ATOM     31  C   UNL     1      31.860  -9.066 -22.686  0.00  0.00    -0.060 C 
ATOM     32  C   UNL     1      32.511  -8.370 -20.468  0.00  0.00    -0.060 C 
ATOM     33  C   UNL     1      32.868  -6.903 -22.347  0.00  0.00    -0.101 C 
ATOM     34  H   UNL     1      31.072  -7.512 -21.629  0.00  0.00    -0.080 HD
ENDBRANCH  26  27
ENDBRANCH   5  26
TORSDOF 4
ENDMDL
MODEL 8
REMARK VINA RESULT:      -5.5      7.848     11.002
REMARK  Name = 3033860
REMARK  4 active torsions:
REMARK  status: ('A' for Active; 'I' for Inactive)
REMARK    1  A    between atoms: C_5  and  C_6
REMARK    2  A    between atoms: C_5  and  N_17
REMARK    3  A    between atoms: C_12  and  C_26
REMARK    4  A    between atoms: C_15  and  N_34
REMARK                            x       y       z     vdW  Elec       q    Type
REMARK                         _______ _______ _______ _____ _____    ______ ____
ROOT
ATOM      1  O   UNL     1      31.293 -22.817 -13.017  0.00  0.00    -0.267 OA
ATOM      2  N   UNL     1      32.468 -23.714 -14.872  0.00  0.00    -0.209 N 
ATOM      3  N   UNL     1      30.782 -23.729 -16.366  0.00  0.00    -0.387 NA
ATOM      4  N   UNL     1      33.933 -23.698 -17.499  0.00  0.00    -0.261 NA
ATOM      5  C   UNL     1      30.314 -23.223 -15.179  0.00  0.00    +0.180 C 
ATOM      6  C   UNL     1      32.028 -24.005 -16.122  0.00  0.00    +0.194 C 
ATOM      7  C   UNL     1      33.781 -23.915 -14.386  0.00  0.00    +0.062 C 
ATOM      8  C   UNL     1      31.397 -23.218 -14.161  0.00  0.00    +0.285 C 
ATOM      9  C   UNL     1      34.910 -23.844 -15.229  0.00  0.00    +0.033 C 
ATOM     10  C   UNL     1      32.925 -24.666 -17.116  0.00  0.00    +0.200 C 
ATOM     11  C   UNL     1      34.828 -23.344 -16.638  0.00  0.00    +0.079 C 
ATOM     12  C   UNL     1      33.982 -24.215 -13.028  0.00  0.00    +0.017 C 
ATOM     13  C   UNL     1      36.187 -24.144 -14.723  0.00  0.00    +0.027 C 
ATOM     14  C   UNL     1      36.356 -24.470 -13.380  0.00  0.00    +0.143 C 
ATOM     15  C   UNL     1      35.258 -24.491 -12.531  0.00  0.00    +0.025 C 
ENDROOT
BRANCH  11  17
ATOM     16 CL   UNL     1      34.656 -22.348 -19.558  0.00  0.00    -0.082 Cl
ATOM     17  C   UNL     1      35.828 -22.335 -17.093  0.00  0.00    +0.028 C 
ATOM     18  C   UNL     1      35.821 -21.833 -18.390  0.00  0.00    +0.059 C 
ATOM     19  C   UNL     1      36.779 -21.904 -16.173  0.00  0.00    +0.002 C 
ATOM     20  C   UNL     1      36.774 -20.890 -18.772  0.00  0.00    +0.011 C 
ATOM     21  C   UNL     1      37.732 -20.960 -16.554  0.00  0.00    +0.000 C 
ATOM     22  C   UNL     1      37.731 -20.453 -17.854  0.00  0.00    +0.001 C 
ENDBRANCH  11  17
BRANCH  14  25
ATOM     23  O   UNL     1      38.631 -24.121 -13.326  0.00  0.00    -0.126 OA
ATOM     24  O   UNL     1      37.771 -25.646 -11.995  0.00  0.00    -0.126 OA
ATOM     25  N   UNL     1      37.652 -24.760 -12.875  0.00  0.00    +0.058 N 
ENDBRANCH  14  25
BRANCH   5  26
ATOM     26  C   UNL     1      29.075 -22.793 -14.931  0.00  0.00    +0.137 C 
BRANCH  26  27
ATOM     27  N   UNL     1      28.025 -22.747 -15.781  0.00  0.00    -0.271 NA
ATOM     28  N   UNL     1      26.164 -22.077 -17.829  0.00  0.00    +0.387 N 
ATOM     29  C   UNL     1      27.990 -23.529 -17.013  0.00  0.00    +0.050 C 
ATOM     30  C   UNL     1      26.777 -22.072 -15.434  0.00  0.00    +0.050 C 
ATOM     31  C   UNL     1      27.466 -22.670 -18.166  0.00  0.00    -0.060 C 
ATOM     32  C   UNL     1      26.279 -21.246 -16.621  0.00  0.00    -0.060 C 
ATOM     33  C   UNL     1      25.653 -21.289 -18.948  0.00  0.00    -0.101 C 
ATOM     34  H   UNL     1      25.504 -22.831 -17.640  0.00  0.00    -0.080 HD
ENDBRANCH  26  27
ENDBRANCH   5  26
TORSDOF 4
ENDMDL
