MODEL 1
REMARK VINA RESULT:      -7.2      0.000      0.000
REMARK  Name = 9547998
REMARK  3 active torsions:
REMARK  status: ('A' for Active; 'I' for Inactive)
REMARK    1  A    between atoms: C_1  and  C_13
REMARK    2  A    between atoms: C_2  and  N_7
REMARK    3  A    between atoms: N_7  and  S_9
REMARK                            x       y       z     vdW  Elec       q    Type
REMARK                         _______ _______ _______ _____ _____    ______ ____
ROOT
ATOM      1  C   UNL     1      34.736 -21.004 -19.899  0.00  0.00    -0.022 C 
ATOM      2  C   UNL     1      34.657 -18.667 -21.420  0.00  0.00    +0.065 C 
ATOM      3  C   UNL     1      33.509 -20.440 -20.248  0.00  0.00    -0.003 C 
ATOM      4  C   UNL     1      35.923 -20.400 -20.311  0.00  0.00    -0.003 C 
ATOM      5  C   UNL     1      33.469 -19.271 -21.008  0.00  0.00    +0.016 C 
ATOM      6  C   UNL     1      35.884 -19.232 -21.071  0.00  0.00    +0.016 C 
ENDROOT
BRANCH   2   7
ATOM      7  N   UNL     1      34.617 -17.470 -22.198  0.00  0.00    -0.213 N 
ATOM      8  H   UNL     1      34.769 -17.481 -23.171  0.00  0.00    +0.174 HD
BRANCH   7   9
ATOM      9  S   UNL     1      34.287 -15.998 -21.345  0.00  0.00    +0.091 S 
ATOM     10  O   UNL     1      34.893 -14.827 -22.304  0.00  0.00    -0.050 OA
ATOM     11  O   UNL     1      32.849 -15.812 -21.276  0.00  0.00    -0.050 OA
ATOM     12  O   UNL     1      35.075 -16.005 -20.126  0.00  0.00    -0.050 OA
ENDBRANCH   7   9
ENDBRANCH   2   7
BRANCH   1  13
ATOM     13  C   UNL     1      34.778 -22.255 -19.087  0.00  0.00    +0.026 C 
ATOM     14  C   UNL     1      33.439 -22.559 -18.420  0.00  0.00    +0.005 C 
ENDBRANCH   1  13
TORSDOF 3
ENDMDL
MODEL 2
REMARK VINA RESULT:      -7.2      0.840      2.092
REMARK  Name = 9547998
REMARK  3 active torsions:
REMARK  status: ('A' for Active; 'I' for Inactive)
REMARK    1  A    between atoms: C_1  and  C_13
REMARK    2  A    between atoms: C_2  and  N_7
REMARK    3  A    between atoms: N_7  and  S_9
REMARK                            x       y       z     vdW  Elec       q    Type
REMARK                         _______ _______ _______ _____ _____    ______ ____
ROOT
ATOM      1  C   UNL     1      35.282 -20.596 -20.116  0.00  0.00    -0.022 C 
ATOM      2  C   UNL     1      34.894 -18.264 -21.597  0.00  0.00    +0.065 C 
ATOM      3  C   UNL     1      36.380 -19.849 -20.540  0.00  0.00    -0.003 C 
ATOM      4  C   UNL     1      33.990 -20.178 -20.433  0.00  0.00    -0.003 C 
ATOM      5  C   UNL     1      36.187 -18.682 -21.281  0.00  0.00    +0.016 C 
ATOM      6  C   UNL     1      33.795 -19.012 -21.173  0.00  0.00    +0.016 C 
ENDROOT
BRANCH   2   7
ATOM      7  N   UNL     1      34.696 -17.070 -22.356  0.00  0.00    -0.213 N 
ATOM      8  H   UNL     1      34.772 -17.063 -23.337  0.00  0.00    +0.174 HD
BRANCH   7   9
ATOM      9  S   UNL     1      34.313 -15.636 -21.462  0.00  0.00    +0.091 S 
ATOM     10  O   UNL     1      32.699 -15.713 -21.241  0.00  0.00    -0.050 OA
ATOM     11  O   UNL     1      34.942 -15.719 -20.156  0.00  0.00    -0.050 OA
ATOM     12  O   UNL     1      34.574 -14.495 -22.319  0.00  0.00    -0.050 OA
ENDBRANCH   7   9
ENDBRANCH   2   7
BRANCH   1  13
ATOM     13  C   UNL     1      35.488 -21.842 -19.322  0.00  0.00    +0.026 C 
ATOM     14  C   UNL     1      36.579 -21.682 -18.266  0.00  0.00    +0.005 C 
ENDBRANCH   1  13
TORSDOF 3
ENDMDL
MODEL 3
REMARK VINA RESULT:      -7.2      0.860      1.619
REMARK  Name = 9547998
REMARK  3 active torsions:
REMARK  status: ('A' for Active; 'I' for Inactive)
REMARK    1  A    between atoms: C_1  and  C_13
REMARK    2  A    between atoms: C_2  and  N_7
REMARK    3  A    between atoms: N_7  and  S_9
REMARK                            x       y       z     vdW  Elec       q    Type
REMARK                         _______ _______ _______ _____ _____    ______ ____
ROOT
ATOM      1  C   UNL     1      35.253 -20.553 -20.149  0.00  0.00    -0.022 C 
ATOM      2  C   UNL     1      34.854 -18.205 -21.602  0.00  0.00    +0.065 C 
ATOM      3  C   UNL     1      33.958 -20.137 -20.459  0.00  0.00    -0.003 C 
ATOM      4  C   UNL     1      36.348 -19.797 -20.566  0.00  0.00    -0.003 C 
ATOM      5  C   UNL     1      33.758 -18.962 -21.185  0.00  0.00    +0.016 C 
ATOM      6  C   UNL     1      36.149 -18.623 -21.293  0.00  0.00    +0.016 C 
ENDROOT
BRANCH   2   7
ATOM      7  N   UNL     1      34.650 -17.003 -22.345  0.00  0.00    -0.213 N 
ATOM      8  H   UNL     1      34.715 -16.985 -23.327  0.00  0.00    +0.174 HD
BRANCH   7   9
ATOM      9  S   UNL     1      34.280 -15.578 -21.432  0.00  0.00    +0.091 S 
ATOM     10  O   UNL     1      32.670 -15.658 -21.186  0.00  0.00    -0.050 OA
ATOM     11  O   UNL     1      34.929 -15.672 -20.137  0.00  0.00    -0.050 OA
ATOM     12  O   UNL     1      34.527 -14.428 -22.282  0.00  0.00    -0.050 OA
ENDBRANCH   7   9
ENDBRANCH   2   7
BRANCH   1  13
ATOM     13  C   UNL     1      35.467 -21.810 -19.375  0.00  0.00    +0.026 C 
ATOM     14  C   UNL     1      36.540 -21.654 -18.300  0.00  0.00    +0.005 C 
ENDBRANCH   1  13
TORSDOF 3
ENDMDL
MODEL 4
REMARK VINA RESULT:      -6.9      4.525      6.441
REMARK  Name = 9547998
REMARK  3 active torsions:
REMARK  status: ('A' for Active; 'I' for Inactive)
REMARK    1  A    between atoms: C_1  and  C_13
REMARK    2  A    between atoms: C_2  and  N_7
REMARK    3  A    between atoms: N_7  and  S_9
REMARK                            x       y       z     vdW  Elec       q    Type
REMARK                         _______ _______ _______ _____ _____    ______ ____
ROOT
ATOM      1  C   UNL     1      33.442 -15.151 -25.379  0.00  0.00    -0.022 C 
ATOM      2  C   UNL     1      35.056 -16.596 -23.620  0.00  0.00    +0.065 C 
ATOM      3  C   UNL     1      33.883 -16.428 -25.726  0.00  0.00    -0.003 C 
ATOM      4  C   UNL     1      33.807 -14.597 -24.152  0.00  0.00    -0.003 C 
ATOM      5  C   UNL     1      34.690 -17.151 -24.847  0.00  0.00    +0.016 C 
ATOM      6  C   UNL     1      34.614 -15.319 -23.273  0.00  0.00    +0.016 C 
ENDROOT
BRANCH   2   7
ATOM      7  N   UNL     1      35.882 -17.335 -22.721  0.00  0.00    -0.213 N 
ATOM      8  H   UNL     1      36.802 -17.594 -22.957  0.00  0.00    +0.174 HD
BRANCH   7   9
ATOM      9  S   UNL     1      35.185 -17.753 -21.190  0.00  0.00    +0.091 S 
ATOM     10  O   UNL     1      36.216 -18.846 -20.558  0.00  0.00    -0.050 OA
ATOM     11  O   UNL     1      35.204 -16.581 -20.333  0.00  0.00    -0.050 OA
ATOM     12  O   UNL     1      33.934 -18.443 -21.445  0.00  0.00    -0.050 OA
ENDBRANCH   7   9
ENDBRANCH   2   7
BRANCH   1  13
ATOM     13  C   UNL     1      32.577 -14.379 -26.317  0.00  0.00    +0.026 C 
ATOM     14  C   UNL     1      33.375 -13.389 -27.161  0.00  0.00    +0.005 C 
ENDBRANCH   1  13
TORSDOF 3
ENDMDL
MODEL 5
REMARK VINA RESULT:      -6.9      3.240      4.097
REMARK  Name = 9547998
REMARK  3 active torsions:
REMARK  status: ('A' for Active; 'I' for Inactive)
REMARK    1  A    between atoms: C_1  and  C_13
REMARK    2  A    between atoms: C_2  and  N_7
REMARK    3  A    between atoms: N_7  and  S_9
REMARK                            x       y       z     vdW  Elec       q    Type
REMARK                         _______ _______ _______ _____ _____    ______ ____
ROOT
ATOM      1  C   UNL     1      34.670 -18.786 -22.212  0.00  0.00    -0.022 C 
ATOM      2  C   UNL     1      34.794 -16.994 -24.347  0.00  0.00    +0.065 C 
ATOM      3  C   UNL     1      34.783 -17.418 -21.968  0.00  0.00    -0.003 C 
ATOM      4  C   UNL     1      34.618 -19.259 -23.523  0.00  0.00    -0.003 C 
ATOM      5  C   UNL     1      34.845 -16.521 -23.035  0.00  0.00    +0.016 C 
ATOM      6  C   UNL     1      34.680 -18.363 -24.591  0.00  0.00    +0.016 C 
ENDROOT
BRANCH   2   7
ATOM      7  N   UNL     1      34.857 -16.077 -25.440  0.00  0.00    -0.213 N 
ATOM      8  H   UNL     1      35.713 -15.830 -25.858  0.00  0.00    +0.174 HD
BRANCH   7   9
ATOM      9  S   UNL     1      33.351 -15.422 -25.993  0.00  0.00    +0.091 S 
ATOM     10  O   UNL     1      33.755 -14.501 -27.277  0.00  0.00    -0.050 OA
ATOM     11  O   UNL     1      32.519 -16.510 -26.475  0.00  0.00    -0.050 OA
ATOM     12  O   UNL     1      32.851 -14.528 -24.966  0.00  0.00    -0.050 OA
ENDBRANCH   7   9
ENDBRANCH   2   7
BRANCH   1  13
ATOM     13  C   UNL     1      34.601 -19.745 -21.071  0.00  0.00    +0.026 C 
ATOM     14  C   UNL     1      33.169 -19.981 -20.598  0.00  0.00    +0.005 C 
ENDBRANCH   1  13
TORSDOF 3
ENDMDL
MODEL 6
REMARK VINA RESULT:      -6.8      4.744      5.855
REMARK  Name = 9547998
REMARK  3 active torsions:
REMARK  status: ('A' for Active; 'I' for Inactive)
REMARK    1  A    between atoms: C_1  and  C_13
REMARK    2  A    between atoms: C_2  and  N_7
REMARK    3  A    between atoms: N_7  and  S_9
REMARK                            x       y       z     vdW  Elec       q    Type
REMARK                         _______ _______ _______ _____ _____    ______ ____
ROOT
ATOM      1  C   UNL     1      35.230 -19.198 -21.459  0.00  0.00    -0.022 C 
ATOM      2  C   UNL     1      33.678 -20.892 -19.875  0.00  0.00    +0.065 C 
ATOM      3  C   UNL     1      35.844 -20.166 -20.664  0.00  0.00    -0.003 C 
ATOM      4  C   UNL     1      33.840 -19.077 -21.462  0.00  0.00    -0.003 C 
ATOM      5  C   UNL     1      35.068 -21.013 -19.871  0.00  0.00    +0.016 C 
ATOM      6  C   UNL     1      33.064 -19.924 -20.671  0.00  0.00    +0.016 C 
ENDROOT
BRANCH   2   7
ATOM      7  N   UNL     1      32.884 -21.758 -19.064  0.00  0.00    -0.213 N 
ATOM      8  H   UNL     1      31.917 -21.617 -18.950  0.00  0.00    +0.174 HD
BRANCH   7   9
ATOM      9  S   UNL     1      33.709 -23.073 -18.292  0.00  0.00    +0.091 S 
ATOM     10  O   UNL     1      32.708 -23.532 -17.091  0.00  0.00    -0.050 OA
ATOM     11  O   UNL     1      33.808 -24.177 -19.230  0.00  0.00    -0.050 OA
ATOM     12  O   UNL     1      34.908 -22.541 -17.672  0.00  0.00    -0.050 OA
ENDBRANCH   7   9
ENDBRANCH   2   7
BRANCH   1  13
ATOM     13  C   UNL     1      36.059 -18.294 -22.308  0.00  0.00    +0.026 C 
ATOM     14  C   UNL     1      35.273 -17.083 -22.805  0.00  0.00    +0.005 C 
ENDBRANCH   1  13
TORSDOF 3
ENDMDL
MODEL 7
REMARK VINA RESULT:      -6.8      8.242      9.432
REMARK  Name = 9547998
REMARK  3 active torsions:
REMARK  status: ('A' for Active; 'I' for Inactive)
REMARK    1  A    between atoms: C_1  and  C_13
REMARK    2  A    between atoms: C_2  and  N_7
REMARK    3  A    between atoms: N_7  and  S_9
REMARK                            x       y       z     vdW  Elec       q    Type
REMARK                         _______ _______ _______ _____ _____    ______ ____
ROOT
ATOM      1  C   UNL     1      36.597 -22.485 -16.512  0.00  0.00    -0.022 C 
ATOM      2  C   UNL     1      36.168 -24.238 -14.384  0.00  0.00    +0.065 C 
ATOM      3  C   UNL     1      35.297 -22.832 -16.145  0.00  0.00    -0.003 C 
ATOM      4  C   UNL     1      37.683 -23.014 -15.815  0.00  0.00    -0.003 C 
ATOM      5  C   UNL     1      35.082 -23.708 -15.081  0.00  0.00    +0.016 C 
ATOM      6  C   UNL     1      37.469 -23.890 -14.751  0.00  0.00    +0.016 C 
ENDROOT
BRANCH   2   7
ATOM      7  N   UNL     1      35.949 -25.135 -13.295  0.00  0.00    -0.213 N 
ATOM      8  H   UNL     1      35.662 -26.065 -13.441  0.00  0.00    +0.174 HD
BRANCH   7   9
ATOM      9  S   UNL     1      36.214 -24.504 -11.703  0.00  0.00    +0.091 S 
ATOM     10  O   UNL     1      37.733 -24.965 -11.330  0.00  0.00    -0.050 OA
ATOM     11  O   UNL     1      36.196 -23.054 -11.767  0.00  0.00    -0.050 OA
ATOM     12  O   UNL     1      35.321 -25.199 -10.795  0.00  0.00    -0.050 OA
ENDBRANCH   7   9
ENDBRANCH   2   7
BRANCH   1  13
ATOM     13  C   UNL     1      36.826 -21.546 -17.648  0.00  0.00    +0.026 C 
ATOM     14  C   UNL     1      35.863 -21.791 -18.807  0.00  0.00    +0.005 C 
ENDBRANCH   1  13
TORSDOF 3
ENDMDL
MODEL 8
REMARK VINA RESULT:      -6.7      1.595      2.350
REMARK  Name = 9547998
REMARK  3 active torsions:
REMARK  status: ('A' for Active; 'I' for Inactive)
REMARK    1  A    between atoms: C_1  and  C_13
REMARK    2  A    between atoms: C_2  and  N_7
REMARK    3  A    between atoms: N_7  and  S_9
REMARK                            x       y       z     vdW  Elec       q    Type
REMARK                         _______ _______ _______ _____ _____    ______ ____
ROOT
ATOM      1  C   UNL     1      34.219 -21.838 -18.977  0.00  0.00    -0.022 C 
ATOM      2  C   UNL     1      34.297 -20.001 -21.076  0.00  0.00    +0.065 C 
ATOM      3  C   UNL     1      35.436 -21.518 -19.579  0.00  0.00    -0.003 C 
ATOM      4  C   UNL     1      33.041 -21.239 -19.424  0.00  0.00    -0.003 C 
ATOM      5  C   UNL     1      35.475 -20.600 -20.629  0.00  0.00    +0.016 C 
ATOM      6  C   UNL     1      33.080 -20.320 -20.473  0.00  0.00    +0.016 C 
ENDROOT
BRANCH   2   7
ATOM      7  N   UNL     1      34.337 -19.061 -22.150  0.00  0.00    -0.213 N 
ATOM      8  H   UNL     1      33.805 -19.188 -22.968  0.00  0.00    +0.174 HD
BRANCH   7   9
ATOM      9  S   UNL     1      35.371 -17.686 -21.941  0.00  0.00    +0.091 S 
ATOM     10  O   UNL     1      36.875 -18.266 -22.184  0.00  0.00    -0.050 OA
ATOM     11  O   UNL     1      35.092 -16.728 -22.997  0.00  0.00    -0.050 OA
ATOM     12  O   UNL     1      35.289 -17.275 -20.552  0.00  0.00    -0.050 OA
ENDBRANCH   7   9
ENDBRANCH   2   7
BRANCH   1  13
ATOM     13  C   UNL     1      34.176 -22.818 -17.853  0.00  0.00    +0.026 C 
ATOM     14  C   UNL     1      32.762 -23.026 -17.319  0.00  0.00    +0.005 C 
ENDBRANCH   1  13
TORSDOF 3
ENDMDL
MODEL 9
REMARK VINA RESULT:      -6.6      8.998     10.140
REMARK  Name = 9547998
REMARK  3 active torsions:
REMARK  status: ('A' for Active; 'I' for Inactive)
REMARK    1  A    between atoms: C_1  and  C_13
REMARK    2  A    between atoms: C_2  and  N_7
REMARK    3  A    between atoms: N_7  and  S_9
REMARK                            x       y       z     vdW  Elec       q    Type
REMARK                         _______ _______ _______ _____ _____    ______ ____
ROOT
ATOM      1  C   UNL     1      35.704 -23.839 -15.360  0.00  0.00    -0.022 C 
ATOM      2  C   UNL     1      37.790 -25.517 -14.575  0.00  0.00    +0.065 C 
ATOM      3  C   UNL     1      35.438 -25.159 -14.997  0.00  0.00    -0.003 C 
ATOM      4  C   UNL     1      37.012 -23.357 -15.330  0.00  0.00    -0.003 C 
ATOM      5  C   UNL     1      36.481 -25.999 -14.605  0.00  0.00    +0.016 C 
ATOM      6  C   UNL     1      38.055 -24.195 -14.938  0.00  0.00    +0.016 C 
ENDROOT
BRANCH   2   7
ATOM      7  N   UNL     1      38.858 -26.375 -14.174  0.00  0.00    -0.213 N 
ATOM      8  H   UNL     1      38.694 -27.200 -13.662  0.00  0.00    +0.174 HD
BRANCH   7   9
ATOM      9  S   UNL     1      40.458 -25.893 -14.635  0.00  0.00    +0.091 S 
ATOM     10  O   UNL     1      41.431 -27.010 -13.953  0.00  0.00    -0.050 OA
ATOM     11  O   UNL     1      40.586 -26.017 -16.076  0.00  0.00    -0.050 OA
ATOM     12  O   UNL     1      40.743 -24.625 -13.989  0.00  0.00    -0.050 OA
ENDBRANCH   7   9
ENDBRANCH   2   7
BRANCH   1  13
ATOM     13  C   UNL     1      34.588 -22.940 -15.777  0.00  0.00    +0.026 C 
ATOM     14  C   UNL     1      33.919 -23.407 -17.067  0.00  0.00    +0.005 C 
ENDBRANCH   1  13
TORSDOF 3
ENDMDL
