MODEL 1
REMARK VINA RESULT:      -5.1      0.000      0.000
REMARK  Name = 17754068
REMARK  7 active torsions:
REMARK  status: ('A' for Active; 'I' for Inactive)
REMARK    1  A    between atoms: C_1  and  C_4
REMARK    2  A    between atoms: C_1  and  N_7
REMARK    3  A    between atoms: C_1  and  C_11
REMARK    4  A    between atoms: C_11  and  C_12
REMARK    5  A    between atoms: C_12  and  C_13
REMARK    6  A    between atoms: C_13  and  C_14
REMARK    7  A    between atoms: C_14  and  N_15
REMARK                            x       y       z     vdW  Elec       q    Type
REMARK                         _______ _______ _______ _____ _____    ______ ____
ROOT
ATOM      1  C   UNL     1      35.756 -18.477 -21.535  0.00  0.00    +0.013 C 
ENDROOT
BRANCH   1   4
ATOM      2  O   UNL     1      35.334 -18.961 -23.875  0.00  0.00    -0.278 OA
ATOM      3  N   UNL     1      35.629 -16.770 -23.250  0.00  0.00    -0.330 N 
ATOM      4  C   UNL     1      35.559 -18.125 -23.003  0.00  0.00    +0.199 C 
ATOM      5  H   UNL     1      35.516 -16.431 -24.167  0.00  0.00    +0.145 HD
ATOM      6  H   UNL     1      35.793 -16.142 -22.509  0.00  0.00    +0.145 HD
ENDBRANCH   1   4
BRANCH   1   7
ATOM      7  N   UNL     1      35.290 -17.310 -20.783  0.00  0.00    +0.387 N 
ATOM      8  H   UNL     1      35.378 -16.475 -21.363  0.00  0.00    -0.089 HD
ATOM      9  H   UNL     1      35.856 -17.199 -19.941  0.00  0.00    -0.089 HD
ATOM     10  H   UNL     1      34.314 -17.442 -20.522  0.00  0.00    -0.089 HD
ENDBRANCH   1   7
BRANCH   1  11
ATOM     11  C   UNL     1      34.962 -19.725 -21.120  0.00  0.00    -0.013 C 
BRANCH  11  12
ATOM     12  C   UNL     1      33.472 -19.421 -20.927  0.00  0.00    -0.004 C 
BRANCH  12  13
ATOM     13  C   UNL     1      32.775 -20.536 -20.147  0.00  0.00    -0.024 C 
BRANCH  13  14
ATOM     14  C   UNL     1      33.789 -21.484 -19.524  0.00  0.00    -0.086 C 
BRANCH  14  15
ATOM     15  N   UNL     1      33.072 -22.513 -18.735  0.00  0.00    +0.380 N 
ATOM     16  H   UNL     1      32.957 -22.188 -17.775  0.00  0.00    -0.089 HD
ATOM     17  H   UNL     1      33.610 -23.380 -18.738  0.00  0.00    -0.089 HD
ATOM     18  H   UNL     1      32.155 -22.680 -19.149  0.00  0.00    -0.089 HD
ENDBRANCH  14  15
ENDBRANCH  13  14
ENDBRANCH  12  13
ENDBRANCH  11  12
ENDBRANCH   1  11
TORSDOF 7
ENDMDL
MODEL 2
REMARK VINA RESULT:      -5.1      1.355      1.628
REMARK  Name = 17754068
REMARK  7 active torsions:
REMARK  status: ('A' for Active; 'I' for Inactive)
REMARK    1  A    between atoms: C_1  and  C_4
REMARK    2  A    between atoms: C_1  and  N_7
REMARK    3  A    between atoms: C_1  and  C_11
REMARK    4  A    between atoms: C_11  and  C_12
REMARK    5  A    between atoms: C_12  and  C_13
REMARK    6  A    between atoms: C_13  and  C_14
REMARK    7  A    between atoms: C_14  and  N_15
REMARK                            x       y       z     vdW  Elec       q    Type
REMARK                         _______ _______ _______ _____ _____    ______ ____
ROOT
ATOM      1  C   UNL     1      35.472 -18.608 -23.641  0.00  0.00    +0.013 C 
ENDROOT
BRANCH   1   4
ATOM      2  O   UNL     1      34.355 -17.544 -25.514  0.00  0.00    -0.278 OA
ATOM      3  N   UNL     1      35.250 -16.206 -23.874  0.00  0.00    -0.330 N 
ATOM      4  C   UNL     1      34.970 -17.424 -24.457  0.00  0.00    +0.199 C 
ATOM      5  H   UNL     1      34.970 -15.373 -24.317  0.00  0.00    +0.145 HD
ATOM      6  H   UNL     1      35.730 -16.170 -23.015  0.00  0.00    +0.145 HD
ENDBRANCH   1   4
BRANCH   1   7
ATOM      7  N   UNL     1      36.428 -18.050 -22.682  0.00  0.00    +0.387 N 
ATOM      8  H   UNL     1      36.063 -17.171 -22.311  0.00  0.00    -0.089 HD
ATOM      9  H   UNL     1      37.317 -17.876 -23.151  0.00  0.00    -0.089 HD
ATOM     10  H   UNL     1      36.568 -18.709 -21.918  0.00  0.00    -0.089 HD
ENDBRANCH   1   7
BRANCH   1  11
ATOM     11  C   UNL     1      34.338 -19.329 -22.898  0.00  0.00    -0.013 C 
BRANCH  11  12
ATOM     12  C   UNL     1      34.347 -19.022 -21.396  0.00  0.00    -0.004 C 
BRANCH  12  13
ATOM     13  C   UNL     1      33.302 -19.854 -20.653  0.00  0.00    -0.024 C 
BRANCH  13  14
ATOM     14  C   UNL     1      33.955 -20.997 -19.889  0.00  0.00    -0.086 C 
BRANCH  14  15
ATOM     15  N   UNL     1      32.903 -21.920 -19.402  0.00  0.00    +0.380 N 
ATOM     16  H   UNL     1      32.173 -21.385 -18.931  0.00  0.00    -0.089 HD
ATOM     17  H   UNL     1      33.311 -22.587 -18.747  0.00  0.00    -0.089 HD
ATOM     18  H   UNL     1      32.498 -22.422 -20.192  0.00  0.00    -0.089 HD
ENDBRANCH  14  15
ENDBRANCH  13  14
ENDBRANCH  12  13
ENDBRANCH  11  12
ENDBRANCH   1  11
TORSDOF 7
ENDMDL
MODEL 3
REMARK VINA RESULT:      -5.0      3.526      5.282
REMARK  Name = 17754068
REMARK  7 active torsions:
REMARK  status: ('A' for Active; 'I' for Inactive)
REMARK    1  A    between atoms: C_1  and  C_4
REMARK    2  A    between atoms: C_1  and  N_7
REMARK    3  A    between atoms: C_1  and  C_11
REMARK    4  A    between atoms: C_11  and  C_12
REMARK    5  A    between atoms: C_12  and  C_13
REMARK    6  A    between atoms: C_13  and  C_14
REMARK    7  A    between atoms: C_14  and  N_15
REMARK                            x       y       z     vdW  Elec       q    Type
REMARK                         _______ _______ _______ _____ _____    ______ ____
ROOT
ATOM      1  C   UNL     1      34.610 -16.930 -21.479  0.00  0.00    +0.013 C 
ENDROOT
BRANCH   1   4
ATOM      2  O   UNL     1      35.276 -15.633 -23.419  0.00  0.00    -0.278 OA
ATOM      3  N   UNL     1      35.815 -17.866 -23.362  0.00  0.00    -0.330 N 
ATOM      4  C   UNL     1      35.247 -16.720 -22.846  0.00  0.00    +0.199 C 
ATOM      5  H   UNL     1      36.255 -17.843 -24.241  0.00  0.00    +0.145 HD
ATOM      6  H   UNL     1      35.779 -18.706 -22.850  0.00  0.00    +0.145 HD
ENDBRANCH   1   4
BRANCH   1   7
ATOM      7  N   UNL     1      35.511 -17.830 -20.757  0.00  0.00    +0.387 N 
ATOM      8  H   UNL     1      35.011 -18.685 -20.510  0.00  0.00    -0.089 HD
ATOM      9  H   UNL     1      35.840 -17.372 -19.906  0.00  0.00    -0.089 HD
ATOM     10  H   UNL     1      36.308 -18.061 -21.349  0.00  0.00    -0.089 HD
ENDBRANCH   1   7
BRANCH   1  11
ATOM     11  C   UNL     1      34.441 -15.615 -20.703  0.00  0.00    -0.013 C 
BRANCH  11  12
ATOM     12  C   UNL     1      32.968 -15.221 -20.552  0.00  0.00    -0.004 C 
BRANCH  12  13
ATOM     13  C   UNL     1      32.723 -13.792 -21.037  0.00  0.00    -0.024 C 
BRANCH  13  14
ATOM     14  C   UNL     1      32.428 -13.763 -22.529  0.00  0.00    -0.086 C 
BRANCH  14  15
ATOM     15  N   UNL     1      33.575 -13.150 -23.240  0.00  0.00    +0.380 N 
ATOM     16  H   UNL     1      34.327 -12.965 -22.576  0.00  0.00    -0.089 HD
ATOM     17  H   UNL     1      33.279 -12.273 -23.670  0.00  0.00    -0.089 HD
ATOM     18  H   UNL     1      33.908 -13.788 -23.962  0.00  0.00    -0.089 HD
ENDBRANCH  14  15
ENDBRANCH  13  14
ENDBRANCH  12  13
ENDBRANCH  11  12
ENDBRANCH   1  11
TORSDOF 7
ENDMDL
MODEL 4
REMARK VINA RESULT:      -5.0      2.200      2.403
REMARK  Name = 17754068
REMARK  7 active torsions:
REMARK  status: ('A' for Active; 'I' for Inactive)
REMARK    1  A    between atoms: C_1  and  C_4
REMARK    2  A    between atoms: C_1  and  N_7
REMARK    3  A    between atoms: C_1  and  C_11
REMARK    4  A    between atoms: C_11  and  C_12
REMARK    5  A    between atoms: C_12  and  C_13
REMARK    6  A    between atoms: C_13  and  C_14
REMARK    7  A    between atoms: C_14  and  N_15
REMARK                            x       y       z     vdW  Elec       q    Type
REMARK                         _______ _______ _______ _____ _____    ______ ____
ROOT
ATOM      1  C   UNL     1      34.595 -16.981 -22.126  0.00  0.00    +0.013 C 
ENDROOT
BRANCH   1   4
ATOM      2  O   UNL     1      34.902 -15.588 -20.162  0.00  0.00    -0.278 OA
ATOM      3  N   UNL     1      34.388 -14.567 -22.155  0.00  0.00    -0.330 N 
ATOM      4  C   UNL     1      34.641 -15.665 -21.361  0.00  0.00    +0.199 C 
ATOM      5  H   UNL     1      34.392 -13.664 -21.763  0.00  0.00    +0.145 HD
ATOM      6  H   UNL     1      34.202 -14.685 -23.115  0.00  0.00    +0.145 HD
ENDBRANCH   1   4
BRANCH   1   7
ATOM      7  N   UNL     1      35.597 -16.856 -23.186  0.00  0.00    +0.387 N 
ATOM      8  H   UNL     1      36.477 -16.530 -22.786  0.00  0.00    -0.089 HD
ATOM      9  H   UNL     1      35.272 -16.184 -23.883  0.00  0.00    -0.089 HD
ATOM     10  H   UNL     1      35.739 -17.763 -23.628  0.00  0.00    -0.089 HD
ENDBRANCH   1   7
BRANCH   1  11
ATOM     11  C   UNL     1      34.918 -18.188 -21.233  0.00  0.00    -0.013 C 
BRANCH  11  12
ATOM     12  C   UNL     1      34.196 -19.457 -21.700  0.00  0.00    -0.004 C 
BRANCH  12  13
ATOM     13  C   UNL     1      33.242 -19.980 -20.625  0.00  0.00    -0.024 C 
BRANCH  13  14
ATOM     14  C   UNL     1      33.905 -21.061 -19.784  0.00  0.00    -0.086 C 
BRANCH  14  15
ATOM     15  N   UNL     1      32.889 -22.067 -19.397  0.00  0.00    +0.380 N 
ATOM     16  H   UNL     1      32.211 -22.174 -20.152  0.00  0.00    -0.089 HD
ATOM     17  H   UNL     1      32.409 -21.759 -18.551  0.00  0.00    -0.089 HD
ATOM     18  H   UNL     1      33.345 -22.962 -19.222  0.00  0.00    -0.089 HD
ENDBRANCH  14  15
ENDBRANCH  13  14
ENDBRANCH  12  13
ENDBRANCH  11  12
ENDBRANCH   1  11
TORSDOF 7
ENDMDL
MODEL 5
REMARK VINA RESULT:      -5.0      1.394      1.467
REMARK  Name = 17754068
REMARK  7 active torsions:
REMARK  status: ('A' for Active; 'I' for Inactive)
REMARK    1  A    between atoms: C_1  and  C_4
REMARK    2  A    between atoms: C_1  and  N_7
REMARK    3  A    between atoms: C_1  and  C_11
REMARK    4  A    between atoms: C_11  and  C_12
REMARK    5  A    between atoms: C_12  and  C_13
REMARK    6  A    between atoms: C_13  and  C_14
REMARK    7  A    between atoms: C_14  and  N_15
REMARK                            x       y       z     vdW  Elec       q    Type
REMARK                         _______ _______ _______ _____ _____    ______ ____
ROOT
ATOM      1  C   UNL     1      35.098 -17.360 -21.374  0.00  0.00    +0.013 C 
ENDROOT
BRANCH   1   4
ATOM      2  O   UNL     1      35.313 -15.784 -23.207  0.00  0.00    -0.278 OA
ATOM      3  N   UNL     1      35.737 -18.004 -23.621  0.00  0.00    -0.330 N 
ATOM      4  C   UNL     1      35.377 -16.946 -22.813  0.00  0.00    +0.199 C 
ATOM      5  H   UNL     1      35.939 -17.850 -24.572  0.00  0.00    +0.145 HD
ATOM      6  H   UNL     1      35.790 -18.913 -23.247  0.00  0.00    +0.145 HD
ENDBRANCH   1   4
BRANCH   1   7
ATOM      7  N   UNL     1      34.754 -16.124 -20.668  0.00  0.00    +0.387 N 
ATOM      8  H   UNL     1      34.425 -15.429 -21.339  0.00  0.00    -0.089 HD
ATOM      9  H   UNL     1      35.580 -15.766 -20.187  0.00  0.00    -0.089 HD
ATOM     10  H   UNL     1      34.020 -16.314 -19.988  0.00  0.00    -0.089 HD
ENDBRANCH   1   7
BRANCH   1  11
ATOM     11  C   UNL     1      33.945 -18.368 -21.268  0.00  0.00    -0.013 C 
BRANCH  11  12
ATOM     12  C   UNL     1      34.426 -19.745 -20.794  0.00  0.00    -0.004 C 
BRANCH  12  13
ATOM     13  C   UNL     1      33.296 -20.528 -20.125  0.00  0.00    -0.024 C 
BRANCH  13  14
ATOM     14  C   UNL     1      33.831 -21.764 -19.417  0.00  0.00    -0.086 C 
BRANCH  14  15
ATOM     15  N   UNL     1      32.753 -22.357 -18.592  0.00  0.00    +0.380 N 
ATOM     16  H   UNL     1      32.075 -22.818 -19.199  0.00  0.00    -0.089 HD
ATOM     17  H   UNL     1      32.288 -21.621 -18.060  0.00  0.00    -0.089 HD
ATOM     18  H   UNL     1      33.153 -23.040 -17.949  0.00  0.00    -0.089 HD
ENDBRANCH  14  15
ENDBRANCH  13  14
ENDBRANCH  12  13
ENDBRANCH  11  12
ENDBRANCH   1  11
TORSDOF 7
ENDMDL
MODEL 6
REMARK VINA RESULT:      -5.0      9.799     10.466
REMARK  Name = 17754068
REMARK  7 active torsions:
REMARK  status: ('A' for Active; 'I' for Inactive)
REMARK    1  A    between atoms: C_1  and  C_4
REMARK    2  A    between atoms: C_1  and  N_7
REMARK    3  A    between atoms: C_1  and  C_11
REMARK    4  A    between atoms: C_11  and  C_12
REMARK    5  A    between atoms: C_12  and  C_13
REMARK    6  A    between atoms: C_13  and  C_14
REMARK    7  A    between atoms: C_14  and  N_15
REMARK                            x       y       z     vdW  Elec       q    Type
REMARK                         _______ _______ _______ _____ _____    ______ ____
ROOT
ATOM      1  C   UNL     1      37.980 -26.308 -14.472  0.00  0.00    +0.013 C 
ENDROOT
BRANCH   1   4
ATOM      2  O   UNL     1      36.713 -27.375 -16.246  0.00  0.00    -0.278 OA
ATOM      3  N   UNL     1      35.614 -25.934 -14.834  0.00  0.00    -0.330 N 
ATOM      4  C   UNL     1      36.730 -26.601 -15.291  0.00  0.00    +0.199 C 
ATOM      5  H   UNL     1      34.750 -26.051 -15.291  0.00  0.00    +0.145 HD
ATOM      6  H   UNL     1      35.681 -25.340 -14.052  0.00  0.00    +0.145 HD
ENDBRANCH   1   4
BRANCH   1   7
ATOM      7  N   UNL     1      38.619 -25.163 -15.123  0.00  0.00    +0.387 N 
ATOM      8  H   UNL     1      37.926 -24.431 -15.281  0.00  0.00    -0.089 HD
ATOM      9  H   UNL     1      39.012 -25.457 -16.018  0.00  0.00    -0.089 HD
ATOM     10  H   UNL     1      39.363 -24.804 -14.527  0.00  0.00    -0.089 HD
ENDBRANCH   1   7
BRANCH   1  11
ATOM     11  C   UNL     1      37.656 -25.971 -13.009  0.00  0.00    -0.013 C 
BRANCH  11  12
ATOM     12  C   UNL     1      38.416 -24.732 -12.522  0.00  0.00    -0.004 C 
BRANCH  12  13
ATOM     13  C   UNL     1      37.457 -23.659 -12.006  0.00  0.00    -0.024 C 
BRANCH  13  14
ATOM     14  C   UNL     1      36.128 -24.270 -11.585  0.00  0.00    -0.086 C 
BRANCH  14  15
ATOM     15  N   UNL     1      35.027 -23.567 -12.284  0.00  0.00    +0.380 N 
ATOM     16  H   UNL     1      35.154 -23.653 -13.293  0.00  0.00    -0.089 HD
ATOM     17  H   UNL     1      35.034 -22.580 -12.024  0.00  0.00    -0.089 HD
ATOM     18  H   UNL     1      34.135 -23.983 -12.018  0.00  0.00    -0.089 HD
ENDBRANCH  14  15
ENDBRANCH  13  14
ENDBRANCH  12  13
ENDBRANCH  11  12
ENDBRANCH   1  11
TORSDOF 7
ENDMDL
MODEL 7
REMARK VINA RESULT:      -5.0     10.252     10.909
REMARK  Name = 17754068
REMARK  7 active torsions:
REMARK  status: ('A' for Active; 'I' for Inactive)
REMARK    1  A    between atoms: C_1  and  C_4
REMARK    2  A    between atoms: C_1  and  N_7
REMARK    3  A    between atoms: C_1  and  C_11
REMARK    4  A    between atoms: C_11  and  C_12
REMARK    5  A    between atoms: C_12  and  C_13
REMARK    6  A    between atoms: C_13  and  C_14
REMARK    7  A    between atoms: C_14  and  N_15
REMARK                            x       y       z     vdW  Elec       q    Type
REMARK                         _______ _______ _______ _____ _____    ______ ____
ROOT
ATOM      1  C   UNL     1      36.416 -23.429 -12.141  0.00  0.00    +0.013 C 
ENDROOT
BRANCH   1   4
ATOM      2  O   UNL     1      35.319 -25.119 -10.788  0.00  0.00    -0.278 OA
ATOM      3  N   UNL     1      34.488 -24.694 -12.888  0.00  0.00    -0.330 N 
ATOM      4  C   UNL     1      35.376 -24.503 -11.850  0.00  0.00    +0.199 C 
ATOM      5  H   UNL     1      33.774 -25.366 -12.806  0.00  0.00    +0.145 HD
ATOM      6  H   UNL     1      34.570 -24.159 -13.709  0.00  0.00    +0.145 HD
ENDBRANCH   1   4
BRANCH   1   7
ATOM      7  N   UNL     1      37.144 -23.235 -10.886  0.00  0.00    +0.387 N 
ATOM      8  H   UNL     1      38.122 -23.498 -11.017  0.00  0.00    -0.089 HD
ATOM      9  H   UNL     1      36.731 -23.820 -10.159  0.00  0.00    -0.089 HD
ATOM     10  H   UNL     1      37.089 -22.257 -10.608  0.00  0.00    -0.089 HD
ENDBRANCH   1   7
BRANCH   1  11
ATOM     11  C   UNL     1      37.386 -23.841 -13.258  0.00  0.00    -0.013 C 
BRANCH  11  12
ATOM     12  C   UNL     1      38.205 -25.080 -12.880  0.00  0.00    -0.004 C 
BRANCH  12  13
ATOM     13  C   UNL     1      38.237 -26.095 -14.024  0.00  0.00    -0.024 C 
BRANCH  13  14
ATOM     14  C   UNL     1      37.147 -25.802 -15.044  0.00  0.00    -0.086 C 
BRANCH  14  15
ATOM     15  N   UNL     1      36.183 -26.928 -15.063  0.00  0.00    +0.380 N 
ATOM     16  H   UNL     1      35.819 -27.049 -16.008  0.00  0.00    -0.089 HD
ATOM     17  H   UNL     1      35.413 -26.727 -14.424  0.00  0.00    -0.089 HD
ATOM     18  H   UNL     1      36.654 -27.783 -14.769  0.00  0.00    -0.089 HD
ENDBRANCH  14  15
ENDBRANCH  13  14
ENDBRANCH  12  13
ENDBRANCH  11  12
ENDBRANCH   1  11
TORSDOF 7
ENDMDL
MODEL 8
REMARK VINA RESULT:      -4.9      2.261      5.165
REMARK  Name = 17754068
REMARK  7 active torsions:
REMARK  status: ('A' for Active; 'I' for Inactive)
REMARK    1  A    between atoms: C_1  and  C_4
REMARK    2  A    between atoms: C_1  and  N_7
REMARK    3  A    between atoms: C_1  and  C_11
REMARK    4  A    between atoms: C_11  and  C_12
REMARK    5  A    between atoms: C_12  and  C_13
REMARK    6  A    between atoms: C_13  and  C_14
REMARK    7  A    between atoms: C_14  and  N_15
REMARK                            x       y       z     vdW  Elec       q    Type
REMARK                         _______ _______ _______ _____ _____    ______ ____
ROOT
ATOM      1  C   UNL     1      33.729 -21.122 -20.263  0.00  0.00    +0.013 C 
ENDROOT
BRANCH   1   4
ATOM      2  O   UNL     1      35.106 -22.481 -18.797  0.00  0.00    -0.278 OA
ATOM      3  N   UNL     1      32.833 -22.466 -18.457  0.00  0.00    -0.330 N 
ATOM      4  C   UNL     1      33.984 -22.092 -19.117  0.00  0.00    +0.199 C 
ATOM      5  H   UNL     1      32.883 -23.091 -17.699  0.00  0.00    +0.145 HD
ATOM      6  H   UNL     1      31.963 -22.108 -18.745  0.00  0.00    +0.145 HD
ENDBRANCH   1   4
BRANCH   1   7
ATOM      7  N   UNL     1      32.552 -20.346 -19.870  0.00  0.00    +0.387 N 
ATOM      8  H   UNL     1      32.710 -19.359 -20.076  0.00  0.00    -0.089 HD
ATOM      9  H   UNL     1      32.387 -20.461 -18.869  0.00  0.00    -0.089 HD
ATOM     10  H   UNL     1      31.739 -20.676 -20.388  0.00  0.00    -0.089 HD
ENDBRANCH   1   7
BRANCH   1  11
ATOM     11  C   UNL     1      34.921 -20.185 -20.513  0.00  0.00    -0.013 C 
BRANCH  11  12
ATOM     12  C   UNL     1      34.546 -19.009 -21.423  0.00  0.00    -0.004 C 
BRANCH  12  13
ATOM     13  C   UNL     1      34.815 -19.337 -22.892  0.00  0.00    -0.024 C 
BRANCH  13  14
ATOM     14  C   UNL     1      34.832 -18.074 -23.740  0.00  0.00    -0.086 C 
BRANCH  14  15
ATOM     15  N   UNL     1      35.763 -17.093 -23.133  0.00  0.00    +0.380 N 
ATOM     16  H   UNL     1      35.795 -17.234 -22.123  0.00  0.00    -0.089 HD
ATOM     17  H   UNL     1      35.440 -16.147 -23.335  0.00  0.00    -0.089 HD
ATOM     18  H   UNL     1      36.697 -17.224 -23.523  0.00  0.00    -0.089 HD
ENDBRANCH  14  15
ENDBRANCH  13  14
ENDBRANCH  12  13
ENDBRANCH  11  12
ENDBRANCH   1  11
TORSDOF 7
ENDMDL
MODEL 9
REMARK VINA RESULT:      -4.9      1.622      1.825
REMARK  Name = 17754068
REMARK  7 active torsions:
REMARK  status: ('A' for Active; 'I' for Inactive)
REMARK    1  A    between atoms: C_1  and  C_4
REMARK    2  A    between atoms: C_1  and  N_7
REMARK    3  A    between atoms: C_1  and  C_11
REMARK    4  A    between atoms: C_11  and  C_12
REMARK    5  A    between atoms: C_12  and  C_13
REMARK    6  A    between atoms: C_13  and  C_14
REMARK    7  A    between atoms: C_14  and  N_15
REMARK                            x       y       z     vdW  Elec       q    Type
REMARK                         _______ _______ _______ _____ _____    ______ ____
ROOT
ATOM      1  C   UNL     1      35.115 -18.722 -21.368  0.00  0.00    +0.013 C 
ENDROOT
BRANCH   1   4
ATOM      2  O   UNL     1      34.914 -19.373 -23.697  0.00  0.00    -0.278 OA
ATOM      3  N   UNL     1      35.803 -17.310 -23.213  0.00  0.00    -0.330 N 
ATOM      4  C   UNL     1      35.264 -18.532 -22.871  0.00  0.00    +0.199 C 
ATOM      5  H   UNL     1      35.943 -17.082 -24.160  0.00  0.00    +0.145 HD
ATOM      6  H   UNL     1      36.048 -16.666 -22.510  0.00  0.00    +0.145 HD
ENDBRANCH   1   4
BRANCH   1   7
ATOM      7  N   UNL     1      35.201 -17.380 -20.790  0.00  0.00    +0.387 N 
ATOM      8  H   UNL     1      35.181 -16.686 -21.538  0.00  0.00    -0.089 HD
ATOM      9  H   UNL     1      36.073 -17.290 -20.268  0.00  0.00    -0.089 HD
ATOM     10  H   UNL     1      34.412 -17.228 -20.164  0.00  0.00    -0.089 HD
ENDBRANCH   1   7
BRANCH   1  11
ATOM     11  C   UNL     1      33.777 -19.376 -20.990  0.00  0.00    -0.013 C 
BRANCH  11  12
ATOM     12  C   UNL     1      33.975 -20.661 -20.177  0.00  0.00    -0.004 C 
BRANCH  12  13
ATOM     13  C   UNL     1      35.459 -20.987 -20.006  0.00  0.00    -0.024 C 
BRANCH  13  14
ATOM     14  C   UNL     1      35.696 -21.814 -18.751  0.00  0.00    -0.086 C 
BRANCH  14  15
ATOM     15  N   UNL     1      36.796 -21.204 -17.967  0.00  0.00    +0.380 N 
ATOM     16  H   UNL     1      37.483 -20.799 -18.603  0.00  0.00    -0.089 HD
ATOM     17  H   UNL     1      37.243 -21.919 -17.393  0.00  0.00    -0.089 HD
ATOM     18  H   UNL     1      36.419 -20.472 -17.365  0.00  0.00    -0.089 HD
ENDBRANCH  14  15
ENDBRANCH  13  14
ENDBRANCH  12  13
ENDBRANCH  11  12
ENDBRANCH   1  11
TORSDOF 7
ENDMDL
