MODEL 1
REMARK VINA RESULT:      -9.4      0.000      0.000
REMARK  Name = 59239165
REMARK  4 active torsions:
REMARK  status: ('A' for Active; 'I' for Inactive)
REMARK    1  A    between atoms: N_2  and  C_34
REMARK    2  A    between atoms: C_17  and  C_19
REMARK    3  A    between atoms: C_24  and  N_26
REMARK    4  A    between atoms: N_27  and  C_31
REMARK                            x       y       z     vdW  Elec       q    Type
REMARK                         _______ _______ _______ _____ _____    ______ ____
ROOT
ATOM      1  O   UNL     1      29.337 -23.221 -14.029  0.00  0.00    -0.350 OA
ATOM      2  N   UNL     1      36.530 -25.583 -14.186  0.00  0.00    +0.396 N 
ATOM      3  N   UNL     1      31.942 -23.625 -15.009  0.00  0.00    -0.283 N 
ATOM      4  N   UNL     1      35.619 -23.182 -16.846  0.00  0.00    -0.350 NA
ATOM      5  N   UNL     1      33.250 -22.750 -16.758  0.00  0.00    -0.329 NA
ATOM      6  C   UNL     1      35.572 -25.164 -13.153  0.00  0.00    -0.076 C 
ATOM      7  C   UNL     1      36.777 -24.477 -15.127  0.00  0.00    -0.020 C 
ATOM      8  C   UNL     1      34.202 -24.894 -13.789  0.00  0.00    -0.008 C 
ATOM      9  C   UNL     1      34.301 -24.063 -15.031  0.00  0.00    +0.112 C 
ATOM     10  C   UNL     1      35.508 -23.899 -15.705  0.00  0.00    +0.086 C 
ATOM     11  C   UNL     1      33.198 -23.469 -15.618  0.00  0.00    +0.178 C 
ATOM     12  C   UNL     1      30.784 -24.110 -15.789  0.00  0.00    +0.104 C 
ATOM     13  C   UNL     1      31.656 -22.560 -14.033  0.00  0.00    +0.125 C 
ATOM     14  C   UNL     1      29.607 -24.368 -14.834  0.00  0.00    +0.162 C 
ATOM     15  C   UNL     1      30.451 -22.935 -13.187  0.00  0.00    +0.164 C 
ATOM     16  C   UNL     1      31.088 -25.419 -16.525  0.00  0.00    +0.024 C 
ATOM     17  C   UNL     1      34.473 -22.648 -17.309  0.00  0.00    +0.138 C 
ATOM     18  H   UNL     1      36.141 -26.376 -14.695  0.00  0.00    -0.079 HD
ENDROOT
BRANCH  17  19
ATOM     19  C   UNL     1      34.567 -21.883 -18.525  0.00  0.00    +0.086 C 
ATOM     20  C   UNL     1      33.406 -21.440 -19.161  0.00  0.00    +0.013 C 
ATOM     21  C   UNL     1      35.816 -21.584 -19.067  0.00  0.00    +0.013 C 
ATOM     22  C   UNL     1      33.497 -20.699 -20.340  0.00  0.00    +0.015 C 
ATOM     23  C   UNL     1      35.907 -20.843 -20.245  0.00  0.00    +0.015 C 
ATOM     24  C   UNL     1      34.748 -20.400 -20.881  0.00  0.00    +0.052 C 
BRANCH  24  26
ATOM     25  O   UNL     1      34.612 -17.436 -21.326  0.00  0.00    -0.252 OA
ATOM     26  N   UNL     1      34.838 -19.659 -22.060  0.00  0.00    -0.268 N 
ATOM     27  N   UNL     1      34.902 -17.909 -23.571  0.00  0.00    -0.289 N 
ATOM     28  C   UNL     1      34.768 -18.260 -22.224  0.00  0.00    +0.304 C 
ATOM     29  H   UNL     1      34.966 -20.180 -22.884  0.00  0.00    +0.156 HD
ATOM     30  H   UNL     1      35.024 -18.627 -24.233  0.00  0.00    +0.151 HD
BRANCH  27  31
ATOM     31  C   UNL     1      34.869 -16.542 -24.035  0.00  0.00    +0.091 C 
ATOM     32  C   UNL     1      34.107 -16.417 -25.339  0.00  0.00    +0.023 C 
ENDBRANCH  27  31
ENDBRANCH  24  26
ENDBRANCH  17  19
BRANCH   2  34
ATOM     33  O   UNL     1      38.945 -24.299 -12.871  0.00  0.00    -0.358 OA
ATOM     34  C   UNL     1      37.800 -25.969 -13.549  0.00  0.00    +0.003 C 
ATOM     35  C   UNL     1      38.909 -25.074 -14.091  0.00  0.00    +0.124 C 
ATOM     36  C   UNL     1      37.963 -25.168 -12.262  0.00  0.00    +0.124 C 
ENDBRANCH   2  34
TORSDOF 4
ENDMDL
