MODEL 1
REMARK VINA RESULT:     -10.1      0.000      0.000
REMARK  Name = 134780
REMARK  2 active torsions:
REMARK  status: ('A' for Active; 'I' for Inactive)
REMARK    1  A    between atoms: N_3  and  C_15
REMARK    2  A    between atoms: C_8  and  N_21
REMARK                            x       y       z     vdW  Elec       q    Type
REMARK                         _______ _______ _______ _____ _____    ______ ____
ROOT
ATOM      1  O   UNL     1      33.240 -19.592 -21.716  0.00  0.00    -0.269 OA
ATOM      2  O   UNL     1      37.803 -19.019 -21.180  0.00  0.00    -0.269 OA
ATOM      3  N   UNL     1      35.519 -19.016 -21.756  0.00  0.00    -0.216 N 
ATOM      4  C   UNL     1      34.389 -19.677 -21.325  0.00  0.00    +0.257 C 
ATOM      5  C   UNL     1      36.650 -19.390 -21.062  0.00  0.00    +0.255 C 
ATOM      6  C   UNL     1      34.835 -20.554 -20.242  0.00  0.00    +0.071 C 
ATOM      7  C   UNL     1      36.202 -20.381 -20.084  0.00  0.00    +0.060 C 
ATOM      8  C   UNL     1      34.114 -21.433 -19.459  0.00  0.00    +0.046 C 
ATOM      9  C   UNL     1      36.921 -21.077 -19.134  0.00  0.00    +0.005 C 
ATOM     10  C   UNL     1      34.822 -22.149 -18.489  0.00  0.00    +0.014 C 
ATOM     11  C   UNL     1      36.211 -21.973 -18.328  0.00  0.00    +0.001 C 
ENDROOT
BRANCH   3  15
ATOM     12  O   UNL     1      35.008 -16.425 -21.091  0.00  0.00    -0.273 OA
ATOM     13  O   UNL     1      33.634 -15.370 -25.357  0.00  0.00    -0.275 OA
ATOM     14  N   UNL     1      34.309 -15.946 -23.231  0.00  0.00    -0.254 N 
ATOM     15  C   UNL     1      35.519 -18.041 -22.815  0.00  0.00    +0.160 C 
ATOM     16  C   UNL     1      34.751 -18.544 -24.027  0.00  0.00    +0.039 C 
ATOM     17  C   UNL     1      34.749 -17.474 -25.103  0.00  0.00    +0.088 C 
ATOM     18  C   UNL     1      34.911 -16.760 -22.271  0.00  0.00    +0.247 C 
ATOM     19  C   UNL     1      34.161 -16.180 -24.594  0.00  0.00    +0.228 C 
ATOM     20  H   UNL     1      33.940 -15.096 -22.899  0.00  0.00    +0.158 HD
ENDBRANCH   3  15
BRANCH   8  21
ATOM     21  N   UNL     1      32.731 -21.617 -19.611  0.00  0.00    -0.357 N 
ATOM     22  H   UNL     1      32.107 -21.207 -18.970  0.00  0.00    +0.142 HD
ATOM     23  H   UNL     1      32.386 -22.157 -20.357  0.00  0.00    +0.142 HD
ENDBRANCH   8  21
TORSDOF 2
ENDMDL
MODEL 2
REMARK VINA RESULT:      -9.9      1.864      6.100
REMARK  Name = 134780
REMARK  2 active torsions:
REMARK  status: ('A' for Active; 'I' for Inactive)
REMARK    1  A    between atoms: N_3  and  C_15
REMARK    2  A    between atoms: C_8  and  N_21
REMARK                            x       y       z     vdW  Elec       q    Type
REMARK                         _______ _______ _______ _____ _____    ______ ____
ROOT
ATOM      1  O   UNL     1      34.399 -18.651 -24.299  0.00  0.00    -0.269 OA
ATOM      2  O   UNL     1      35.229 -16.844 -20.117  0.00  0.00    -0.269 OA
ATOM      3  N   UNL     1      34.913 -18.133 -22.064  0.00  0.00    -0.216 N 
ATOM      4  C   UNL     1      34.535 -17.881 -23.365  0.00  0.00    +0.257 C 
ATOM      5  C   UNL     1      34.947 -16.990 -21.292  0.00  0.00    +0.255 C 
ATOM      6  C   UNL     1      34.313 -16.437 -23.440  0.00  0.00    +0.071 C 
ATOM      7  C   UNL     1      34.561 -15.899 -22.186  0.00  0.00    +0.060 C 
ATOM      8  C   UNL     1      33.924 -15.654 -24.507  0.00  0.00    +0.046 C 
ATOM      9  C   UNL     1      34.435 -14.548 -21.933  0.00  0.00    +0.005 C 
ATOM     10  C   UNL     1      33.790 -14.282 -24.274  0.00  0.00    +0.014 C 
ATOM     11  C   UNL     1      34.043 -13.735 -23.000  0.00  0.00    +0.001 C 
ENDROOT
BRANCH   3  15
ATOM     12  O   UNL     1      32.877 -19.657 -21.092  0.00  0.00    -0.273 OA
ATOM     13  O   UNL     1      35.721 -22.204 -18.517  0.00  0.00    -0.275 OA
ATOM     14  N   UNL     1      34.331 -20.892 -19.804  0.00  0.00    -0.254 N 
ATOM     15  C   UNL     1      35.239 -19.442 -21.565  0.00  0.00    +0.160 C 
ATOM     16  C   UNL     1      36.475 -19.405 -20.681  0.00  0.00    +0.039 C 
ATOM     17  C   UNL     1      36.760 -20.799 -20.153  0.00  0.00    +0.088 C 
ATOM     18  C   UNL     1      34.034 -19.965 -20.803  0.00  0.00    +0.247 C 
ATOM     19  C   UNL     1      35.578 -21.356 -19.398  0.00  0.00    +0.228 C 
ATOM     20  H   UNL     1      33.557 -21.265 -19.324  0.00  0.00    +0.158 HD
ENDBRANCH   3  15
BRANCH   8  21
ATOM     21  N   UNL     1      33.669 -16.188 -25.780  0.00  0.00    -0.357 N 
ATOM     22  H   UNL     1      32.862 -16.730 -25.933  0.00  0.00    +0.142 HD
ATOM     23  H   UNL     1      34.297 -16.020 -26.518  0.00  0.00    +0.142 HD
ENDBRANCH   8  21
TORSDOF 2
ENDMDL
MODEL 3
REMARK VINA RESULT:      -9.8      1.735      6.128
REMARK  Name = 134780
REMARK  2 active torsions:
REMARK  status: ('A' for Active; 'I' for Inactive)
REMARK    1  A    between atoms: N_3  and  C_15
REMARK    2  A    between atoms: C_8  and  N_21
REMARK                            x       y       z     vdW  Elec       q    Type
REMARK                         _______ _______ _______ _____ _____    ______ ____
ROOT
ATOM      1  O   UNL     1      35.093 -17.193 -20.400  0.00  0.00    -0.269 OA
ATOM      2  O   UNL     1      34.736 -19.499 -24.399  0.00  0.00    -0.269 OA
ATOM      3  N   UNL     1      34.997 -18.707 -22.196  0.00  0.00    -0.216 N 
ATOM      4  C   UNL     1      34.928 -17.481 -21.571  0.00  0.00    +0.257 C 
ATOM      5  C   UNL     1      34.752 -18.627 -23.551  0.00  0.00    +0.255 C 
ATOM      6  C   UNL     1      34.598 -16.520 -22.624  0.00  0.00    +0.071 C 
ATOM      7  C   UNL     1      34.492 -17.213 -23.820  0.00  0.00    +0.060 C 
ATOM      8  C   UNL     1      34.407 -15.155 -22.551  0.00  0.00    +0.046 C 
ATOM      9  C   UNL     1      34.189 -16.578 -25.008  0.00  0.00    +0.005 C 
ATOM     10  C   UNL     1      34.099 -14.491 -23.742  0.00  0.00    +0.014 C 
ATOM     11  C   UNL     1      33.991 -15.195 -24.958  0.00  0.00    +0.001 C 
ENDROOT
BRANCH   3  15
ATOM     12  O   UNL     1      32.916 -20.060 -21.075  0.00  0.00    -0.273 OA
ATOM     13  O   UNL     1      35.657 -22.249 -18.093  0.00  0.00    -0.275 OA
ATOM     14  N   UNL     1      34.319 -21.116 -19.588  0.00  0.00    -0.254 N 
ATOM     15  C   UNL     1      35.291 -19.937 -21.510  0.00  0.00    +0.160 C 
ATOM     16  C   UNL     1      36.505 -19.789 -20.607  0.00  0.00    +0.039 C 
ATOM     17  C   UNL     1      36.757 -21.098 -19.881  0.00  0.00    +0.088 C 
ATOM     18  C   UNL     1      34.060 -20.336 -20.715  0.00  0.00    +0.247 C 
ATOM     19  C   UNL     1      35.549 -21.531 -19.087  0.00  0.00    +0.228 C 
ATOM     20  H   UNL     1      33.528 -21.410 -19.081  0.00  0.00    +0.158 HD
ENDBRANCH   3  15
BRANCH   8  21
ATOM     21  N   UNL     1      34.513 -14.443 -21.346  0.00  0.00    -0.357 N 
ATOM     22  H   UNL     1      35.375 -14.049 -21.081  0.00  0.00    +0.142 HD
ATOM     23  H   UNL     1      33.725 -14.338 -20.766  0.00  0.00    +0.142 HD
ENDBRANCH   8  21
TORSDOF 2
ENDMDL
MODEL 4
REMARK VINA RESULT:      -9.6      7.364     10.090
REMARK  Name = 134780
REMARK  2 active torsions:
REMARK  status: ('A' for Active; 'I' for Inactive)
REMARK    1  A    between atoms: N_3  and  C_15
REMARK    2  A    between atoms: C_8  and  N_21
REMARK                            x       y       z     vdW  Elec       q    Type
REMARK                         _______ _______ _______ _____ _____    ______ ____
ROOT
ATOM      1  O   UNL     1      34.716 -23.273 -17.120  0.00  0.00    -0.269 OA
ATOM      2  O   UNL     1      34.172 -24.568 -12.708  0.00  0.00    -0.269 OA
ATOM      3  N   UNL     1      34.860 -23.993 -14.887  0.00  0.00    -0.216 N 
ATOM      4  C   UNL     1      34.242 -23.533 -16.029  0.00  0.00    +0.257 C 
ATOM      5  C   UNL     1      33.977 -24.175 -13.843  0.00  0.00    +0.255 C 
ATOM      6  C   UNL     1      32.827 -23.396 -15.685  0.00  0.00    +0.071 C 
ATOM      7  C   UNL     1      32.667 -23.785 -14.364  0.00  0.00    +0.060 C 
ATOM      8  C   UNL     1      31.764 -22.971 -16.455  0.00  0.00    +0.046 C 
ATOM      9  C   UNL     1      31.435 -23.769 -13.742  0.00  0.00    +0.005 C 
ATOM     10  C   UNL     1      30.506 -22.947 -15.846  0.00  0.00    +0.014 C 
ATOM     11  C   UNL     1      30.343 -23.342 -14.504  0.00  0.00    +0.001 C 
ENDROOT
BRANCH   3  15
ATOM     12  O   UNL     1      35.763 -26.398 -15.788  0.00  0.00    -0.273 OA
ATOM     13  O   UNL     1      39.553 -26.201 -13.181  0.00  0.00    -0.275 OA
ATOM     14  N   UNL     1      37.633 -26.269 -14.453  0.00  0.00    -0.254 N 
ATOM     15  C   UNL     1      36.272 -24.255 -14.792  0.00  0.00    +0.160 C 
ATOM     16  C   UNL     1      36.819 -23.845 -13.434  0.00  0.00    +0.039 C 
ATOM     17  C   UNL     1      38.300 -24.169 -13.368  0.00  0.00    +0.088 C 
ATOM     18  C   UNL     1      36.491 -25.735 -15.050  0.00  0.00    +0.247 C 
ATOM     19  C   UNL     1      38.558 -25.633 -13.630  0.00  0.00    +0.228 C 
ATOM     20  H   UNL     1      37.807 -27.220 -14.638  0.00  0.00    +0.158 HD
ENDBRANCH   3  15
BRANCH   8  21
ATOM     21  N   UNL     1      31.914 -22.576 -17.794  0.00  0.00    -0.357 N 
ATOM     22  H   UNL     1      32.698 -22.872 -18.310  0.00  0.00    +0.142 HD
ATOM     23  H   UNL     1      31.235 -22.003 -18.216  0.00  0.00    +0.142 HD
ENDBRANCH   8  21
TORSDOF 2
ENDMDL
MODEL 5
REMARK VINA RESULT:      -9.5      1.337      2.438
REMARK  Name = 134780
REMARK  2 active torsions:
REMARK  status: ('A' for Active; 'I' for Inactive)
REMARK    1  A    between atoms: N_3  and  C_15
REMARK    2  A    between atoms: C_8  and  N_21
REMARK                            x       y       z     vdW  Elec       q    Type
REMARK                         _______ _______ _______ _____ _____    ______ ____
ROOT
ATOM      1  O   UNL     1      37.152 -19.949 -20.358  0.00  0.00    -0.269 OA
ATOM      2  O   UNL     1      32.659 -19.767 -21.460  0.00  0.00    -0.269 OA
ATOM      3  N   UNL     1      34.994 -19.580 -21.216  0.00  0.00    -0.216 N 
ATOM      4  C   UNL     1      35.950 -20.135 -20.392  0.00  0.00    +0.257 C 
ATOM      5  C   UNL     1      33.724 -20.042 -20.941  0.00  0.00    +0.255 C 
ATOM      6  C   UNL     1      35.226 -21.050 -19.509  0.00  0.00    +0.071 C 
ATOM      7  C   UNL     1      33.881 -20.993 -19.840  0.00  0.00    +0.060 C 
ATOM      8  C   UNL     1      35.696 -21.863 -18.498  0.00  0.00    +0.046 C 
ATOM      9  C   UNL     1      32.933 -21.747 -19.179  0.00  0.00    +0.005 C 
ATOM     10  C   UNL     1      34.754 -22.637 -17.814  0.00  0.00    +0.014 C 
ATOM     11  C   UNL     1      33.386 -22.580 -18.151  0.00  0.00    +0.001 C 
ENDROOT
BRANCH   3  15
ATOM     12  O   UNL     1      35.000 -16.944 -20.534  0.00  0.00    -0.273 OA
ATOM     13  O   UNL     1      34.233 -15.595 -24.870  0.00  0.00    -0.275 OA
ATOM     14  N   UNL     1      34.595 -16.314 -22.710  0.00  0.00    -0.254 N 
ATOM     15  C   UNL     1      35.289 -18.623 -22.249  0.00  0.00    +0.160 C 
ATOM     16  C   UNL     1      34.531 -18.942 -23.528  0.00  0.00    +0.039 C 
ATOM     17  C   UNL     1      34.846 -17.891 -24.576  0.00  0.00    +0.088 C 
ATOM     18  C   UNL     1      34.930 -17.244 -21.726  0.00  0.00    +0.247 C 
ATOM     19  C   UNL     1      34.511 -16.503 -24.086  0.00  0.00    +0.228 C 
ATOM     20  H   UNL     1      34.392 -15.406 -22.389  0.00  0.00    +0.158 HD
ENDBRANCH   3  15
BRANCH   8  21
ATOM     21  N   UNL     1      37.055 -21.929 -18.153  0.00  0.00    -0.357 N 
ATOM     22  H   UNL     1      37.447 -22.781 -17.855  0.00  0.00    +0.142 HD
ATOM     23  H   UNL     1      37.616 -21.122 -18.208  0.00  0.00    +0.142 HD
ENDBRANCH   8  21
TORSDOF 2
ENDMDL
MODEL 6
REMARK VINA RESULT:      -9.5      1.211      1.734
REMARK  Name = 134780
REMARK  2 active torsions:
REMARK  status: ('A' for Active; 'I' for Inactive)
REMARK    1  A    between atoms: N_3  and  C_15
REMARK    2  A    between atoms: C_8  and  N_21
REMARK                            x       y       z     vdW  Elec       q    Type
REMARK                         _______ _______ _______ _____ _____    ______ ____
ROOT
ATOM      1  O   UNL     1      32.469 -20.168 -21.170  0.00  0.00    -0.269 OA
ATOM      2  O   UNL     1      36.799 -18.652 -21.794  0.00  0.00    -0.269 OA
ATOM      3  N   UNL     1      34.496 -19.148 -21.784  0.00  0.00    -0.216 N 
ATOM      4  C   UNL     1      33.670 -19.993 -21.076  0.00  0.00    +0.257 C 
ATOM      5  C   UNL     1      35.814 -19.240 -21.387  0.00  0.00    +0.255 C 
ATOM      6  C   UNL     1      34.538 -20.690 -20.126  0.00  0.00    +0.071 C 
ATOM      7  C   UNL     1      35.834 -20.234 -20.316  0.00  0.00    +0.060 C 
ATOM      8  C   UNL     1      34.230 -21.642 -19.177  0.00  0.00    +0.046 C 
ATOM      9  C   UNL     1      36.891 -20.707 -19.565  0.00  0.00    +0.005 C 
ATOM     10  C   UNL     1      35.285 -22.136 -18.404  0.00  0.00    +0.014 C 
ATOM     11  C   UNL     1      36.603 -21.673 -18.596  0.00  0.00    +0.001 C 
ENDROOT
BRANCH   3  15
ATOM     12  O   UNL     1      34.717 -20.001 -24.360  0.00  0.00    -0.273 OA
ATOM     13  O   UNL     1      34.652 -15.707 -26.020  0.00  0.00    -0.275 OA
ATOM     14  N   UNL     1      34.702 -17.838 -25.146  0.00  0.00    -0.254 N 
ATOM     15  C   UNL     1      34.035 -18.265 -22.822  0.00  0.00    +0.160 C 
ATOM     16  C   UNL     1      34.511 -16.841 -22.587  0.00  0.00    +0.039 C 
ATOM     17  C   UNL     1      34.030 -15.954 -23.721  0.00  0.00    +0.088 C 
ATOM     18  C   UNL     1      34.539 -18.802 -24.150  0.00  0.00    +0.247 C 
ATOM     19  C   UNL     1      34.504 -16.464 -25.061  0.00  0.00    +0.228 C 
ATOM     20  H   UNL     1      34.997 -18.176 -26.022  0.00  0.00    +0.158 HD
ENDBRANCH   3  15
BRANCH   8  21
ATOM     21  N   UNL     1      32.922 -22.111 -18.976  0.00  0.00    -0.357 N 
ATOM     22  H   UNL     1      32.646 -22.436 -18.089  0.00  0.00    +0.142 HD
ATOM     23  H   UNL     1      32.282 -22.116 -19.723  0.00  0.00    +0.142 HD
ENDBRANCH   8  21
TORSDOF 2
ENDMDL
MODEL 7
REMARK VINA RESULT:      -9.5      7.588     10.171
REMARK  Name = 134780
REMARK  2 active torsions:
REMARK  status: ('A' for Active; 'I' for Inactive)
REMARK    1  A    between atoms: N_3  and  C_15
REMARK    2  A    between atoms: C_8  and  N_21
REMARK                            x       y       z     vdW  Elec       q    Type
REMARK                         _______ _______ _______ _____ _____    ______ ____
ROOT
ATOM      1  O   UNL     1      33.580 -24.735 -12.935  0.00  0.00    -0.269 OA
ATOM      2  O   UNL     1      34.596 -22.965 -17.092  0.00  0.00    -0.269 OA
ATOM      3  N   UNL     1      34.499 -23.917 -14.939  0.00  0.00    -0.216 N 
ATOM      4  C   UNL     1      33.501 -24.243 -14.046  0.00  0.00    +0.257 C 
ATOM      5  C   UNL     1      34.008 -23.367 -16.104  0.00  0.00    +0.255 C 
ATOM      6  C   UNL     1      32.247 -23.877 -14.704  0.00  0.00    +0.071 C 
ATOM      7  C   UNL     1      32.555 -23.347 -15.948  0.00  0.00    +0.060 C 
ATOM      8  C   UNL     1      30.946 -23.992 -14.260  0.00  0.00    +0.046 C 
ATOM      9  C   UNL     1      31.576 -22.903 -16.815  0.00  0.00    +0.005 C 
ATOM     10  C   UNL     1      29.938 -23.549 -15.121  0.00  0.00    +0.014 C 
ATOM     11  C   UNL     1      30.250 -23.010 -16.386  0.00  0.00    +0.001 C 
ENDROOT
BRANCH   3  15
ATOM     12  O   UNL     1      35.610 -26.242 -15.818  0.00  0.00    -0.273 OA
ATOM     13  O   UNL     1      39.048 -26.012 -12.763  0.00  0.00    -0.275 OA
ATOM     14  N   UNL     1      37.299 -26.099 -14.261  0.00  0.00    -0.254 N 
ATOM     15  C   UNL     1      35.900 -24.127 -14.683  0.00  0.00    +0.160 C 
ATOM     16  C   UNL     1      36.261 -23.757 -13.254  0.00  0.00    +0.039 C 
ATOM     17  C   UNL     1      37.737 -24.025 -13.021  0.00  0.00    +0.088 C 
ATOM     18  C   UNL     1      36.214 -25.585 -14.971  0.00  0.00    +0.247 C 
ATOM     19  C   UNL     1      38.089 -25.465 -13.307  0.00  0.00    +0.228 C 
ATOM     20  H   UNL     1      37.536 -27.034 -14.461  0.00  0.00    +0.158 HD
ENDBRANCH   3  15
BRANCH   8  21
ATOM     21  N   UNL     1      30.623 -24.526 -13.003  0.00  0.00    -0.357 N 
ATOM     22  H   UNL     1      31.248 -24.424 -12.249  0.00  0.00    +0.142 HD
ATOM     23  H   UNL     1      29.772 -25.003 -12.875  0.00  0.00    +0.142 HD
ENDBRANCH   8  21
TORSDOF 2
ENDMDL
MODEL 8
REMARK VINA RESULT:      -9.4      5.888      9.175
REMARK  Name = 134780
REMARK  2 active torsions:
REMARK  status: ('A' for Active; 'I' for Inactive)
REMARK    1  A    between atoms: N_3  and  C_15
REMARK    2  A    between atoms: C_8  and  N_21
REMARK                            x       y       z     vdW  Elec       q    Type
REMARK                         _______ _______ _______ _____ _____    ______ ____
ROOT
ATOM      1  O   UNL     1      31.694 -11.822 -22.188  0.00  0.00    -0.269 OA
ATOM      2  O   UNL     1      34.867 -11.389 -25.532  0.00  0.00    -0.269 OA
ATOM      3  N   UNL     1      33.216 -12.009 -23.970  0.00  0.00    -0.216 N 
ATOM      4  C   UNL     1      32.540 -11.383 -22.946  0.00  0.00    +0.257 C 
ATOM      5  C   UNL     1      34.111 -11.172 -24.604  0.00  0.00    +0.255 C 
ATOM      6  C   UNL     1      33.040 -10.008 -22.925  0.00  0.00    +0.071 C 
ATOM      7  C   UNL     1      33.990  -9.881 -23.927  0.00  0.00    +0.060 C 
ATOM      8  C   UNL     1      32.701  -8.954 -22.102  0.00  0.00    +0.046 C 
ATOM      9  C   UNL     1      34.652  -8.693 -24.160  0.00  0.00    +0.005 C 
ATOM     10  C   UNL     1      33.358  -7.739 -22.319  0.00  0.00    +0.014 C 
ATOM     11  C   UNL     1      34.324  -7.610 -23.338  0.00  0.00    +0.001 C 
ENDROOT
BRANCH   3  15
ATOM     12  O   UNL     1      34.482 -13.915 -22.495  0.00  0.00    -0.273 OA
ATOM     13  O   UNL     1      34.281 -17.002 -25.906  0.00  0.00    -0.275 OA
ATOM     14  N   UNL     1      34.380 -15.420 -24.233  0.00  0.00    -0.254 N 
ATOM     15  C   UNL     1      33.012 -13.384 -24.339  0.00  0.00    +0.160 C 
ATOM     16  C   UNL     1      33.124 -13.574 -25.843  0.00  0.00    +0.039 C 
ATOM     17  C   UNL     1      32.934 -15.042 -26.182  0.00  0.00    +0.088 C 
ATOM     18  C   UNL     1      34.039 -14.224 -23.601  0.00  0.00    +0.247 C 
ATOM     19  C   UNL     1      33.933 -15.910 -25.456  0.00  0.00    +0.228 C 
ATOM     20  H   UNL     1      35.019 -15.991 -23.750  0.00  0.00    +0.158 HD
ENDBRANCH   3  15
BRANCH   8  21
ATOM     21  N   UNL     1      31.742  -9.070 -21.084  0.00  0.00    -0.357 N 
ATOM     22  H   UNL     1      31.812  -9.795 -20.421  0.00  0.00    +0.142 HD
ATOM     23  H   UNL     1      30.998  -8.428 -21.033  0.00  0.00    +0.142 HD
ENDBRANCH   8  21
TORSDOF 2
ENDMDL
MODEL 9
REMARK VINA RESULT:      -9.1      1.852      6.230
REMARK  Name = 134780
REMARK  2 active torsions:
REMARK  status: ('A' for Active; 'I' for Inactive)
REMARK    1  A    between atoms: N_3  and  C_15
REMARK    2  A    between atoms: C_8  and  N_21
REMARK                            x       y       z     vdW  Elec       q    Type
REMARK                         _______ _______ _______ _____ _____    ______ ____
ROOT
ATOM      1  O   UNL     1      33.935 -15.902 -20.706  0.00  0.00    -0.269 OA
ATOM      2  O   UNL     1      34.653 -19.304 -23.764  0.00  0.00    -0.269 OA
ATOM      3  N   UNL     1      34.331 -17.879 -21.916  0.00  0.00    -0.216 N 
ATOM      4  C   UNL     1      34.077 -16.536 -21.736  0.00  0.00    +0.257 C 
ATOM      5  C   UNL     1      34.433 -18.224 -23.248  0.00  0.00    +0.255 C 
ATOM      6  C   UNL     1      33.998 -15.965 -23.080  0.00  0.00    +0.071 C 
ATOM      7  C   UNL     1      34.215 -16.986 -23.994  0.00  0.00    +0.060 C 
ATOM      8  C   UNL     1      33.761 -14.666 -23.479  0.00  0.00    +0.046 C 
ATOM      9  C   UNL     1      34.204 -16.762 -25.356  0.00  0.00    +0.005 C 
ATOM     10  C   UNL     1      33.746 -14.415 -24.855  0.00  0.00    +0.014 C 
ATOM     11  C   UNL     1      33.966 -15.452 -25.783  0.00  0.00    +0.001 C 
ENDROOT
BRANCH   3  15
ATOM     12  O   UNL     1      36.841 -18.751 -21.322  0.00  0.00    -0.273 OA
ATOM     13  O   UNL     1      35.271 -22.586 -19.315  0.00  0.00    -0.275 OA
ATOM     14  N   UNL     1      36.015 -20.665 -20.347  0.00  0.00    -0.254 N 
ATOM     15  C   UNL     1      34.474 -18.817 -20.835  0.00  0.00    +0.160 C 
ATOM     16  C   UNL     1      33.427 -19.917 -20.917  0.00  0.00    +0.039 C 
ATOM     17  C   UNL     1      33.637 -20.899 -19.779  0.00  0.00    +0.088 C 
ATOM     18  C   UNL     1      35.879 -19.389 -20.895  0.00  0.00    +0.247 C 
ATOM     19  C   UNL     1      35.029 -21.481 -19.800  0.00  0.00    +0.228 C 
ATOM     20  H   UNL     1      36.927 -21.035 -20.348  0.00  0.00    +0.158 HD
ENDBRANCH   3  15
BRANCH   8  21
ATOM     21  N   UNL     1      33.542 -13.624 -22.564  0.00  0.00    -0.357 N 
ATOM     22  H   UNL     1      34.256 -13.358 -21.941  0.00  0.00    +0.142 HD
ATOM     23  H   UNL     1      32.674 -13.161 -22.545  0.00  0.00    +0.142 HD
ENDBRANCH   8  21
TORSDOF 2
ENDMDL
