MODEL 1
REMARK VINA RESULT:      -8.3      0.000      0.000
REMARK  Name = 21854223
REMARK  8 active torsions:
REMARK  status: ('A' for Active; 'I' for Inactive)
REMARK    1  A    between atoms: C_2  and  C_13
REMARK    2  A    between atoms: C_6  and  O_11
REMARK    3  A    between atoms: C_13  and  C_14
REMARK    4  A    between atoms: C_14  and  N_15
REMARK    5  A    between atoms: N_15  and  C_17
REMARK    6  A    between atoms: N_15  and  C_20
REMARK    7  A    between atoms: C_17  and  C_18
REMARK    8  A    between atoms: C_20  and  C_21
REMARK                            x       y       z     vdW  Elec       q    Type
REMARK                         _______ _______ _______ _____ _____    ______ ____
ROOT
ATOM      1  N   UNL     1      36.996 -19.854 -20.277  0.00  0.00    -0.312 N 
ATOM      2  C   UNL     1      35.212 -19.081 -21.348  0.00  0.00    -0.006 C 
ATOM      3  C   UNL     1      34.796 -20.146 -20.501  0.00  0.00    +0.044 C 
ATOM      4  C   UNL     1      35.934 -20.613 -19.840  0.00  0.00    +0.051 C 
ATOM      5  C   UNL     1      36.570 -18.925 -21.188  0.00  0.00    +0.058 C 
ATOM      6  C   UNL     1      33.555 -20.759 -20.232  0.00  0.00    +0.135 C 
ATOM      7  C   UNL     1      35.894 -21.667 -18.920  0.00  0.00    +0.015 C 
ATOM      8  C   UNL     1      33.501 -21.814 -19.315  0.00  0.00    +0.037 C 
ATOM      9  C   UNL     1      34.653 -22.260 -18.670  0.00  0.00    +0.004 C 
ATOM     10  H   UNL     1      37.928 -19.963 -19.977  0.00  0.00    +0.152 HD
ENDROOT
BRANCH   6  11
ATOM     11  O   UNL     1      32.402 -20.348 -20.845  0.00  0.00    -0.505 OA
ATOM     12  H   UNL     1      31.653 -20.911 -20.859  0.00  0.00    +0.292 HD
ENDBRANCH   6  11
BRANCH   2  13
ATOM     13  C   UNL     1      34.358 -18.278 -22.246  0.00  0.00    +0.005 C 
BRANCH  13  14
ATOM     14  C   UNL     1      35.042 -16.988 -22.733  0.00  0.00    -0.073 C 
BRANCH  14  15
ATOM     15  N   UNL     1      34.072 -15.950 -23.067  0.00  0.00    +0.387 N 
ATOM     16  H   UNL     1      33.160 -16.239 -22.712  0.00  0.00    -0.080 HD
BRANCH  15  17
ATOM     17  C   UNL     1      33.975 -15.784 -24.518  0.00  0.00    -0.077 C 
BRANCH  17  18
ATOM     18  C   UNL     1      33.183 -14.524 -24.855  0.00  0.00    -0.023 C 
ATOM     19  C   UNL     1      32.988 -14.378 -26.357  0.00  0.00    -0.002 C 
ENDBRANCH  17  18
ENDBRANCH  15  17
BRANCH  15  20
ATOM     20  C   UNL     1      34.438 -14.683 -22.433  0.00  0.00    -0.077 C 
BRANCH  20  21
ATOM     21  C   UNL     1      34.324 -14.796 -20.915  0.00  0.00    -0.023 C 
ATOM     22  C   UNL     1      32.885 -15.029 -20.483  0.00  0.00    -0.002 C 
ENDBRANCH  20  21
ENDBRANCH  15  20
ENDBRANCH  14  15
ENDBRANCH  13  14
ENDBRANCH   2  13
TORSDOF 8
ENDMDL
MODEL 2
REMARK VINA RESULT:      -8.2      0.613      2.461
REMARK  Name = 21854223
REMARK  8 active torsions:
REMARK  status: ('A' for Active; 'I' for Inactive)
REMARK    1  A    between atoms: C_2  and  C_13
REMARK    2  A    between atoms: C_6  and  O_11
REMARK    3  A    between atoms: C_13  and  C_14
REMARK    4  A    between atoms: C_14  and  N_15
REMARK    5  A    between atoms: N_15  and  C_17
REMARK    6  A    between atoms: N_15  and  C_20
REMARK    7  A    between atoms: C_17  and  C_18
REMARK    8  A    between atoms: C_20  and  C_21
REMARK                            x       y       z     vdW  Elec       q    Type
REMARK                         _______ _______ _______ _____ _____    ______ ____
ROOT
ATOM      1  N   UNL     1      36.975 -19.825 -20.317  0.00  0.00    -0.312 N 
ATOM      2  C   UNL     1      35.186 -18.986 -21.328  0.00  0.00    -0.006 C 
ATOM      3  C   UNL     1      34.768 -20.077 -20.516  0.00  0.00    +0.044 C 
ATOM      4  C   UNL     1      35.909 -20.585 -19.892  0.00  0.00    +0.051 C 
ATOM      5  C   UNL     1      36.548 -18.855 -21.185  0.00  0.00    +0.058 C 
ATOM      6  C   UNL     1      33.523 -20.683 -20.251  0.00  0.00    +0.135 C 
ATOM      7  C   UNL     1      35.869 -21.673 -19.013  0.00  0.00    +0.015 C 
ATOM      8  C   UNL     1      33.467 -21.772 -19.374  0.00  0.00    +0.037 C 
ATOM      9  C   UNL     1      34.623 -22.258 -18.765  0.00  0.00    +0.004 C 
ATOM     10  H   UNL     1      37.909 -19.957 -20.036  0.00  0.00    +0.152 HD
ENDROOT
BRANCH   6  11
ATOM     11  O   UNL     1      32.366 -20.233 -20.829  0.00  0.00    -0.505 OA
ATOM     12  H   UNL     1      31.537 -20.543 -20.520  0.00  0.00    +0.292 HD
ENDBRANCH   6  11
BRANCH   2  13
ATOM     13  C   UNL     1      34.329 -18.137 -22.181  0.00  0.00    +0.005 C 
BRANCH  13  14
ATOM     14  C   UNL     1      35.127 -17.324 -23.215  0.00  0.00    -0.073 C 
BRANCH  14  15
ATOM     15  N   UNL     1      34.937 -15.887 -23.041  0.00  0.00    +0.387 N 
ATOM     16  H   UNL     1      35.781 -15.412 -23.363  0.00  0.00    -0.080 HD
BRANCH  15  17
ATOM     17  C   UNL     1      34.730 -15.562 -21.630  0.00  0.00    -0.077 C 
BRANCH  17  18
ATOM     18  C   UNL     1      33.559 -14.595 -21.474  0.00  0.00    -0.023 C 
ATOM     19  C   UNL     1      32.643 -15.014 -20.335  0.00  0.00    -0.002 C 
ENDBRANCH  17  18
ENDBRANCH  15  17
BRANCH  15  20
ATOM     20  C   UNL     1      33.805 -15.418 -23.843  0.00  0.00    -0.077 C 
BRANCH  20  21
ATOM     21  C   UNL     1      33.884 -15.987 -25.257  0.00  0.00    -0.023 C 
ATOM     22  C   UNL     1      33.089 -15.142 -26.239  0.00  0.00    -0.002 C 
ENDBRANCH  20  21
ENDBRANCH  15  20
ENDBRANCH  14  15
ENDBRANCH  13  14
ENDBRANCH   2  13
TORSDOF 8
ENDMDL
MODEL 3
REMARK VINA RESULT:      -8.1      1.863      2.433
REMARK  Name = 21854223
REMARK  8 active torsions:
REMARK  status: ('A' for Active; 'I' for Inactive)
REMARK    1  A    between atoms: C_2  and  C_13
REMARK    2  A    between atoms: C_6  and  O_11
REMARK    3  A    between atoms: C_13  and  C_14
REMARK    4  A    between atoms: C_14  and  N_15
REMARK    5  A    between atoms: N_15  and  C_17
REMARK    6  A    between atoms: N_15  and  C_20
REMARK    7  A    between atoms: C_17  and  C_18
REMARK    8  A    between atoms: C_20  and  C_21
REMARK                            x       y       z     vdW  Elec       q    Type
REMARK                         _______ _______ _______ _____ _____    ______ ____
ROOT
ATOM      1  N   UNL     1      32.652 -20.942 -20.046  0.00  0.00    -0.312 N 
ATOM      2  C   UNL     1      34.110 -19.648 -21.109  0.00  0.00    -0.006 C 
ATOM      3  C   UNL     1      34.825 -20.457 -20.181  0.00  0.00    +0.044 C 
ATOM      4  C   UNL     1      33.887 -21.259 -19.529  0.00  0.00    +0.051 C 
ATOM      5  C   UNL     1      32.776 -19.969 -21.002  0.00  0.00    +0.058 C 
ATOM      6  C   UNL     1      36.185 -20.583 -19.835  0.00  0.00    +0.135 C 
ATOM      7  C   UNL     1      34.243 -22.185 -18.541  0.00  0.00    +0.015 C 
ATOM      8  C   UNL     1      36.555 -21.505 -18.850  0.00  0.00    +0.037 C 
ATOM      9  C   UNL     1      35.598 -22.293 -18.214  0.00  0.00    +0.004 C 
ATOM     10  H   UNL     1      31.802 -21.355 -19.770  0.00  0.00    +0.152 HD
ENDROOT
BRANCH   6  11
ATOM     11  O   UNL     1      37.155 -19.826 -20.438  0.00  0.00    -0.505 OA
ATOM     12  H   UNL     1      36.942 -18.981 -20.783  0.00  0.00    +0.292 HD
ENDBRANCH   6  11
BRANCH   2  13
ATOM     13  C   UNL     1      34.677 -18.639 -22.026  0.00  0.00    +0.005 C 
BRANCH  13  14
ATOM     14  C   UNL     1      35.061 -17.329 -21.315  0.00  0.00    -0.073 C 
BRANCH  14  15
ATOM     15  N   UNL     1      34.324 -16.186 -21.844  0.00  0.00    +0.387 N 
ATOM     16  H   UNL     1      33.371 -16.489 -22.051  0.00  0.00    -0.080 HD
BRANCH  15  17
ATOM     17  C   UNL     1      34.939 -15.705 -23.082  0.00  0.00    -0.077 C 
BRANCH  17  18
ATOM     18  C   UNL     1      33.915 -15.701 -24.215  0.00  0.00    -0.023 C 
ATOM     19  C   UNL     1      34.220 -16.782 -25.240  0.00  0.00    -0.002 C 
ENDBRANCH  17  18
ENDBRANCH  15  17
BRANCH  15  20
ATOM     20  C   UNL     1      34.264 -15.110 -20.854  0.00  0.00    -0.077 C 
BRANCH  20  21
ATOM     21  C   UNL     1      32.814 -14.737 -20.562  0.00  0.00    -0.023 C 
ATOM     22  C   UNL     1      32.398 -13.489 -21.325  0.00  0.00    -0.002 C 
ENDBRANCH  20  21
ENDBRANCH  15  20
ENDBRANCH  14  15
ENDBRANCH  13  14
ENDBRANCH   2  13
TORSDOF 8
ENDMDL
MODEL 4
REMARK VINA RESULT:      -8.0      3.189      4.568
REMARK  Name = 21854223
REMARK  8 active torsions:
REMARK  status: ('A' for Active; 'I' for Inactive)
REMARK    1  A    between atoms: C_2  and  C_13
REMARK    2  A    between atoms: C_6  and  O_11
REMARK    3  A    between atoms: C_13  and  C_14
REMARK    4  A    between atoms: C_14  and  N_15
REMARK    5  A    between atoms: N_15  and  C_17
REMARK    6  A    between atoms: N_15  and  C_20
REMARK    7  A    between atoms: C_17  and  C_18
REMARK    8  A    between atoms: C_20  and  C_21
REMARK                            x       y       z     vdW  Elec       q    Type
REMARK                         _______ _______ _______ _____ _____    ______ ____
ROOT
ATOM      1  N   UNL     1      35.044 -17.476 -20.915  0.00  0.00    -0.312 N 
ATOM      2  C   UNL     1      34.544 -15.650 -22.074  0.00  0.00    -0.006 C 
ATOM      3  C   UNL     1      34.598 -16.749 -22.977  0.00  0.00    +0.044 C 
ATOM      4  C   UNL     1      34.912 -17.882 -22.224  0.00  0.00    +0.051 C 
ATOM      5  C   UNL     1      34.823 -16.128 -20.814  0.00  0.00    +0.058 C 
ATOM      6  C   UNL     1      34.407 -16.888 -24.366  0.00  0.00    +0.135 C 
ATOM      7  C   UNL     1      35.047 -19.154 -22.793  0.00  0.00    +0.015 C 
ATOM      8  C   UNL     1      34.539 -18.153 -24.949  0.00  0.00    +0.037 C 
ATOM      9  C   UNL     1      34.854 -19.267 -24.173  0.00  0.00    +0.004 C 
ATOM     10  H   UNL     1      35.263 -18.068 -20.160  0.00  0.00    +0.152 HD
ENDROOT
BRANCH   6  11
ATOM     11  O   UNL     1      34.096 -15.817 -25.160  0.00  0.00    -0.505 OA
ATOM     12  H   UNL     1      34.176 -15.886 -26.092  0.00  0.00    +0.292 HD
ENDBRANCH   6  11
BRANCH   2  13
ATOM     13  C   UNL     1      34.249 -14.242 -22.410  0.00  0.00    +0.005 C 
BRANCH  13  14
ATOM     14  C   UNL     1      32.789 -13.849 -22.123  0.00  0.00    -0.073 C 
BRANCH  14  15
ATOM     15  N   UNL     1      32.349 -12.738 -22.961  0.00  0.00    +0.387 N 
ATOM     16  H   UNL     1      31.625 -13.082 -23.593  0.00  0.00    -0.080 HD
BRANCH  15  17
ATOM     17  C   UNL     1      33.462 -12.227 -23.764  0.00  0.00    -0.077 C 
BRANCH  17  18
ATOM     18  C   UNL     1      33.433 -10.701 -23.798  0.00  0.00    -0.023 C 
ATOM     19  C   UNL     1      34.664 -10.141 -24.493  0.00  0.00    -0.002 C 
ENDBRANCH  17  18
ENDBRANCH  15  17
BRANCH  15  20
ATOM     20  C   UNL     1      31.781 -11.668 -22.140  0.00  0.00    -0.077 C 
BRANCH  20  21
ATOM     21  C   UNL     1      31.676 -12.116 -20.685  0.00  0.00    -0.023 C 
ATOM     22  C   UNL     1      31.310 -10.955 -19.773  0.00  0.00    -0.002 C 
ENDBRANCH  20  21
ENDBRANCH  15  20
ENDBRANCH  14  15
ENDBRANCH  13  14
ENDBRANCH   2  13
TORSDOF 8
ENDMDL
MODEL 5
REMARK VINA RESULT:      -8.0      1.851      6.922
REMARK  Name = 21854223
REMARK  8 active torsions:
REMARK  status: ('A' for Active; 'I' for Inactive)
REMARK    1  A    between atoms: C_2  and  C_13
REMARK    2  A    between atoms: C_6  and  O_11
REMARK    3  A    between atoms: C_13  and  C_14
REMARK    4  A    between atoms: C_14  and  N_15
REMARK    5  A    between atoms: N_15  and  C_17
REMARK    6  A    between atoms: N_15  and  C_20
REMARK    7  A    between atoms: C_17  and  C_18
REMARK    8  A    between atoms: C_20  and  C_21
REMARK                            x       y       z     vdW  Elec       q    Type
REMARK                         _______ _______ _______ _____ _____    ______ ____
ROOT
ATOM      1  N   UNL     1      34.247 -14.486 -22.227  0.00  0.00    -0.312 N 
ATOM      2  C   UNL     1      34.720 -16.541 -22.922  0.00  0.00    -0.006 C 
ATOM      3  C   UNL     1      34.150 -15.822 -24.011  0.00  0.00    +0.044 C 
ATOM      4  C   UNL     1      33.863 -14.537 -23.548  0.00  0.00    +0.051 C 
ATOM      5  C   UNL     1      34.766 -15.693 -21.839  0.00  0.00    +0.058 C 
ATOM      6  C   UNL     1      33.850 -16.145 -25.349  0.00  0.00    +0.135 C 
ATOM      7  C   UNL     1      33.289 -13.552 -24.360  0.00  0.00    +0.015 C 
ATOM      8  C   UNL     1      33.276 -15.170 -26.173  0.00  0.00    +0.037 C 
ATOM      9  C   UNL     1      33.000 -13.895 -25.684  0.00  0.00    +0.004 C 
ATOM     10  H   UNL     1      34.163 -13.697 -21.645  0.00  0.00    +0.152 HD
ENDROOT
BRANCH   6  11
ATOM     11  O   UNL     1      34.107 -17.387 -25.866  0.00  0.00    -0.505 OA
ATOM     12  H   UNL     1      33.568 -18.115 -25.624  0.00  0.00    +0.292 HD
ENDBRANCH   6  11
BRANCH   2  13
ATOM     13  C   UNL     1      35.180 -17.944 -22.932  0.00  0.00    +0.005 C 
BRANCH  13  14
ATOM     14  C   UNL     1      36.250 -18.233 -21.863  0.00  0.00    -0.073 C 
BRANCH  14  15
ATOM     15  N   UNL     1      35.744 -19.107 -20.810  0.00  0.00    +0.387 N 
ATOM     16  H   UNL     1      35.333 -18.523 -20.081  0.00  0.00    -0.080 HD
BRANCH  15  17
ATOM     17  C   UNL     1      36.834 -19.886 -20.221  0.00  0.00    -0.077 C 
BRANCH  17  18
ATOM     18  C   UNL     1      36.371 -21.313 -19.934  0.00  0.00    -0.023 C 
ATOM     19  C   UNL     1      36.420 -21.621 -18.445  0.00  0.00    -0.002 C 
ENDBRANCH  17  18
ENDBRANCH  15  17
BRANCH  15  20
ATOM     20  C   UNL     1      34.708 -19.998 -21.334  0.00  0.00    -0.077 C 
BRANCH  20  21
ATOM     21  C   UNL     1      33.350 -19.643 -20.734  0.00  0.00    -0.023 C 
ATOM     22  C   UNL     1      32.862 -20.727 -19.786  0.00  0.00    -0.002 C 
ENDBRANCH  20  21
ENDBRANCH  15  20
ENDBRANCH  14  15
ENDBRANCH  13  14
ENDBRANCH   2  13
TORSDOF 8
ENDMDL
MODEL 6
REMARK VINA RESULT:      -8.0      1.750      3.206
REMARK  Name = 21854223
REMARK  8 active torsions:
REMARK  status: ('A' for Active; 'I' for Inactive)
REMARK    1  A    between atoms: C_2  and  C_13
REMARK    2  A    between atoms: C_6  and  O_11
REMARK    3  A    between atoms: C_13  and  C_14
REMARK    4  A    between atoms: C_14  and  N_15
REMARK    5  A    between atoms: N_15  and  C_17
REMARK    6  A    between atoms: N_15  and  C_20
REMARK    7  A    between atoms: C_17  and  C_18
REMARK    8  A    between atoms: C_20  and  C_21
REMARK                            x       y       z     vdW  Elec       q    Type
REMARK                         _______ _______ _______ _____ _____    ______ ____
ROOT
ATOM      1  N   UNL     1      32.636 -20.991 -20.075  0.00  0.00    -0.312 N 
ATOM      2  C   UNL     1      34.002 -19.646 -21.193  0.00  0.00    -0.006 C 
ATOM      3  C   UNL     1      34.780 -20.413 -20.282  0.00  0.00    +0.044 C 
ATOM      4  C   UNL     1      33.899 -21.250 -19.594  0.00  0.00    +0.051 C 
ATOM      5  C   UNL     1      32.687 -20.023 -21.042  0.00  0.00    +0.058 C 
ATOM      6  C   UNL     1      36.155 -20.477 -19.978  0.00  0.00    +0.135 C 
ATOM      7  C   UNL     1      34.325 -22.151 -18.611  0.00  0.00    +0.015 C 
ATOM      8  C   UNL     1      36.595 -21.373 -18.997  0.00  0.00    +0.037 C 
ATOM      9  C   UNL     1      35.693 -22.196 -18.326  0.00  0.00    +0.004 C 
ATOM     10  H   UNL     1      31.814 -21.439 -19.770  0.00  0.00    +0.152 HD
ENDROOT
BRANCH   6  11
ATOM     11  O   UNL     1      37.071 -19.685 -20.616  0.00  0.00    -0.505 OA
ATOM     12  H   UNL     1      37.282 -19.845 -21.516  0.00  0.00    +0.292 HD
ENDBRANCH   6  11
BRANCH   2  13
ATOM     13  C   UNL     1      34.496 -18.621 -22.135  0.00  0.00    +0.005 C 
BRANCH  13  14
ATOM     14  C   UNL     1      34.693 -17.244 -21.477  0.00  0.00    -0.073 C 
BRANCH  14  15
ATOM     15  N   UNL     1      35.086 -16.227 -22.447  0.00  0.00    +0.387 N 
ATOM     16  H   UNL     1      36.106 -16.206 -22.491  0.00  0.00    -0.080 HD
BRANCH  15  17
ATOM     17  C   UNL     1      34.611 -14.907 -22.031  0.00  0.00    -0.077 C 
BRANCH  17  18
ATOM     18  C   UNL     1      33.953 -14.990 -20.656  0.00  0.00    -0.023 C 
ATOM     19  C   UNL     1      32.636 -14.231 -20.626  0.00  0.00    -0.002 C 
ENDBRANCH  17  18
ENDBRANCH  15  17
BRANCH  15  20
ATOM     20  C   UNL     1      34.570 -16.559 -23.776  0.00  0.00    -0.077 C 
BRANCH  20  21
ATOM     21  C   UNL     1      33.764 -15.392 -24.339  0.00  0.00    -0.023 C 
ATOM     22  C   UNL     1      33.475 -15.580 -25.820  0.00  0.00    -0.002 C 
ENDBRANCH  20  21
ENDBRANCH  15  20
ENDBRANCH  14  15
ENDBRANCH  13  14
ENDBRANCH   2  13
TORSDOF 8
ENDMDL
MODEL 7
REMARK VINA RESULT:      -8.0      3.368      5.633
REMARK  Name = 21854223
REMARK  8 active torsions:
REMARK  status: ('A' for Active; 'I' for Inactive)
REMARK    1  A    between atoms: C_2  and  C_13
REMARK    2  A    between atoms: C_6  and  O_11
REMARK    3  A    between atoms: C_13  and  C_14
REMARK    4  A    between atoms: C_14  and  N_15
REMARK    5  A    between atoms: N_15  and  C_17
REMARK    6  A    between atoms: N_15  and  C_20
REMARK    7  A    between atoms: C_17  and  C_18
REMARK    8  A    between atoms: C_20  and  C_21
REMARK                            x       y       z     vdW  Elec       q    Type
REMARK                         _______ _______ _______ _____ _____    ______ ____
ROOT
ATOM      1  N   UNL     1      34.743 -16.251 -21.423  0.00  0.00    -0.312 N 
ATOM      2  C   UNL     1      34.226 -14.872 -23.083  0.00  0.00    -0.006 C 
ATOM      3  C   UNL     1      34.401 -16.176 -23.626  0.00  0.00    +0.044 C 
ATOM      4  C   UNL     1      34.724 -17.022 -22.563  0.00  0.00    +0.051 C 
ATOM      5  C   UNL     1      34.442 -14.950 -21.727  0.00  0.00    +0.058 C 
ATOM      6  C   UNL     1      34.315 -16.718 -24.924  0.00  0.00    +0.135 C 
ATOM      7  C   UNL     1      34.967 -18.389 -22.733  0.00  0.00    +0.015 C 
ATOM      8  C   UNL     1      34.556 -18.085 -25.109  0.00  0.00    +0.037 C 
ATOM      9  C   UNL     1      34.876 -18.905 -24.029  0.00  0.00    +0.004 C 
ATOM     10  H   UNL     1      34.941 -16.586 -20.518  0.00  0.00    +0.152 HD
ENDROOT
BRANCH   6  11
ATOM     11  O   UNL     1      34.002 -15.944 -26.008  0.00  0.00    -0.505 OA
ATOM     12  H   UNL     1      33.316 -15.308 -25.947  0.00  0.00    +0.292 HD
ENDBRANCH   6  11
BRANCH   2  13
ATOM     13  C   UNL     1      33.878 -13.643 -23.826  0.00  0.00    +0.005 C 
BRANCH  13  14
ATOM     14  C   UNL     1      32.769 -12.822 -23.144  0.00  0.00    -0.073 C 
BRANCH  14  15
ATOM     15  N   UNL     1      33.104 -11.403 -23.079  0.00  0.00    +0.387 N 
ATOM     16  H   UNL     1      33.943 -11.300 -22.507  0.00  0.00    -0.080 HD
BRANCH  15  17
ATOM     17  C   UNL     1      32.019 -10.646 -22.454  0.00  0.00    -0.077 C 
BRANCH  17  18
ATOM     18  C   UNL     1      31.231 -11.540 -21.499  0.00  0.00    -0.023 C 
ATOM     19  C   UNL     1      31.220 -10.969 -20.089  0.00  0.00    -0.002 C 
ENDBRANCH  17  18
ENDBRANCH  15  17
BRANCH  15  20
ATOM     20  C   UNL     1      33.386 -10.880 -24.416  0.00  0.00    -0.077 C 
BRANCH  20  21
ATOM     21  C   UNL     1      34.650 -10.025 -24.396  0.00  0.00    -0.023 C 
ATOM     22  C   UNL     1      35.505 -10.271 -25.629  0.00  0.00    -0.002 C 
ENDBRANCH  20  21
ENDBRANCH  15  20
ENDBRANCH  14  15
ENDBRANCH  13  14
ENDBRANCH   2  13
TORSDOF 8
ENDMDL
MODEL 8
REMARK VINA RESULT:      -8.0      2.864      4.472
REMARK  Name = 21854223
REMARK  8 active torsions:
REMARK  status: ('A' for Active; 'I' for Inactive)
REMARK    1  A    between atoms: C_2  and  C_13
REMARK    2  A    between atoms: C_6  and  O_11
REMARK    3  A    between atoms: C_13  and  C_14
REMARK    4  A    between atoms: C_14  and  N_15
REMARK    5  A    between atoms: N_15  and  C_17
REMARK    6  A    between atoms: N_15  and  C_20
REMARK    7  A    between atoms: C_17  and  C_18
REMARK    8  A    between atoms: C_20  and  C_21
REMARK                            x       y       z     vdW  Elec       q    Type
REMARK                         _______ _______ _______ _____ _____    ______ ____
ROOT
ATOM      1  N   UNL     1      34.383 -17.103 -24.836  0.00  0.00    -0.312 N 
ATOM      2  C   UNL     1      34.381 -15.513 -23.288  0.00  0.00    -0.006 C 
ATOM      3  C   UNL     1      34.705 -16.748 -22.658  0.00  0.00    +0.044 C 
ATOM      4  C   UNL     1      34.701 -17.728 -23.651  0.00  0.00    +0.051 C 
ATOM      5  C   UNL     1      34.188 -15.764 -24.627  0.00  0.00    +0.058 C 
ATOM      6  C   UNL     1      35.004 -17.124 -21.333  0.00  0.00    +0.135 C 
ATOM      7  C   UNL     1      34.981 -19.074 -23.386  0.00  0.00    +0.015 C 
ATOM      8  C   UNL     1      35.286 -18.466 -21.053  0.00  0.00    +0.037 C 
ATOM      9  C   UNL     1      35.274 -19.424 -22.065  0.00  0.00    +0.004 C 
ATOM     10  H   UNL     1      34.308 -17.553 -25.709  0.00  0.00    +0.152 HD
ENDROOT
BRANCH   6  11
ATOM     11  O   UNL     1      35.027 -16.211 -20.313  0.00  0.00    -0.505 OA
ATOM     12  H   UNL     1      34.230 -15.807 -20.029  0.00  0.00    +0.292 HD
ENDBRANCH   6  11
BRANCH   2  13
ATOM     13  C   UNL     1      34.263 -14.192 -22.638  0.00  0.00    +0.005 C 
BRANCH  13  14
ATOM     14  C   UNL     1      32.804 -13.777 -22.379  0.00  0.00    -0.073 C 
BRANCH  14  15
ATOM     15  N   UNL     1      32.442 -12.569 -23.114  0.00  0.00    +0.387 N 
ATOM     16  H   UNL     1      31.736 -12.817 -23.808  0.00  0.00    -0.080 HD
BRANCH  15  17
ATOM     17  C   UNL     1      33.607 -12.022 -23.810  0.00  0.00    -0.077 C 
BRANCH  17  18
ATOM     18  C   UNL     1      33.542 -10.497 -23.835  0.00  0.00    -0.023 C 
ATOM     19  C   UNL     1      34.795  -9.900 -24.458  0.00  0.00    -0.002 C 
ENDBRANCH  17  18
ENDBRANCH  15  17
BRANCH  15  20
ATOM     20  C   UNL     1      31.874 -11.568 -22.209  0.00  0.00    -0.077 C 
BRANCH  20  21
ATOM     21  C   UNL     1      31.686 -12.159 -20.815  0.00  0.00    -0.023 C 
ATOM     22  C   UNL     1      31.518 -11.068 -19.769  0.00  0.00    -0.002 C 
ENDBRANCH  20  21
ENDBRANCH  15  20
ENDBRANCH  14  15
ENDBRANCH  13  14
ENDBRANCH   2  13
TORSDOF 8
ENDMDL
MODEL 9
REMARK VINA RESULT:      -7.7      2.905      5.064
REMARK  Name = 21854223
REMARK  8 active torsions:
REMARK  status: ('A' for Active; 'I' for Inactive)
REMARK    1  A    between atoms: C_2  and  C_13
REMARK    2  A    between atoms: C_6  and  O_11
REMARK    3  A    between atoms: C_13  and  C_14
REMARK    4  A    between atoms: C_14  and  N_15
REMARK    5  A    between atoms: N_15  and  C_17
REMARK    6  A    between atoms: N_15  and  C_20
REMARK    7  A    between atoms: C_17  and  C_18
REMARK    8  A    between atoms: C_20  and  C_21
REMARK                            x       y       z     vdW  Elec       q    Type
REMARK                         _______ _______ _______ _____ _____    ______ ____
ROOT
ATOM      1  N   UNL     1      34.320 -17.037 -24.843  0.00  0.00    -0.312 N 
ATOM      2  C   UNL     1      34.342 -15.460 -23.281  0.00  0.00    -0.006 C 
ATOM      3  C   UNL     1      34.682 -16.699 -22.668  0.00  0.00    +0.044 C 
ATOM      4  C   UNL     1      34.662 -17.671 -23.670  0.00  0.00    +0.051 C 
ATOM      5  C   UNL     1      34.125 -15.700 -24.618  0.00  0.00    +0.058 C 
ATOM      6  C   UNL     1      35.007 -17.085 -21.352  0.00  0.00    +0.135 C 
ATOM      7  C   UNL     1      34.951 -19.017 -23.421  0.00  0.00    +0.015 C 
ATOM      8  C   UNL     1      35.298 -18.429 -21.089  0.00  0.00    +0.037 C 
ATOM      9  C   UNL     1      35.270 -19.378 -22.109  0.00  0.00    +0.004 C 
ATOM     10  H   UNL     1      34.231 -17.480 -25.718  0.00  0.00    +0.152 HD
ENDROOT
BRANCH   6  11
ATOM     11  O   UNL     1      35.045 -16.181 -20.325  0.00  0.00    -0.505 OA
ATOM     12  H   UNL     1      34.323 -15.600 -20.186  0.00  0.00    +0.292 HD
ENDBRANCH   6  11
BRANCH   2  13
ATOM     13  C   UNL     1      34.232 -14.144 -22.618  0.00  0.00    +0.005 C 
BRANCH  13  14
ATOM     14  C   UNL     1      33.107 -13.270 -23.200  0.00  0.00    -0.073 C 
BRANCH  14  15
ATOM     15  N   UNL     1      33.504 -11.869 -23.303  0.00  0.00    +0.387 N 
ATOM     16  H   UNL     1      34.343 -11.733 -22.738  0.00  0.00    -0.080 HD
BRANCH  15  17
ATOM     17  C   UNL     1      32.449 -10.996 -22.786  0.00  0.00    -0.077 C 
BRANCH  17  18
ATOM     18  C   UNL     1      31.477 -11.795 -21.922  0.00  0.00    -0.023 C 
ATOM     19  C   UNL     1      31.431 -11.258 -20.499  0.00  0.00    -0.002 C 
ENDBRANCH  17  18
ENDBRANCH  15  17
BRANCH  15  20
ATOM     20  C   UNL     1      33.816 -11.524 -24.691  0.00  0.00    -0.077 C 
BRANCH  20  21
ATOM     21  C   UNL     1      34.752 -10.320 -24.741  0.00  0.00    -0.023 C 
ATOM     22  C   UNL     1      35.587 -10.320 -26.012  0.00  0.00    -0.002 C 
ENDBRANCH  20  21
ENDBRANCH  15  20
ENDBRANCH  14  15
ENDBRANCH  13  14
ENDBRANCH   2  13
TORSDOF 8
ENDMDL
