MODEL 1
REMARK VINA RESULT:      -9.3      0.000      0.000
REMARK  Name = 4904
REMARK  6 active torsions:
REMARK  status: ('A' for Active; 'I' for Inactive)
REMARK    1  A    between atoms: C_1  and  C_2
REMARK    2  A    between atoms: C_1  and  C_8
REMARK    3  A    between atoms: C_1  and  O_14
REMARK    4  A    between atoms: C_1  and  C_16
REMARK    5  A    between atoms: C_16  and  C_17
REMARK    6  A    between atoms: C_17  and  N_18
REMARK                            x       y       z     vdW  Elec       q    Type
REMARK                         _______ _______ _______ _____ _____    ______ ____
ROOT
ATOM      1  C   UNL     1      34.830 -18.339 -21.879  0.00  0.00    +0.124 C 
ENDROOT
BRANCH   1   2
ATOM      2  C   UNL     1      34.604 -19.563 -20.977  0.00  0.00    +0.005 C 
ATOM      3  C   UNL     1      33.314 -19.952 -20.717  0.00  0.00    -0.002 C 
ATOM      4  C   UNL     1      35.703 -20.214 -20.474  0.00  0.00    -0.002 C 
ATOM      5  C   UNL     1      33.109 -21.063 -19.900  0.00  0.00    -0.000 C 
ATOM      6  C   UNL     1      35.498 -21.326 -19.657  0.00  0.00    -0.000 C 
ATOM      7  C   UNL     1      34.200 -21.750 -19.370  0.00  0.00    -0.000 C 
ENDBRANCH   1   2
BRANCH   1   8
ATOM      8  C   UNL     1      34.148 -17.103 -21.275  0.00  0.00    +0.005 C 
ATOM      9  C   UNL     1      34.940 -16.094 -20.786  0.00  0.00    -0.002 C 
ATOM     10  C   UNL     1      32.775 -17.061 -21.250  0.00  0.00    -0.002 C 
ATOM     11  C   UNL     1      34.320 -14.971 -20.237  0.00  0.00    -0.000 C 
ATOM     12  C   UNL     1      32.156 -15.938 -20.701  0.00  0.00    -0.000 C 
ATOM     13  C   UNL     1      32.929 -14.893 -20.195  0.00  0.00    -0.000 C 
ENDBRANCH   1   8
BRANCH   1  14
ATOM     14  O   UNL     1      36.255 -18.137 -21.943  0.00  0.00    -0.379 OA
ATOM     15  H   UNL     1      36.448 -17.187 -21.913  0.00  0.00    +0.211 HD
ENDBRANCH   1  14
BRANCH   1  16
ATOM     16  C   UNL     1      34.382 -18.543 -23.360  0.00  0.00    +0.013 C 
BRANCH  16  17
ATOM     17  C   UNL     1      34.976 -17.524 -24.343  0.00  0.00    -0.074 C 
BRANCH  17  18
ATOM     18  N   UNL     1      34.044 -16.414 -24.542  0.00  0.00    +0.387 N 
ATOM     19  C   UNL     1      33.783 -16.213 -25.975  0.00  0.00    -0.077 C 
ATOM     20  C   UNL     1      34.563 -15.188 -23.920  0.00  0.00    -0.077 C 
ATOM     21  C   UNL     1      32.772 -15.088 -26.199  0.00  0.00    -0.023 C 
ATOM     22  C   UNL     1      33.578 -14.029 -24.077  0.00  0.00    -0.023 C 
ATOM     23  C   UNL     1      33.230 -13.790 -25.542  0.00  0.00    -0.004 C 
ATOM     24  H   UNL     1      33.160 -16.645 -24.091  0.00  0.00    -0.080 HD
ENDBRANCH  17  18
ENDBRANCH  16  17
ENDBRANCH   1  16
TORSDOF 6
ENDMDL
MODEL 2
REMARK VINA RESULT:      -9.3      7.054     10.772
REMARK  Name = 4904
REMARK  6 active torsions:
REMARK  status: ('A' for Active; 'I' for Inactive)
REMARK    1  A    between atoms: C_1  and  C_2
REMARK    2  A    between atoms: C_1  and  C_8
REMARK    3  A    between atoms: C_1  and  O_14
REMARK    4  A    between atoms: C_1  and  C_16
REMARK    5  A    between atoms: C_16  and  C_17
REMARK    6  A    between atoms: C_17  and  N_18
REMARK                            x       y       z     vdW  Elec       q    Type
REMARK                         _______ _______ _______ _____ _____    ______ ____
ROOT
ATOM      1  C   UNL     1      34.896 -23.662 -15.141  0.00  0.00    +0.124 C 
ENDROOT
BRANCH   1   2
ATOM      2  C   UNL     1      34.961 -23.041 -16.545  0.00  0.00    +0.005 C 
ATOM      3  C   UNL     1      33.864 -23.161 -17.363  0.00  0.00    -0.002 C 
ATOM      4  C   UNL     1      36.112 -22.393 -16.919  0.00  0.00    -0.002 C 
ATOM      5  C   UNL     1      33.923 -22.597 -18.636  0.00  0.00    -0.000 C 
ATOM      6  C   UNL     1      36.170 -21.828 -18.193  0.00  0.00    -0.000 C 
ATOM      7  C   UNL     1      35.075 -21.930 -19.052  0.00  0.00    -0.000 C 
ENDBRANCH   1   2
BRANCH   1   8
ATOM      8  C   UNL     1      36.092 -24.600 -14.921  0.00  0.00    +0.005 C 
ATOM      9  C   UNL     1      35.995 -25.895 -15.364  0.00  0.00    -0.002 C 
ATOM     10  C   UNL     1      37.205 -24.102 -14.290  0.00  0.00    -0.002 C 
ATOM     11  C   UNL     1      37.082 -26.748 -15.165  0.00  0.00    -0.000 C 
ATOM     12  C   UNL     1      38.292 -24.954 -14.092  0.00  0.00    -0.000 C 
ATOM     13  C   UNL     1      38.229 -26.276 -14.529  0.00  0.00    -0.000 C 
ENDBRANCH   1   8
BRANCH   1  14
ATOM     14  O   UNL     1      34.947 -22.566 -14.207  0.00  0.00    -0.379 OA
ATOM     15  H   UNL     1      35.178 -22.901 -13.327  0.00  0.00    +0.211 HD
ENDBRANCH   1  14
BRANCH   1  16
ATOM     16  C   UNL     1      33.556 -24.400 -14.828  0.00  0.00    +0.013 C 
BRANCH  16  17
ATOM     17  C   UNL     1      32.767 -23.800 -13.655  0.00  0.00    -0.074 C 
BRANCH  17  18
ATOM     18  N   UNL     1      31.336 -23.800 -13.959  0.00  0.00    +0.387 N 
ATOM     19  C   UNL     1      30.905 -25.135 -14.399  0.00  0.00    -0.077 C 
ATOM     20  C   UNL     1      31.024 -22.780 -14.971  0.00  0.00    -0.077 C 
ATOM     21  C   UNL     1      29.401 -25.166 -14.675  0.00  0.00    -0.023 C 
ATOM     22  C   UNL     1      29.525 -22.735 -15.265  0.00  0.00    -0.023 C 
ATOM     23  C   UNL     1      29.000 -24.101 -15.690  0.00  0.00    -0.004 C 
ATOM     24  H   UNL     1      30.821 -23.568 -13.111  0.00  0.00    -0.080 HD
ENDBRANCH  17  18
ENDBRANCH  16  17
ENDBRANCH   1  16
TORSDOF 6
ENDMDL
MODEL 3
REMARK VINA RESULT:      -9.0      1.458      4.411
REMARK  Name = 4904
REMARK  6 active torsions:
REMARK  status: ('A' for Active; 'I' for Inactive)
REMARK    1  A    between atoms: C_1  and  C_2
REMARK    2  A    between atoms: C_1  and  C_8
REMARK    3  A    between atoms: C_1  and  O_14
REMARK    4  A    between atoms: C_1  and  C_16
REMARK    5  A    between atoms: C_16  and  C_17
REMARK    6  A    between atoms: C_17  and  N_18
REMARK                            x       y       z     vdW  Elec       q    Type
REMARK                         _______ _______ _______ _____ _____    ______ ____
ROOT
ATOM      1  C   UNL     1      34.762 -18.103 -21.474  0.00  0.00    +0.124 C 
ENDROOT
BRANCH   1   2
ATOM      2  C   UNL     1      34.699 -18.298 -22.997  0.00  0.00    +0.005 C 
ATOM      3  C   UNL     1      34.769 -19.575 -23.495  0.00  0.00    -0.002 C 
ATOM      4  C   UNL     1      34.572 -17.185 -23.792  0.00  0.00    -0.002 C 
ATOM      5  C   UNL     1      34.710 -19.752 -24.877  0.00  0.00    -0.000 C 
ATOM      6  C   UNL     1      34.513 -17.362 -25.174  0.00  0.00    -0.000 C 
ATOM      7  C   UNL     1      34.582 -18.646 -25.717  0.00  0.00    -0.000 C 
ENDBRANCH   1   2
BRANCH   1   8
ATOM      8  C   UNL     1      34.402 -19.413 -20.758  0.00  0.00    +0.005 C 
ATOM      9  C   UNL     1      35.423 -20.238 -20.354  0.00  0.00    -0.002 C 
ATOM     10  C   UNL     1      33.076 -19.702 -20.552  0.00  0.00    -0.002 C 
ATOM     11  C   UNL     1      35.096 -21.428 -19.703  0.00  0.00    -0.000 C 
ATOM     12  C   UNL     1      32.750 -20.891 -19.900  0.00  0.00    -0.000 C 
ATOM     13  C   UNL     1      33.760 -21.754 -19.476  0.00  0.00    -0.000 C 
ENDBRANCH   1   8
BRANCH   1  14
ATOM     14  O   UNL     1      36.119 -17.727 -21.167  0.00  0.00    -0.379 OA
ATOM     15  H   UNL     1      36.709 -18.045 -21.868  0.00  0.00    +0.211 HD
ENDBRANCH   1  14
BRANCH   1  16
ATOM     16  C   UNL     1      33.885 -16.928 -20.941  0.00  0.00    +0.013 C 
BRANCH  16  17
ATOM     17  C   UNL     1      34.687 -15.699 -20.489  0.00  0.00    -0.074 C 
BRANCH  17  18
ATOM     18  N   UNL     1      34.117 -14.484 -21.073  0.00  0.00    +0.387 N 
ATOM     19  C   UNL     1      32.691 -14.371 -20.732  0.00  0.00    -0.077 C 
ATOM     20  C   UNL     1      34.319 -14.469 -22.528  0.00  0.00    -0.077 C 
ATOM     21  C   UNL     1      32.091 -13.081 -21.293  0.00  0.00    -0.023 C 
ATOM     22  C   UNL     1      33.771 -13.182 -23.147  0.00  0.00    -0.023 C 
ATOM     23  C   UNL     1      32.301 -12.980 -22.800  0.00  0.00    -0.004 C 
ATOM     24  H   UNL     1      34.599 -13.676 -20.681  0.00  0.00    -0.080 HD
ENDBRANCH  17  18
ENDBRANCH  16  17
ENDBRANCH   1  16
TORSDOF 6
ENDMDL
MODEL 4
REMARK VINA RESULT:      -8.9      7.597     10.632
REMARK  Name = 4904
REMARK  6 active torsions:
REMARK  status: ('A' for Active; 'I' for Inactive)
REMARK    1  A    between atoms: C_1  and  C_2
REMARK    2  A    between atoms: C_1  and  C_8
REMARK    3  A    between atoms: C_1  and  O_14
REMARK    4  A    between atoms: C_1  and  C_16
REMARK    5  A    between atoms: C_16  and  C_17
REMARK    6  A    between atoms: C_17  and  N_18
REMARK                            x       y       z     vdW  Elec       q    Type
REMARK                         _______ _______ _______ _____ _____    ______ ____
ROOT
ATOM      1  C   UNL     1      35.023 -24.124 -14.657  0.00  0.00    +0.124 C 
ENDROOT
BRANCH   1   2
ATOM      2  C   UNL     1      36.238 -24.206 -13.719  0.00  0.00    +0.005 C 
ATOM      3  C   UNL     1      36.384 -23.240 -12.755  0.00  0.00    -0.002 C 
ATOM      4  C   UNL     1      37.122 -25.243 -13.886  0.00  0.00    -0.002 C 
ATOM      5  C   UNL     1      37.485 -23.315 -11.904  0.00  0.00    -0.000 C 
ATOM      6  C   UNL     1      38.224 -25.318 -13.034  0.00  0.00    -0.000 C 
ATOM      7  C   UNL     1      38.405 -24.353 -12.043  0.00  0.00    -0.000 C 
ENDBRANCH   1   2
BRANCH   1   8
ATOM      8  C   UNL     1      35.374 -23.303 -15.907  0.00  0.00    +0.005 C 
ATOM      9  C   UNL     1      34.424 -23.174 -16.890  0.00  0.00    -0.002 C 
ATOM     10  C   UNL     1      36.621 -22.735 -15.987  0.00  0.00    -0.002 C 
ATOM     11  C   UNL     1      34.742 -22.428 -18.025  0.00  0.00    -0.000 C 
ATOM     12  C   UNL     1      36.938 -21.988 -17.121  0.00  0.00    -0.000 C 
ATOM     13  C   UNL     1      35.999 -21.835 -18.140  0.00  0.00    -0.000 C 
ENDBRANCH   1   8
BRANCH   1  14
ATOM     14  O   UNL     1      34.702 -25.479 -15.028  0.00  0.00    -0.379 OA
ATOM     15  H   UNL     1      33.840 -25.497 -15.471  0.00  0.00    +0.211 HD
ENDBRANCH   1  14
BRANCH   1  16
ATOM     16  C   UNL     1      33.730 -23.570 -13.983  0.00  0.00    +0.013 C 
BRANCH  16  17
ATOM     17  C   UNL     1      32.644 -24.630 -13.739  0.00  0.00    -0.074 C 
BRANCH  17  18
ATOM     18  N   UNL     1      31.557 -24.468 -14.705  0.00  0.00    +0.387 N 
ATOM     19  C   UNL     1      31.376 -23.048 -15.041  0.00  0.00    -0.077 C 
ATOM     20  C   UNL     1      30.314 -25.053 -14.184  0.00  0.00    -0.077 C 
ATOM     21  C   UNL     1      30.276 -22.865 -16.088  0.00  0.00    -0.023 C 
ATOM     22  C   UNL     1      29.180 -24.935 -15.202  0.00  0.00    -0.023 C 
ATOM     23  C   UNL     1      28.963 -23.488 -15.627  0.00  0.00    -0.004 C 
ATOM     24  H   UNL     1      31.804 -24.964 -15.560  0.00  0.00    -0.080 HD
ENDBRANCH  17  18
ENDBRANCH  16  17
ENDBRANCH   1  16
TORSDOF 6
ENDMDL
MODEL 5
REMARK VINA RESULT:      -8.9      2.504      6.364
REMARK  Name = 4904
REMARK  6 active torsions:
REMARK  status: ('A' for Active; 'I' for Inactive)
REMARK    1  A    between atoms: C_1  and  C_2
REMARK    2  A    between atoms: C_1  and  C_8
REMARK    3  A    between atoms: C_1  and  O_14
REMARK    4  A    between atoms: C_1  and  C_16
REMARK    5  A    between atoms: C_16  and  C_17
REMARK    6  A    between atoms: C_17  and  N_18
REMARK                            x       y       z     vdW  Elec       q    Type
REMARK                         _______ _______ _______ _____ _____    ______ ____
ROOT
ATOM      1  C   UNL     1      33.031 -13.803 -22.527  0.00  0.00    +0.124 C 
ENDROOT
BRANCH   1   2
ATOM      2  C   UNL     1      33.183 -13.457 -24.017  0.00  0.00    +0.005 C 
ATOM      3  C   UNL     1      33.771 -12.262 -24.352  0.00  0.00    -0.002 C 
ATOM      4  C   UNL     1      32.727 -14.359 -24.946  0.00  0.00    -0.002 C 
ATOM      5  C   UNL     1      33.910 -11.949 -25.703  0.00  0.00    -0.000 C 
ATOM      6  C   UNL     1      32.867 -14.045 -26.298  0.00  0.00    -0.000 C 
ATOM      7  C   UNL     1      33.459 -12.840 -26.677  0.00  0.00    -0.000 C 
ENDBRANCH   1   2
BRANCH   1   8
ATOM      8  C   UNL     1      32.368 -12.637 -21.778  0.00  0.00    +0.005 C 
ATOM      9  C   UNL     1      32.239 -12.727 -20.415  0.00  0.00    -0.002 C 
ATOM     10  C   UNL     1      31.935 -11.555 -22.505  0.00  0.00    -0.002 C 
ATOM     11  C   UNL     1      31.638 -11.668 -19.734  0.00  0.00    -0.000 C 
ATOM     12  C   UNL     1      31.335 -10.496 -21.824  0.00  0.00    -0.000 C 
ATOM     13  C   UNL     1      31.186 -10.553 -20.439  0.00  0.00    -0.000 C 
ENDBRANCH   1   8
BRANCH   1  14
ATOM     14  O   UNL     1      32.192 -14.973 -22.464  0.00  0.00    -0.379 OA
ATOM     15  H   UNL     1      31.938 -15.237 -23.361  0.00  0.00    +0.211 HD
ENDBRANCH   1  14
BRANCH   1  16
ATOM     16  C   UNL     1      34.362 -14.218 -21.827  0.00  0.00    +0.013 C 
BRANCH  16  17
ATOM     17  C   UNL     1      34.286 -15.555 -21.074  0.00  0.00    -0.074 C 
BRANCH  17  18
ATOM     18  N   UNL     1      34.241 -16.666 -22.024  0.00  0.00    +0.387 N 
ATOM     19  C   UNL     1      34.504 -17.939 -21.338  0.00  0.00    -0.077 C 
ATOM     20  C   UNL     1      35.197 -16.446 -23.119  0.00  0.00    -0.077 C 
ATOM     21  C   UNL     1      34.412 -19.118 -22.308  0.00  0.00    -0.023 C 
ATOM     22  C   UNL     1      35.128 -17.576 -24.146  0.00  0.00    -0.023 C 
ATOM     23  C   UNL     1      35.353 -18.935 -23.494  0.00  0.00    -0.004 C 
ATOM     24  H   UNL     1      33.307 -16.714 -22.428  0.00  0.00    -0.080 HD
ENDBRANCH  17  18
ENDBRANCH  16  17
ENDBRANCH   1  16
TORSDOF 6
ENDMDL
MODEL 6
REMARK VINA RESULT:      -8.8      7.553     10.125
REMARK  Name = 4904
REMARK  6 active torsions:
REMARK  status: ('A' for Active; 'I' for Inactive)
REMARK    1  A    between atoms: C_1  and  C_2
REMARK    2  A    between atoms: C_1  and  C_8
REMARK    3  A    between atoms: C_1  and  O_14
REMARK    4  A    between atoms: C_1  and  C_16
REMARK    5  A    between atoms: C_16  and  C_17
REMARK    6  A    between atoms: C_17  and  N_18
REMARK                            x       y       z     vdW  Elec       q    Type
REMARK                         _______ _______ _______ _____ _____    ______ ____
ROOT
ATOM      1  C   UNL     1      32.195  -8.656 -22.753  0.00  0.00    +0.124 C 
ENDROOT
BRANCH   1   2
ATOM      2  C   UNL     1      31.902  -9.475 -21.487  0.00  0.00    +0.005 C 
ATOM      3  C   UNL     1      32.350  -8.995 -20.281  0.00  0.00    -0.002 C 
ATOM      4  C   UNL     1      31.204 -10.651 -21.617  0.00  0.00    -0.002 C 
ATOM      5  C   UNL     1      32.083  -9.738 -19.132  0.00  0.00    -0.000 C 
ATOM      6  C   UNL     1      30.938 -11.394 -20.468  0.00  0.00    -0.000 C 
ATOM      7  C   UNL     1      31.377 -10.937 -19.225  0.00  0.00    -0.000 C 
ENDBRANCH   1   2
BRANCH   1   8
ATOM      8  C   UNL     1      33.215  -9.391 -23.636  0.00  0.00    +0.005 C 
ATOM      9  C   UNL     1      32.894 -10.643 -24.099  0.00  0.00    -0.002 C 
ATOM     10  C   UNL     1      34.403  -8.765 -23.922  0.00  0.00    -0.002 C 
ATOM     11  C   UNL     1      33.820 -11.311 -24.902  0.00  0.00    -0.000 C 
ATOM     12  C   UNL     1      35.328  -9.432 -24.724  0.00  0.00    -0.000 C 
ATOM     13  C   UNL     1      35.036 -10.705 -25.214  0.00  0.00    -0.000 C 
ENDBRANCH   1   8
BRANCH   1  14
ATOM     14  O   UNL     1      30.942  -8.521 -23.451  0.00  0.00    -0.379 OA
ATOM     15  H   UNL     1      30.259  -8.216 -22.834  0.00  0.00    +0.211 HD
ENDBRANCH   1  14
BRANCH   1  16
ATOM     16  C   UNL     1      32.665  -7.194 -22.476  0.00  0.00    +0.013 C 
BRANCH  16  17
ATOM     17  C   UNL     1      31.540  -6.149 -22.540  0.00  0.00    -0.074 C 
BRANCH  17  18
ATOM     18  N   UNL     1      31.501  -5.534 -23.867  0.00  0.00    +0.387 N 
ATOM     19  C   UNL     1      32.785  -5.719 -24.557  0.00  0.00    -0.077 C 
ATOM     20  C   UNL     1      31.154  -4.109 -23.764  0.00  0.00    -0.077 C 
ATOM     21  C   UNL     1      32.745  -5.124 -25.966  0.00  0.00    -0.023 C 
ATOM     22  C   UNL     1      31.061  -3.462 -25.146  0.00  0.00    -0.023 C 
ATOM     23  C   UNL     1      32.351  -3.652 -25.936  0.00  0.00    -0.004 C 
ATOM     24  H   UNL     1      30.778  -5.993 -24.419  0.00  0.00    -0.080 HD
ENDBRANCH  17  18
ENDBRANCH  16  17
ENDBRANCH   1  16
TORSDOF 6
ENDMDL
MODEL 7
REMARK VINA RESULT:      -8.8      7.552     10.100
REMARK  Name = 4904
REMARK  6 active torsions:
REMARK  status: ('A' for Active; 'I' for Inactive)
REMARK    1  A    between atoms: C_1  and  C_2
REMARK    2  A    between atoms: C_1  and  C_8
REMARK    3  A    between atoms: C_1  and  O_14
REMARK    4  A    between atoms: C_1  and  C_16
REMARK    5  A    between atoms: C_16  and  C_17
REMARK    6  A    between atoms: C_17  and  N_18
REMARK                            x       y       z     vdW  Elec       q    Type
REMARK                         _______ _______ _______ _____ _____    ______ ____
ROOT
ATOM      1  C   UNL     1      32.197  -8.656 -22.754  0.00  0.00    +0.124 C 
ENDROOT
BRANCH   1   2
ATOM      2  C   UNL     1      31.902  -9.476 -21.488  0.00  0.00    +0.005 C 
ATOM      3  C   UNL     1      31.204 -10.651 -21.620  0.00  0.00    -0.002 C 
ATOM      4  C   UNL     1      32.351  -8.998 -20.282  0.00  0.00    -0.002 C 
ATOM      5  C   UNL     1      30.937 -11.394 -20.472  0.00  0.00    -0.000 C 
ATOM      6  C   UNL     1      32.084  -9.742 -19.134  0.00  0.00    -0.000 C 
ATOM      7  C   UNL     1      31.377 -10.941 -19.228  0.00  0.00    -0.000 C 
ENDBRANCH   1   2
BRANCH   1   8
ATOM      8  C   UNL     1      33.216  -9.393 -23.636  0.00  0.00    +0.005 C 
ATOM      9  C   UNL     1      32.894 -10.645 -24.097  0.00  0.00    -0.002 C 
ATOM     10  C   UNL     1      34.403  -8.767 -23.925  0.00  0.00    -0.002 C 
ATOM     11  C   UNL     1      33.820 -11.315 -24.900  0.00  0.00    -0.000 C 
ATOM     12  C   UNL     1      35.328  -9.436 -24.727  0.00  0.00    -0.000 C 
ATOM     13  C   UNL     1      35.036 -10.710 -25.214  0.00  0.00    -0.000 C 
ENDBRANCH   1   8
BRANCH   1  14
ATOM     14  O   UNL     1      30.944  -8.519 -23.453  0.00  0.00    -0.379 OA
ATOM     15  H   UNL     1      30.221  -8.459 -22.811  0.00  0.00    +0.211 HD
ENDBRANCH   1  14
BRANCH   1  16
ATOM     16  C   UNL     1      32.669  -7.195 -22.475  0.00  0.00    +0.013 C 
BRANCH  16  17
ATOM     17  C   UNL     1      31.546  -6.148 -22.537  0.00  0.00    -0.074 C 
BRANCH  17  18
ATOM     18  N   UNL     1      31.503  -5.534 -23.864  0.00  0.00    +0.387 N 
ATOM     19  C   UNL     1      32.785  -5.721 -24.558  0.00  0.00    -0.077 C 
ATOM     20  C   UNL     1      31.159  -4.109 -23.760  0.00  0.00    -0.077 C 
ATOM     21  C   UNL     1      32.741  -5.128 -25.967  0.00  0.00    -0.023 C 
ATOM     22  C   UNL     1      31.062  -3.463 -25.143  0.00  0.00    -0.023 C 
ATOM     23  C   UNL     1      32.349  -3.655 -25.937  0.00  0.00    -0.004 C 
ATOM     24  H   UNL     1      30.778  -5.993 -24.414  0.00  0.00    -0.080 HD
ENDBRANCH  17  18
ENDBRANCH  16  17
ENDBRANCH   1  16
TORSDOF 6
ENDMDL
MODEL 8
REMARK VINA RESULT:      -8.8      5.642      8.995
REMARK  Name = 4904
REMARK  6 active torsions:
REMARK  status: ('A' for Active; 'I' for Inactive)
REMARK    1  A    between atoms: C_1  and  C_2
REMARK    2  A    between atoms: C_1  and  C_8
REMARK    3  A    between atoms: C_1  and  O_14
REMARK    4  A    between atoms: C_1  and  C_16
REMARK    5  A    between atoms: C_16  and  C_17
REMARK    6  A    between atoms: C_17  and  N_18
REMARK                            x       y       z     vdW  Elec       q    Type
REMARK                         _______ _______ _______ _____ _____    ______ ____
ROOT
ATOM      1  C   UNL     1      33.097  -8.907 -23.164  0.00  0.00    +0.124 C 
ENDROOT
BRANCH   1   2
ATOM      2  C   UNL     1      32.436  -9.332 -21.844  0.00  0.00    +0.005 C 
ATOM      3  C   UNL     1      31.746 -10.519 -21.812  0.00  0.00    -0.002 C 
ATOM      4  C   UNL     1      32.566  -8.507 -20.754  0.00  0.00    -0.002 C 
ATOM      5  C   UNL     1      31.147 -10.905 -20.614  0.00  0.00    -0.000 C 
ATOM      6  C   UNL     1      31.966  -8.895 -19.555  0.00  0.00    -0.000 C 
ATOM      7  C   UNL     1      31.257 -10.094 -19.485  0.00  0.00    -0.000 C 
ENDBRANCH   1   2
BRANCH   1   8
ATOM      8  C   UNL     1      32.417  -7.644 -23.714  0.00  0.00    +0.005 C 
ATOM      9  C   UNL     1      31.047  -7.569 -23.670  0.00  0.00    -0.002 C 
ATOM     10  C   UNL     1      33.209  -6.645 -24.224  0.00  0.00    -0.002 C 
ATOM     11  C   UNL     1      30.429  -6.422 -24.169  0.00  0.00    -0.000 C 
ATOM     12  C   UNL     1      32.591  -5.498 -24.722  0.00  0.00    -0.000 C 
ATOM     13  C   UNL     1      31.201  -5.387 -24.695  0.00  0.00    -0.000 C 
ENDBRANCH   1   8
BRANCH   1  14
ATOM     14  O   UNL     1      34.478  -8.633 -22.859  0.00  0.00    -0.379 OA
ATOM     15  H   UNL     1      34.948  -8.396 -23.673  0.00  0.00    +0.211 HD
ENDBRANCH   1  14
BRANCH   1  16
ATOM     16  C   UNL     1      33.135 -10.026 -24.251  0.00  0.00    +0.013 C 
BRANCH  16  17
ATOM     17  C   UNL     1      34.489 -10.741 -24.370  0.00  0.00    -0.074 C 
BRANCH  17  18
ATOM     18  N   UNL     1      34.302 -12.082 -24.925  0.00  0.00    +0.387 N 
ATOM     19  C   UNL     1      33.608 -12.011 -26.219  0.00  0.00    -0.077 C 
ATOM     20  C   UNL     1      33.571 -12.934 -23.976  0.00  0.00    -0.077 C 
ATOM     21  C   UNL     1      33.448 -13.401 -26.836  0.00  0.00    -0.023 C 
ATOM     22  C   UNL     1      33.409 -14.353 -24.521  0.00  0.00    -0.023 C 
ATOM     23  C   UNL     1      32.730 -14.351 -25.885  0.00  0.00    -0.004 C 
ATOM     24  H   UNL     1      35.218 -12.502 -25.082  0.00  0.00    -0.080 HD
ENDBRANCH  17  18
ENDBRANCH  16  17
ENDBRANCH   1  16
TORSDOF 6
ENDMDL
MODEL 9
REMARK VINA RESULT:      -8.7      7.572     10.198
REMARK  Name = 4904
REMARK  6 active torsions:
REMARK  status: ('A' for Active; 'I' for Inactive)
REMARK    1  A    between atoms: C_1  and  C_2
REMARK    2  A    between atoms: C_1  and  C_8
REMARK    3  A    between atoms: C_1  and  O_14
REMARK    4  A    between atoms: C_1  and  C_16
REMARK    5  A    between atoms: C_16  and  C_17
REMARK    6  A    between atoms: C_17  and  N_18
REMARK                            x       y       z     vdW  Elec       q    Type
REMARK                         _______ _______ _______ _____ _____    ______ ____
ROOT
ATOM      1  C   UNL     1      32.503  -8.548 -22.604  0.00  0.00    +0.124 C 
ENDROOT
BRANCH   1   2
ATOM      2  C   UNL     1      33.390  -9.346 -23.572  0.00  0.00    +0.005 C 
ATOM      3  C   UNL     1      32.985 -10.605 -23.941  0.00  0.00    -0.002 C 
ATOM      4  C   UNL     1      34.547  -8.764 -24.027  0.00  0.00    -0.002 C 
ATOM      5  C   UNL     1      33.789 -11.329 -24.820  0.00  0.00    -0.000 C 
ATOM      6  C   UNL     1      35.352  -9.488 -24.907  0.00  0.00    -0.000 C 
ATOM      7  C   UNL     1      34.972 -10.771 -25.303  0.00  0.00    -0.000 C 
ENDBRANCH   1   2
BRANCH   1   8
ATOM      8  C   UNL     1      32.047  -9.444 -21.443  0.00  0.00    +0.005 C 
ATOM      9  C   UNL     1      31.310 -10.565 -21.735  0.00  0.00    -0.002 C 
ATOM     10  C   UNL     1      32.394  -9.085 -20.164  0.00  0.00    -0.002 C 
ATOM     11  C   UNL     1      30.896 -11.380 -20.681  0.00  0.00    -0.000 C 
ATOM     12  C   UNL     1      31.980  -9.899 -19.111  0.00  0.00    -0.000 C 
ATOM     13  C   UNL     1      31.231 -11.047 -19.370  0.00  0.00    -0.000 C 
ENDBRANCH   1   8
BRANCH   1  14
ATOM     14  O   UNL     1      33.314  -7.466 -22.105  0.00  0.00    -0.379 OA
ATOM     15  H   UNL     1      33.063  -6.642 -22.551  0.00  0.00    +0.211 HD
ENDBRANCH   1  14
BRANCH   1  16
ATOM     16  C   UNL     1      31.277  -7.859 -23.279  0.00  0.00    +0.013 C 
BRANCH  16  17
ATOM     17  C   UNL     1      30.924  -6.484 -22.690  0.00  0.00    -0.074 C 
BRANCH  17  18
ATOM     18  N   UNL     1      31.621  -5.428 -23.425  0.00  0.00    +0.387 N 
ATOM     19  C   UNL     1      30.993  -4.124 -23.167  0.00  0.00    -0.077 C 
ATOM     20  C   UNL     1      31.646  -5.731 -24.863  0.00  0.00    -0.077 C 
ATOM     21  C   UNL     1      31.740  -3.001 -23.889  0.00  0.00    -0.023 C 
ATOM     22  C   UNL     1      32.413  -4.661 -25.639  0.00  0.00    -0.023 C 
ATOM     23  C   UNL     1      31.839  -3.272 -25.386  0.00  0.00    -0.004 C 
ATOM     24  H   UNL     1      32.585  -5.383 -23.096  0.00  0.00    -0.080 HD
ENDBRANCH  17  18
ENDBRANCH  16  17
ENDBRANCH   1  16
TORSDOF 6
ENDMDL
