MODEL 1
REMARK VINA RESULT:      -7.3      0.000      0.000
REMARK  Name = 241868
REMARK  3 active torsions:
REMARK  status: ('A' for Active; 'I' for Inactive)
REMARK    1  A    between atoms: C_1  and  C_9
REMARK    2  A    between atoms: C_4  and  O_7
REMARK    3  A    between atoms: C_9  and  C_12
REMARK                            x       y       z     vdW  Elec       q    Type
REMARK                         _______ _______ _______ _____ _____    ______ ____
ROOT
ATOM      1  C   UNL     1      34.958 -19.591 -20.987  0.00  0.00    -0.013 C 
ATOM      2  C   UNL     1      35.632 -20.572 -20.260  0.00  0.00    -0.001 C 
ATOM      3  C   UNL     1      33.564 -19.549 -20.976  0.00  0.00    -0.001 C 
ATOM      4  C   UNL     1      33.519 -21.471 -19.512  0.00  0.00    +0.139 C 
ATOM      5  C   UNL     1      34.913 -21.512 -19.523  0.00  0.00    +0.037 C 
ATOM      6  C   UNL     1      32.844 -20.489 -20.239  0.00  0.00    +0.037 C 
ENDROOT
BRANCH   4   7
ATOM      7  O   UNL     1      32.817 -22.389 -18.794  0.00  0.00    -0.471 OA
ATOM      8  C   UNL     1      33.523 -23.093 -17.773  0.00  0.00    +0.252 C 
ENDBRANCH   4   7
BRANCH   1   9
ATOM      9  C   UNL     1      35.728 -18.585 -21.775  0.00  0.00    +0.111 C 
BRANCH   9  12
ATOM     10  O   UNL     1      35.195 -16.644 -20.421  0.00  0.00    -0.275 OA
ATOM     11  N   UNL     1      35.010 -16.475 -22.705  0.00  0.00    -0.329 N 
ATOM     12  C   UNL     1      35.289 -17.151 -21.535  0.00  0.00    +0.224 C 
ATOM     13  H   UNL     1      34.715 -15.537 -22.673  0.00  0.00    +0.145 HD
ATOM     14  H   UNL     1      35.106 -16.933 -23.572  0.00  0.00    +0.145 HD
ENDBRANCH   9  12
ENDBRANCH   1   9
TORSDOF 3
ENDMDL
MODEL 2
REMARK VINA RESULT:      -7.2      0.045      1.396
REMARK  Name = 241868
REMARK  3 active torsions:
REMARK  status: ('A' for Active; 'I' for Inactive)
REMARK    1  A    between atoms: C_1  and  C_9
REMARK    2  A    between atoms: C_4  and  O_7
REMARK    3  A    between atoms: C_9  and  C_12
REMARK                            x       y       z     vdW  Elec       q    Type
REMARK                         _______ _______ _______ _____ _____    ______ ____
ROOT
ATOM      1  C   UNL     1      34.943 -19.611 -20.957  0.00  0.00    -0.013 C 
ATOM      2  C   UNL     1      33.549 -19.576 -20.945  0.00  0.00    -0.001 C 
ATOM      3  C   UNL     1      35.623 -20.587 -20.228  0.00  0.00    -0.001 C 
ATOM      4  C   UNL     1      33.512 -21.491 -19.474  0.00  0.00    +0.139 C 
ATOM      5  C   UNL     1      32.833 -20.515 -20.204  0.00  0.00    +0.037 C 
ATOM      6  C   UNL     1      34.907 -21.527 -19.486  0.00  0.00    +0.037 C 
ENDROOT
BRANCH   4   7
ATOM      7  O   UNL     1      32.814 -22.408 -18.749  0.00  0.00    -0.471 OA
ATOM      8  C   UNL     1      33.522 -23.099 -17.721  0.00  0.00    +0.252 C 
ENDBRANCH   4   7
BRANCH   1   9
ATOM      9  C   UNL     1      35.708 -18.606 -21.750  0.00  0.00    +0.111 C 
BRANCH   9  12
ATOM     10  O   UNL     1      35.200 -16.652 -20.406  0.00  0.00    -0.275 OA
ATOM     11  N   UNL     1      34.946 -16.514 -22.686  0.00  0.00    -0.329 N 
ATOM     12  C   UNL     1      35.264 -17.172 -21.516  0.00  0.00    +0.224 C 
ATOM     13  H   UNL     1      34.645 -15.578 -22.657  0.00  0.00    +0.145 HD
ATOM     14  H   UNL     1      35.021 -16.982 -23.549  0.00  0.00    +0.145 HD
ENDBRANCH   9  12
ENDBRANCH   1   9
TORSDOF 3
ENDMDL
MODEL 3
REMARK VINA RESULT:      -6.7      3.300      5.837
REMARK  Name = 241868
REMARK  3 active torsions:
REMARK  status: ('A' for Active; 'I' for Inactive)
REMARK    1  A    between atoms: C_1  and  C_9
REMARK    2  A    between atoms: C_4  and  O_7
REMARK    3  A    between atoms: C_9  and  C_12
REMARK                            x       y       z     vdW  Elec       q    Type
REMARK                         _______ _______ _______ _____ _____    ______ ____
ROOT
ATOM      1  C   UNL     1      35.024 -18.658 -22.407  0.00  0.00    -0.013 C 
ATOM      2  C   UNL     1      34.795 -19.306 -23.620  0.00  0.00    -0.001 C 
ATOM      3  C   UNL     1      35.059 -17.264 -22.356  0.00  0.00    -0.001 C 
ATOM      4  C   UNL     1      34.637 -17.168 -24.733  0.00  0.00    +0.139 C 
ATOM      5  C   UNL     1      34.602 -18.562 -24.783  0.00  0.00    +0.037 C 
ATOM      6  C   UNL     1      34.865 -16.519 -23.519  0.00  0.00    +0.037 C 
ENDROOT
BRANCH   4   7
ATOM      7  O   UNL     1      34.450 -16.442 -25.869  0.00  0.00    -0.471 OA
ATOM      8  C   UNL     1      33.450 -15.424 -25.831  0.00  0.00    +0.252 C 
ENDBRANCH   4   7
BRANCH   1   9
ATOM      9  C   UNL     1      35.230 -19.454 -21.163  0.00  0.00    +0.111 C 
BRANCH   9  12
ATOM     10  O   UNL     1      32.841 -19.504 -20.739  0.00  0.00    -0.275 OA
ATOM     11  N   UNL     1      34.154 -21.157 -19.829  0.00  0.00    -0.329 N 
ATOM     12  C   UNL     1      33.946 -20.012 -20.572  0.00  0.00    +0.224 C 
ATOM     13  H   UNL     1      33.393 -21.607 -19.397  0.00  0.00    +0.145 HD
ATOM     14  H   UNL     1      35.063 -21.521 -19.732  0.00  0.00    +0.145 HD
ENDBRANCH   9  12
ENDBRANCH   1   9
TORSDOF 3
ENDMDL
MODEL 4
REMARK VINA RESULT:      -6.6      2.676      5.153
REMARK  Name = 241868
REMARK  3 active torsions:
REMARK  status: ('A' for Active; 'I' for Inactive)
REMARK    1  A    between atoms: C_1  and  C_9
REMARK    2  A    between atoms: C_4  and  O_7
REMARK    3  A    between atoms: C_9  and  C_12
REMARK                            x       y       z     vdW  Elec       q    Type
REMARK                         _______ _______ _______ _____ _____    ______ ____
ROOT
ATOM      1  C   UNL     1      34.961 -20.873 -19.806  0.00  0.00    -0.013 C 
ATOM      2  C   UNL     1      36.144 -20.270 -20.232  0.00  0.00    -0.001 C 
ATOM      3  C   UNL     1      33.736 -20.443 -20.315  0.00  0.00    -0.001 C 
ATOM      4  C   UNL     1      34.878 -18.806 -21.676  0.00  0.00    +0.139 C 
ATOM      5  C   UNL     1      36.103 -19.237 -21.167  0.00  0.00    +0.037 C 
ATOM      6  C   UNL     1      33.694 -19.409 -21.250  0.00  0.00    +0.037 C 
ENDROOT
BRANCH   4   7
ATOM      7  O   UNL     1      34.838 -17.796 -22.588  0.00  0.00    -0.471 OA
ATOM      8  C   UNL     1      35.068 -18.143 -23.953  0.00  0.00    +0.252 C 
ENDBRANCH   4   7
BRANCH   1   9
ATOM      9  C   UNL     1      35.005 -21.979 -18.806  0.00  0.00    +0.111 C 
BRANCH   9  12
ATOM     10  O   UNL     1      33.931 -23.966 -19.692  0.00  0.00    -0.275 OA
ATOM     11  N   UNL     1      32.786 -22.686 -18.166  0.00  0.00    -0.329 N 
ATOM     12  C   UNL     1      33.877 -22.986 -18.954  0.00  0.00    +0.224 C 
ATOM     13  H   UNL     1      31.994 -23.268 -18.179  0.00  0.00    +0.145 HD
ATOM     14  H   UNL     1      32.801 -21.887 -17.590  0.00  0.00    +0.145 HD
ENDBRANCH   9  12
ENDBRANCH   1   9
TORSDOF 3
ENDMDL
MODEL 5
REMARK VINA RESULT:      -6.6      1.284      2.079
REMARK  Name = 241868
REMARK  3 active torsions:
REMARK  status: ('A' for Active; 'I' for Inactive)
REMARK    1  A    between atoms: C_1  and  C_9
REMARK    2  A    between atoms: C_4  and  O_7
REMARK    3  A    between atoms: C_9  and  C_12
REMARK                            x       y       z     vdW  Elec       q    Type
REMARK                         _______ _______ _______ _____ _____    ______ ____
ROOT
ATOM      1  C   UNL     1      35.091 -18.413 -21.357  0.00  0.00    -0.013 C 
ATOM      2  C   UNL     1      33.889 -19.060 -21.070  0.00  0.00    -0.001 C 
ATOM      3  C   UNL     1      36.302 -18.993 -20.982  0.00  0.00    -0.001 C 
ATOM      4  C   UNL     1      35.110 -20.868 -20.033  0.00  0.00    +0.139 C 
ATOM      5  C   UNL     1      33.898 -20.287 -20.408  0.00  0.00    +0.037 C 
ATOM      6  C   UNL     1      36.312 -20.221 -20.320  0.00  0.00    +0.037 C 
ENDROOT
BRANCH   4   7
ATOM      7  O   UNL     1      35.118 -22.065 -19.385  0.00  0.00    -0.471 OA
ATOM      8  C   UNL     1      33.868 -22.547 -18.894  0.00  0.00    +0.252 C 
ENDBRANCH   4   7
BRANCH   1   9
ATOM      9  C   UNL     1      35.080 -17.101 -22.066  0.00  0.00    +0.111 C 
BRANCH   9  12
ATOM     10  O   UNL     1      34.892 -15.624 -20.150  0.00  0.00    -0.275 OA
ATOM     11  N   UNL     1      33.412 -15.363 -21.889  0.00  0.00    -0.329 N 
ATOM     12  C   UNL     1      34.476 -15.969 -21.253  0.00  0.00    +0.224 C 
ATOM     13  H   UNL     1      32.941 -14.616 -21.456  0.00  0.00    +0.145 HD
ATOM     14  H   UNL     1      33.125 -15.680 -22.776  0.00  0.00    +0.145 HD
ENDBRANCH   9  12
ENDBRANCH   1   9
TORSDOF 3
ENDMDL
MODEL 6
REMARK VINA RESULT:      -6.5      3.282      5.807
REMARK  Name = 241868
REMARK  3 active torsions:
REMARK  status: ('A' for Active; 'I' for Inactive)
REMARK    1  A    between atoms: C_1  and  C_9
REMARK    2  A    between atoms: C_4  and  O_7
REMARK    3  A    between atoms: C_9  and  C_12
REMARK                            x       y       z     vdW  Elec       q    Type
REMARK                         _______ _______ _______ _____ _____    ______ ____
ROOT
ATOM      1  C   UNL     1      34.770 -18.519 -22.279  0.00  0.00    -0.013 C 
ATOM      2  C   UNL     1      34.743 -17.125 -22.271  0.00  0.00    -0.001 C 
ATOM      3  C   UNL     1      34.699 -19.212 -23.488  0.00  0.00    -0.001 C 
ATOM      4  C   UNL     1      34.573 -17.114 -24.681  0.00  0.00    +0.139 C 
ATOM      5  C   UNL     1      34.644 -16.422 -23.471  0.00  0.00    +0.037 C 
ATOM      6  C   UNL     1      34.601 -18.509 -24.689  0.00  0.00    +0.037 C 
ENDROOT
BRANCH   4   7
ATOM      7  O   UNL     1      34.476 -16.428 -25.852  0.00  0.00    -0.471 OA
ATOM      8  C   UNL     1      33.456 -15.433 -25.939  0.00  0.00    +0.252 C 
ENDBRANCH   4   7
BRANCH   1   9
ATOM      9  C   UNL     1      34.876 -19.271 -20.995  0.00  0.00    +0.111 C 
BRANCH   9  12
ATOM     10  O   UNL     1      37.293 -19.084 -21.106  0.00  0.00    -0.275 OA
ATOM     11  N   UNL     1      36.371 -20.541 -19.586  0.00  0.00    -0.329 N 
ATOM     12  C   UNL     1      36.303 -19.601 -20.593  0.00  0.00    +0.224 C 
ATOM     13  H   UNL     1      37.245 -20.834 -19.244  0.00  0.00    +0.145 HD
ATOM     14  H   UNL     1      35.542 -20.919 -19.211  0.00  0.00    +0.145 HD
ENDBRANCH   9  12
ENDBRANCH   1   9
TORSDOF 3
ENDMDL
MODEL 7
REMARK VINA RESULT:      -6.5      3.720      6.567
REMARK  Name = 241868
REMARK  3 active torsions:
REMARK  status: ('A' for Active; 'I' for Inactive)
REMARK    1  A    between atoms: C_1  and  C_9
REMARK    2  A    between atoms: C_4  and  O_7
REMARK    3  A    between atoms: C_9  and  C_12
REMARK                            x       y       z     vdW  Elec       q    Type
REMARK                         _______ _______ _______ _____ _____    ______ ____
ROOT
ATOM      1  C   UNL     1      34.625 -16.583 -22.739  0.00  0.00    -0.013 C 
ATOM      2  C   UNL     1      34.976 -17.377 -23.830  0.00  0.00    -0.001 C 
ATOM      3  C   UNL     1      33.902 -15.406 -22.936  0.00  0.00    -0.001 C 
ATOM      4  C   UNL     1      33.883 -15.819 -25.317  0.00  0.00    +0.139 C 
ATOM      5  C   UNL     1      34.606 -16.996 -25.119  0.00  0.00    +0.037 C 
ATOM      6  C   UNL     1      33.531 -15.024 -24.226  0.00  0.00    +0.037 C 
ENDROOT
BRANCH   4   7
ATOM      7  O   UNL     1      33.523 -15.446 -26.575  0.00  0.00    -0.471 OA
ATOM      8  C   UNL     1      33.114 -14.091 -26.759  0.00  0.00    +0.252 C 
ENDBRANCH   4   7
BRANCH   1   9
ATOM      9  C   UNL     1      35.021 -16.991 -21.360  0.00  0.00    +0.111 C 
BRANCH   9  12
ATOM     10  O   UNL     1      33.756 -19.056 -21.197  0.00  0.00    -0.275 OA
ATOM     11  N   UNL     1      35.997 -19.096 -20.687  0.00  0.00    -0.329 N 
ATOM     12  C   UNL     1      34.831 -18.473 -21.081  0.00  0.00    +0.224 C 
ATOM     13  H   UNL     1      35.995 -20.057 -20.478  0.00  0.00    +0.145 HD
ATOM     14  H   UNL     1      36.831 -18.577 -20.615  0.00  0.00    +0.145 HD
ENDBRANCH   9  12
ENDBRANCH   1   9
TORSDOF 3
ENDMDL
MODEL 8
REMARK VINA RESULT:      -6.4      2.443      5.467
REMARK  Name = 241868
REMARK  3 active torsions:
REMARK  status: ('A' for Active; 'I' for Inactive)
REMARK    1  A    between atoms: C_1  and  C_9
REMARK    2  A    between atoms: C_4  and  O_7
REMARK    3  A    between atoms: C_9  and  C_12
REMARK                            x       y       z     vdW  Elec       q    Type
REMARK                         _______ _______ _______ _____ _____    ______ ____
ROOT
ATOM      1  C   UNL     1      34.806 -19.167 -21.470  0.00  0.00    -0.013 C 
ATOM      2  C   UNL     1      34.939 -17.835 -21.079  0.00  0.00    -0.001 C 
ATOM      3  C   UNL     1      34.749 -19.493 -22.825  0.00  0.00    -0.001 C 
ATOM      4  C   UNL     1      34.956 -17.155 -23.397  0.00  0.00    +0.139 C 
ATOM      5  C   UNL     1      35.014 -16.829 -22.042  0.00  0.00    +0.037 C 
ATOM      6  C   UNL     1      34.823 -18.488 -23.789  0.00  0.00    +0.037 C 
ENDROOT
BRANCH   4   7
ATOM      7  O   UNL     1      35.027 -16.173 -24.337  0.00  0.00    -0.471 OA
ATOM      8  C   UNL     1      33.986 -16.130 -25.311  0.00  0.00    +0.252 C 
ENDBRANCH   4   7
BRANCH   1   9
ATOM      9  C   UNL     1      34.727 -20.242 -20.440  0.00  0.00    +0.111 C 
BRANCH   9  12
ATOM     10  O   UNL     1      33.072 -21.924 -19.876  0.00  0.00    -0.275 OA
ATOM     11  N   UNL     1      32.351 -19.809 -20.411  0.00  0.00    -0.329 N 
ATOM     12  C   UNL     1      33.321 -20.769 -20.210  0.00  0.00    +0.224 C 
ATOM     13  H   UNL     1      31.401 -20.036 -20.291  0.00  0.00    +0.145 HD
ATOM     14  H   UNL     1      32.611 -18.896 -20.675  0.00  0.00    +0.145 HD
ENDBRANCH   9  12
ENDBRANCH   1   9
TORSDOF 3
ENDMDL
MODEL 9
REMARK VINA RESULT:      -6.4      2.813      5.404
REMARK  Name = 241868
REMARK  3 active torsions:
REMARK  status: ('A' for Active; 'I' for Inactive)
REMARK    1  A    between atoms: C_1  and  C_9
REMARK    2  A    between atoms: C_4  and  O_7
REMARK    3  A    between atoms: C_9  and  C_12
REMARK                            x       y       z     vdW  Elec       q    Type
REMARK                         _______ _______ _______ _____ _____    ______ ____
ROOT
ATOM      1  C   UNL     1      34.289 -21.850 -19.585  0.00  0.00    -0.013 C 
ATOM      2  C   UNL     1      33.427 -20.901 -20.135  0.00  0.00    -0.001 C 
ATOM      3  C   UNL     1      35.667 -21.630 -19.597  0.00  0.00    -0.001 C 
ATOM      4  C   UNL     1      35.319 -19.513 -20.708  0.00  0.00    +0.139 C 
ATOM      5  C   UNL     1      33.941 -19.733 -20.696  0.00  0.00    +0.037 C 
ATOM      6  C   UNL     1      36.182 -20.462 -20.158  0.00  0.00    +0.037 C 
ENDROOT
BRANCH   4   7
ATOM      7  O   UNL     1      35.821 -18.373 -21.257  0.00  0.00    -0.471 OA
ATOM      8  C   UNL     1      35.031 -17.191 -21.137  0.00  0.00    +0.252 C 
ENDBRANCH   4   7
BRANCH   1   9
ATOM      9  C   UNL     1      33.739 -23.099 -18.984  0.00  0.00    +0.111 C 
BRANCH   9  12
ATOM     10  O   UNL     1      31.935 -22.547 -17.459  0.00  0.00    -0.275 OA
ATOM     11  N   UNL     1      33.972 -23.147 -16.581  0.00  0.00    -0.329 N 
ATOM     12  C   UNL     1      33.101 -22.894 -17.621  0.00  0.00    +0.224 C 
ATOM     13  H   UNL     1      33.669 -23.047 -15.650  0.00  0.00    +0.145 HD
ATOM     14  H   UNL     1      34.897 -23.426 -16.771  0.00  0.00    +0.145 HD
ENDBRANCH   9  12
ENDBRANCH   1   9
TORSDOF 3
ENDMDL
