MODEL 1
REMARK VINA RESULT:      -8.1      0.000      0.000
REMARK  Name = 66377
REMARK  5 active torsions:
REMARK  status: ('A' for Active; 'I' for Inactive)
REMARK    1  A    between atoms: N_3  and  C1*_11
REMARK    2  A    between atoms: C_7  and  C_20
REMARK    3  A    between atoms: C3*_12  and  O3*_15
REMARK    4  A    between atoms: C4*_14  and  C5*_17
REMARK    5  A    between atoms: C5*_17  and  O5*_18
REMARK                            x       y       z     vdW  Elec       q    Type
REMARK                         _______ _______ _______ _____ _____    ______ ____
ROOT
ATOM      1  O   UNL     1      34.369 -23.070 -18.432  0.00  0.00    -0.252 OA
ATOM      2  O   UNL     1      30.035 -22.513 -17.001  0.00  0.00    -0.270 OA
ATOM      3  N   UNL     1      33.902 -23.449 -16.176  0.00  0.00    -0.219 N 
ATOM      4  N   UNL     1      32.211 -22.796 -17.704  0.00  0.00    -0.236 N 
ATOM      5  C   UNL     1      32.930 -23.464 -15.183  0.00  0.00    +0.071 C 
ATOM      6  C   UNL     1      33.561 -23.105 -17.501  0.00  0.00    +0.315 C 
ATOM      7  C   UNL     1      31.640 -23.168 -15.381  0.00  0.00    +0.047 C 
ATOM      8  C   UNL     1      31.204 -22.795 -16.753  0.00  0.00    +0.250 C 
ATOM      9  H   UNL     1      31.949 -22.552 -18.622  0.00  0.00    +0.159 HD
ENDROOT
BRANCH   3  11
ATOM     10  O4* UNL     1      35.229 -24.753 -14.757  0.00  0.00    -0.335 OA
ATOM     11  C1* UNL     1      35.248 -23.790 -15.820  0.00  0.00    +0.202 C 
ATOM     12  C3* UNL     1      36.979 -23.215 -14.317  0.00  0.00    +0.144 C 
ATOM     13  C2* UNL     1      36.050 -22.594 -15.335  0.00  0.00    +0.083 C 
ATOM     14  C4* UNL     1      36.137 -24.334 -13.720  0.00  0.00    +0.173 C 
BRANCH  12  15
ATOM     15  O3* UNL     1      38.117 -23.763 -14.977  0.00  0.00    -0.382 OA
ATOM     16  H3* UNL     1      38.038 -24.728 -15.010  0.00  0.00    +0.210 HD
ENDBRANCH  12  15
BRANCH  14  17
ATOM     17  C5* UNL     1      35.308 -23.880 -12.526  0.00  0.00    +0.169 C 
BRANCH  17  18
ATOM     18  O5* UNL     1      34.860 -25.024 -11.817  0.00  0.00    -0.379 OA
ATOM     19  H5* UNL     1      35.438 -25.776 -12.019  0.00  0.00    +0.211 HD
ENDBRANCH  17  18
ENDBRANCH  14  17
ENDBRANCH   3  11
BRANCH   7  20
ATOM     20  C   UNL     1      30.610 -23.190 -14.297  0.00  0.00    +0.032 C 
ATOM     21  C   UNL     1      30.628 -24.499 -13.529  0.00  0.00    +0.005 C 
ENDBRANCH   7  20
TORSDOF 5
ENDMDL
MODEL 2
REMARK VINA RESULT:      -7.9      1.844      2.667
REMARK  Name = 66377
REMARK  5 active torsions:
REMARK  status: ('A' for Active; 'I' for Inactive)
REMARK    1  A    between atoms: N_3  and  C1*_11
REMARK    2  A    between atoms: C_7  and  C_20
REMARK    3  A    between atoms: C3*_12  and  O3*_15
REMARK    4  A    between atoms: C4*_14  and  C5*_17
REMARK    5  A    between atoms: C5*_17  and  O5*_18
REMARK                            x       y       z     vdW  Elec       q    Type
REMARK                         _______ _______ _______ _____ _____    ______ ____
ROOT
ATOM      1  O   UNL     1      37.284 -22.311 -16.807  0.00  0.00    -0.252 OA
ATOM      2  O   UNL     1      32.812 -23.107 -17.528  0.00  0.00    -0.270 OA
ATOM      3  N   UNL     1      36.013 -23.124 -15.024  0.00  0.00    -0.219 N 
ATOM      4  N   UNL     1      35.052 -22.712 -17.152  0.00  0.00    -0.236 N 
ATOM      5  C   UNL     1      34.759 -23.534 -14.591  0.00  0.00    +0.071 C 
ATOM      6  C   UNL     1      36.201 -22.689 -16.354  0.00  0.00    +0.315 C 
ATOM      7  C   UNL     1      33.662 -23.555 -15.358  0.00  0.00    +0.047 C 
ATOM      8  C   UNL     1      33.780 -23.111 -16.772  0.00  0.00    +0.250 C 
ATOM      9  H   UNL     1      35.158 -22.413 -18.085  0.00  0.00    +0.159 HD
ENDROOT
BRANCH   3  11
ATOM     10  O4* UNL     1      37.922 -24.301 -14.357  0.00  0.00    -0.335 OA
ATOM     11  C1* UNL     1      37.102 -23.153 -14.092  0.00  0.00    +0.202 C 
ATOM     12  C3* UNL     1      37.742 -24.059 -12.005  0.00  0.00    +0.144 C 
ATOM     13  C2* UNL     1      36.639 -23.250 -12.648  0.00  0.00    +0.083 C 
ATOM     14  C4* UNL     1      38.176 -24.998 -13.122  0.00  0.00    +0.173 C 
BRANCH  12  15
ATOM     15  O3* UNL     1      38.821 -23.200 -11.645  0.00  0.00    -0.382 OA
ATOM     16  H3* UNL     1      39.663 -23.634 -11.853  0.00  0.00    +0.210 HD
ENDBRANCH  12  15
BRANCH  14  17
ATOM     17  C5* UNL     1      37.384 -26.298 -13.147  0.00  0.00    +0.169 C 
BRANCH  17  18
ATOM     18  O5* UNL     1      36.838 -26.528 -11.858  0.00  0.00    -0.379 OA
ATOM     19  H5* UNL     1      36.158 -25.862 -11.672  0.00  0.00    +0.211 HD
ENDBRANCH  17  18
ENDBRANCH  14  17
ENDBRANCH   3  11
BRANCH   7  20
ATOM     20  C   UNL     1      32.320 -24.001 -14.870  0.00  0.00    +0.032 C 
ATOM     21  C   UNL     1      31.549 -22.864 -14.225  0.00  0.00    +0.005 C 
ENDBRANCH   7  20
TORSDOF 5
ENDMDL
MODEL 3
REMARK VINA RESULT:      -7.9      1.334      1.860
REMARK  Name = 66377
REMARK  5 active torsions:
REMARK  status: ('A' for Active; 'I' for Inactive)
REMARK    1  A    between atoms: N_3  and  C1*_11
REMARK    2  A    between atoms: C_7  and  C_20
REMARK    3  A    between atoms: C3*_12  and  O3*_15
REMARK    4  A    between atoms: C4*_14  and  C5*_17
REMARK    5  A    between atoms: C5*_17  and  O5*_18
REMARK                            x       y       z     vdW  Elec       q    Type
REMARK                         _______ _______ _______ _____ _____    ______ ____
ROOT
ATOM      1  O   UNL     1      35.081 -22.804 -17.848  0.00  0.00    -0.252 OA
ATOM      2  O   UNL     1      30.568 -22.973 -16.982  0.00  0.00    -0.270 OA
ATOM      3  N   UNL     1      34.400 -23.186 -15.647  0.00  0.00    -0.219 N 
ATOM      4  N   UNL     1      32.833 -22.890 -17.401  0.00  0.00    -0.236 N 
ATOM      5  C   UNL     1      33.326 -23.340 -14.779  0.00  0.00    +0.071 C 
ATOM      6  C   UNL     1      34.178 -22.950 -17.021  0.00  0.00    +0.315 C 
ATOM      7  C   UNL     1      32.041 -23.282 -15.147  0.00  0.00    +0.047 C 
ATOM      8  C   UNL     1      31.726 -23.036 -16.579  0.00  0.00    +0.250 C 
ATOM      9  H   UNL     1      32.652 -22.726 -18.356  0.00  0.00    +0.159 HD
ENDROOT
BRANCH   3  11
ATOM     10  O4* UNL     1      36.472 -24.253 -15.852  0.00  0.00    -0.335 OA
ATOM     11  C1* UNL     1      35.728 -23.273 -15.114  0.00  0.00    +0.202 C 
ATOM     12  C3* UNL     1      37.035 -24.483 -13.560  0.00  0.00    +0.144 C 
ATOM     13  C2* UNL     1      35.750 -23.692 -13.653  0.00  0.00    +0.083 C 
ATOM     14  C4* UNL     1      37.135 -25.139 -14.930  0.00  0.00    +0.173 C 
BRANCH  12  15
ATOM     15  O3* UNL     1      38.132 -23.595 -13.365  0.00  0.00    -0.382 OA
ATOM     16  H3* UNL     1      38.241 -23.038 -14.151  0.00  0.00    +0.210 HD
ENDBRANCH  12  15
BRANCH  14  17
ATOM     17  C5* UNL     1      36.435 -26.490 -14.994  0.00  0.00    +0.169 C 
BRANCH  17  18
ATOM     18  O5* UNL     1      36.813 -27.147 -16.193  0.00  0.00    -0.379 OA
ATOM     19  H5* UNL     1      36.594 -26.585 -16.952  0.00  0.00    +0.211 HD
ENDBRANCH  17  18
ENDBRANCH  14  17
ENDBRANCH   3  11
BRANCH   7  20
ATOM     20  C   UNL     1      30.899 -23.450 -14.195  0.00  0.00    +0.032 C 
ATOM     21  C   UNL     1      30.555 -24.913 -13.981  0.00  0.00    +0.005 C 
ENDBRANCH   7  20
TORSDOF 5
ENDMDL
MODEL 4
REMARK VINA RESULT:      -7.8      1.809      3.446
REMARK  Name = 66377
REMARK  5 active torsions:
REMARK  status: ('A' for Active; 'I' for Inactive)
REMARK    1  A    between atoms: N_3  and  C1*_11
REMARK    2  A    between atoms: C_7  and  C_20
REMARK    3  A    between atoms: C3*_12  and  O3*_15
REMARK    4  A    between atoms: C4*_14  and  C5*_17
REMARK    5  A    between atoms: C5*_17  and  O5*_18
REMARK                            x       y       z     vdW  Elec       q    Type
REMARK                         _______ _______ _______ _____ _____    ______ ____
ROOT
ATOM      1  O   UNL     1      32.317 -24.354 -13.233  0.00  0.00    -0.252 OA
ATOM      2  O   UNL     1      30.740 -22.536 -17.151  0.00  0.00    -0.270 OA
ATOM      3  N   UNL     1      33.836 -24.012 -14.973  0.00  0.00    -0.219 N 
ATOM      4  N   UNL     1      31.544 -23.448 -15.193  0.00  0.00    -0.236 N 
ATOM      5  C   UNL     1      34.023 -23.559 -16.273  0.00  0.00    +0.071 C 
ATOM      6  C   UNL     1      32.556 -23.969 -14.379  0.00  0.00    +0.315 C 
ATOM      7  C   UNL     1      33.052 -23.061 -17.047  0.00  0.00    +0.047 C 
ATOM      8  C   UNL     1      31.675 -22.983 -16.492  0.00  0.00    +0.250 C 
ATOM      9  H   UNL     1      30.642 -23.408 -14.801  0.00  0.00    +0.159 HD
ENDROOT
BRANCH   3  11
ATOM     10  O4* UNL     1      35.838 -23.434 -13.908  0.00  0.00    -0.335 OA
ATOM     11  C1* UNL     1      34.969 -24.521 -14.257  0.00  0.00    +0.202 C 
ATOM     12  C3* UNL     1      37.191 -25.264 -14.572  0.00  0.00    +0.144 C 
ATOM     13  C2* UNL     1      35.786 -25.511 -15.072  0.00  0.00    +0.083 C 
ATOM     14  C4* UNL     1      37.191 -23.773 -14.267  0.00  0.00    +0.173 C 
BRANCH  12  15
ATOM     15  O3* UNL     1      37.412 -26.005 -13.375  0.00  0.00    -0.382 OA
ATOM     16  H3* UNL     1      37.687 -26.907 -13.600  0.00  0.00    +0.210 HD
ENDBRANCH  12  15
BRANCH  14  17
ATOM     17  C5* UNL     1      37.584 -22.921 -15.466  0.00  0.00    +0.169 C 
BRANCH  17  18
ATOM     18  O5* UNL     1      38.779 -23.441 -16.027  0.00  0.00    -0.379 OA
ATOM     19  H5* UNL     1      39.466 -23.480 -15.343  0.00  0.00    +0.211 HD
ENDBRANCH  17  18
ENDBRANCH  14  17
ENDBRANCH   3  11
BRANCH   7  20
ATOM     20  C   UNL     1      33.275 -22.578 -18.445  0.00  0.00    +0.032 C 
ATOM     21  C   UNL     1      34.734 -22.248 -18.702  0.00  0.00    +0.005 C 
ENDBRANCH   7  20
TORSDOF 5
ENDMDL
MODEL 5
REMARK VINA RESULT:      -7.8      8.195     10.022
REMARK  Name = 66377
REMARK  5 active torsions:
REMARK  status: ('A' for Active; 'I' for Inactive)
REMARK    1  A    between atoms: N_3  and  C1*_11
REMARK    2  A    between atoms: C_7  and  C_20
REMARK    3  A    between atoms: C3*_12  and  O3*_15
REMARK    4  A    between atoms: C4*_14  and  C5*_17
REMARK    5  A    between atoms: C5*_17  and  O5*_18
REMARK                            x       y       z     vdW  Elec       q    Type
REMARK                         _______ _______ _______ _____ _____    ______ ____
ROOT
ATOM      1  O   UNL     1      34.813 -17.943 -25.546  0.00  0.00    -0.252 OA
ATOM      2  O   UNL     1      32.792 -13.845 -25.025  0.00  0.00    -0.270 OA
ATOM      3  N   UNL     1      34.615 -17.084 -23.383  0.00  0.00    -0.219 N 
ATOM      4  N   UNL     1      33.807 -15.899 -25.271  0.00  0.00    -0.236 N 
ATOM      5  C   UNL     1      34.169 -16.032 -22.593  0.00  0.00    +0.071 C 
ATOM      6  C   UNL     1      34.443 -17.047 -24.784  0.00  0.00    +0.315 C 
ATOM      7  C   UNL     1      33.562 -14.937 -23.063  0.00  0.00    +0.047 C 
ATOM      8  C   UNL     1      33.344 -14.824 -24.530  0.00  0.00    +0.250 C 
ATOM      9  H   UNL     1      33.676 -15.850 -26.246  0.00  0.00    +0.159 HD
ENDROOT
BRANCH   3  11
ATOM     10  O4* UNL     1      34.358 -19.322 -22.751  0.00  0.00    -0.335 OA
ATOM     11  C1* UNL     1      35.250 -18.199 -22.743  0.00  0.00    +0.202 C 
ATOM     12  C3* UNL     1      35.454 -19.275 -20.649  0.00  0.00    +0.144 C 
ATOM     13  C2* UNL     1      35.614 -17.918 -21.295  0.00  0.00    +0.083 C 
ATOM     14  C4* UNL     1      34.303 -19.894 -21.430  0.00  0.00    +0.173 C 
BRANCH  12  15
ATOM     15  O3* UNL     1      36.640 -20.042 -20.841  0.00  0.00    -0.382 OA
ATOM     16  H3* UNL     1      36.725 -20.690 -20.125  0.00  0.00    +0.210 HD
ENDBRANCH  12  15
BRANCH  14  17
ATOM     17  C5* UNL     1      32.939 -19.570 -20.835  0.00  0.00    +0.169 C 
BRANCH  17  18
ATOM     18  O5* UNL     1      32.646 -20.515 -19.818  0.00  0.00    -0.379 OA
ATOM     19  H5* UNL     1      33.242 -21.274 -19.901  0.00  0.00    +0.211 HD
ENDBRANCH  17  18
ENDBRANCH  14  17
ENDBRANCH   3  11
BRANCH   7  20
ATOM     20  C   UNL     1      33.090 -13.815 -22.194  0.00  0.00    +0.032 C 
ATOM     21  C   UNL     1      32.767 -14.289 -20.788  0.00  0.00    +0.005 C 
ENDBRANCH   7  20
TORSDOF 5
ENDMDL
MODEL 6
REMARK VINA RESULT:      -7.6      1.887      3.907
REMARK  Name = 66377
REMARK  5 active torsions:
REMARK  status: ('A' for Active; 'I' for Inactive)
REMARK    1  A    between atoms: N_3  and  C1*_11
REMARK    2  A    between atoms: C_7  and  C_20
REMARK    3  A    between atoms: C3*_12  and  O3*_15
REMARK    4  A    between atoms: C4*_14  and  C5*_17
REMARK    5  A    between atoms: C5*_17  and  O5*_18
REMARK                            x       y       z     vdW  Elec       q    Type
REMARK                         _______ _______ _______ _____ _____    ______ ____
ROOT
ATOM      1  O   UNL     1      31.851 -23.598 -15.844  0.00  0.00    -0.252 OA
ATOM      2  O   UNL     1      32.734 -21.758 -19.964  0.00  0.00    -0.270 OA
ATOM      3  N   UNL     1      34.079 -23.171 -16.400  0.00  0.00    -0.219 N 
ATOM      4  N   UNL     1      32.306 -22.681 -17.896  0.00  0.00    -0.236 N 
ATOM      5  C   UNL     1      34.958 -22.686 -17.359  0.00  0.00    +0.071 C 
ATOM      6  C   UNL     1      32.689 -23.183 -16.647  0.00  0.00    +0.315 C 
ATOM      7  C   UNL     1      34.588 -22.206 -18.552  0.00  0.00    +0.047 C 
ATOM      8  C   UNL     1      33.139 -22.185 -18.887  0.00  0.00    +0.250 C 
ATOM      9  H   UNL     1      31.341 -22.679 -18.092  0.00  0.00    +0.159 HD
ENDROOT
BRANCH   3  11
ATOM     10  O4* UNL     1      35.658 -22.773 -14.719  0.00  0.00    -0.335 OA
ATOM     11  C1* UNL     1      34.616 -23.655 -15.162  0.00  0.00    +0.202 C 
ATOM     12  C3* UNL     1      36.352 -24.999 -14.285  0.00  0.00    +0.144 C 
ATOM     13  C2* UNL     1      35.220 -25.045 -15.285  0.00  0.00    +0.083 C 
ATOM     14  C4* UNL     1      36.815 -23.550 -14.355  0.00  0.00    +0.173 C 
BRANCH  12  15
ATOM     15  O3* UNL     1      35.853 -25.286 -12.981  0.00  0.00    -0.382 OA
ATOM     16  H3* UNL     1      35.153 -24.653 -12.756  0.00  0.00    +0.210 HD
ENDBRANCH  12  15
BRANCH  14  17
ATOM     17  C5* UNL     1      37.885 -23.320 -15.414  0.00  0.00    +0.169 C 
BRANCH  17  18
ATOM     18  O5* UNL     1      38.900 -24.299 -15.261  0.00  0.00    -0.379 OA
ATOM     19  H5* UNL     1      38.764 -25.008 -15.908  0.00  0.00    +0.211 HD
ENDBRANCH  17  18
ENDBRANCH  14  17
ENDBRANCH   3  11
BRANCH   7  20
ATOM     20  C   UNL     1      35.553 -21.688 -19.571  0.00  0.00    +0.032 C 
ATOM     21  C   UNL     1      36.859 -21.247 -18.938  0.00  0.00    +0.005 C 
ENDBRANCH   7  20
TORSDOF 5
ENDMDL
MODEL 7
REMARK VINA RESULT:      -7.5      9.377     11.606
REMARK  Name = 66377
REMARK  5 active torsions:
REMARK  status: ('A' for Active; 'I' for Inactive)
REMARK    1  A    between atoms: N_3  and  C1*_11
REMARK    2  A    between atoms: C_7  and  C_20
REMARK    3  A    between atoms: C3*_12  and  O3*_15
REMARK    4  A    between atoms: C4*_14  and  C5*_17
REMARK    5  A    between atoms: C5*_17  and  O5*_18
REMARK                            x       y       z     vdW  Elec       q    Type
REMARK                         _______ _______ _______ _____ _____    ______ ____
ROOT
ATOM      1  O   UNL     1      33.946 -15.786 -26.237  0.00  0.00    -0.252 OA
ATOM      2  O   UNL     1      34.920 -19.928 -24.494  0.00  0.00    -0.270 OA
ATOM      3  N   UNL     1      34.347 -15.944 -23.942  0.00  0.00    -0.219 N 
ATOM      4  N   UNL     1      34.433 -17.846 -25.354  0.00  0.00    -0.236 N 
ATOM      5  C   UNL     1      34.660 -16.780 -22.877  0.00  0.00    +0.071 C 
ATOM      6  C   UNL     1      34.221 -16.467 -25.246  0.00  0.00    +0.315 C 
ATOM      7  C   UNL     1      34.862 -18.098 -22.984  0.00  0.00    +0.047 C 
ATOM      8  C   UNL     1      34.746 -18.724 -24.328  0.00  0.00    +0.250 C 
ATOM      9  H   UNL     1      34.350 -18.235 -26.255  0.00  0.00    +0.159 HD
ENDROOT
BRANCH   3  11
ATOM     10  O4* UNL     1      34.397 -14.286 -22.291  0.00  0.00    -0.335 OA
ATOM     11  C1* UNL     1      34.158 -14.547 -23.681  0.00  0.00    +0.202 C 
ATOM     12  C3* UNL     1      32.529 -12.990 -22.965  0.00  0.00    +0.144 C 
ATOM     13  C2* UNL     1      32.748 -14.075 -23.995  0.00  0.00    +0.083 C 
ATOM     14  C4* UNL     1      33.315 -13.495 -21.763  0.00  0.00    +0.173 C 
BRANCH  12  15
ATOM     15  O3* UNL     1      33.088 -11.765 -23.431  0.00  0.00    -0.382 OA
ATOM     16  H3* UNL     1      32.374 -11.158 -23.679  0.00  0.00    +0.210 HD
ENDBRANCH  12  15
BRANCH  14  17
ATOM     17  C5* UNL     1      32.489 -14.384 -20.843  0.00  0.00    +0.169 C 
BRANCH  17  18
ATOM     18  O5* UNL     1      33.361 -15.257 -20.144  0.00  0.00    -0.379 OA
ATOM     19  H5* UNL     1      34.249 -14.869 -20.111  0.00  0.00    +0.211 HD
ENDBRANCH  17  18
ENDBRANCH  14  17
ENDBRANCH   3  11
BRANCH   7  20
ATOM     20  C   UNL     1      35.197 -18.981 -21.824  0.00  0.00    +0.032 C 
ATOM     21  C   UNL     1      33.957 -19.399 -21.057  0.00  0.00    +0.005 C 
ENDBRANCH   7  20
TORSDOF 5
ENDMDL
MODEL 8
REMARK VINA RESULT:      -7.3      7.146      9.677
REMARK  Name = 66377
REMARK  5 active torsions:
REMARK  status: ('A' for Active; 'I' for Inactive)
REMARK    1  A    between atoms: N_3  and  C1*_11
REMARK    2  A    between atoms: C_7  and  C_20
REMARK    3  A    between atoms: C3*_12  and  O3*_15
REMARK    4  A    between atoms: C4*_14  and  C5*_17
REMARK    5  A    between atoms: C5*_17  and  O5*_18
REMARK                            x       y       z     vdW  Elec       q    Type
REMARK                         _______ _______ _______ _____ _____    ______ ____
ROOT
ATOM      1  O   UNL     1      38.286 -18.566 -22.022  0.00  0.00    -0.252 OA
ATOM      2  O   UNL     1      36.142 -21.159 -18.888  0.00  0.00    -0.270 OA
ATOM      3  N   UNL     1      35.969 -18.796 -22.189  0.00  0.00    -0.219 N 
ATOM      4  N   UNL     1      37.204 -19.857 -20.465  0.00  0.00    -0.236 N 
ATOM      5  C   UNL     1      34.821 -19.363 -21.648  0.00  0.00    +0.071 C 
ATOM      6  C   UNL     1      37.228 -19.034 -21.597  0.00  0.00    +0.315 C 
ATOM      7  C   UNL     1      34.802 -20.149 -20.566  0.00  0.00    +0.047 C 
ATOM      8  C   UNL     1      36.091 -20.446 -19.886  0.00  0.00    +0.250 C 
ATOM      9  H   UNL     1      38.071 -20.037 -20.035  0.00  0.00    +0.159 HD
ENDROOT
BRANCH   3  11
ATOM     10  O4* UNL     1      35.817 -16.592 -22.960  0.00  0.00    -0.335 OA
ATOM     11  C1* UNL     1      35.840 -17.971 -23.355  0.00  0.00    +0.202 C 
ATOM     12  C3* UNL     1      34.228 -16.881 -24.696  0.00  0.00    +0.144 C 
ATOM     13  C2* UNL     1      34.563 -18.243 -24.131  0.00  0.00    +0.083 C 
ATOM     14  C4* UNL     1      34.717 -15.930 -23.613  0.00  0.00    +0.173 C 
BRANCH  12  15
ATOM     15  O3* UNL     1      34.962 -16.667 -25.898  0.00  0.00    -0.382 OA
ATOM     16  H3* UNL     1      34.872 -15.741 -26.171  0.00  0.00    +0.210 HD
ENDBRANCH  12  15
BRANCH  14  17
ATOM     17  C5* UNL     1      33.657 -15.633 -22.560  0.00  0.00    +0.169 C 
BRANCH  17  18
ATOM     18  O5* UNL     1      34.273 -15.609 -21.283  0.00  0.00    -0.379 OA
ATOM     19  H5* UNL     1      34.441 -16.518 -20.988  0.00  0.00    +0.211 HD
ENDBRANCH  17  18
ENDBRANCH  14  17
ENDBRANCH   3  11
BRANCH   7  20
ATOM     20  C   UNL     1      33.554 -20.749 -20.000  0.00  0.00    +0.032 C 
ATOM     21  C   UNL     1      32.322 -19.948 -20.379  0.00  0.00    +0.005 C 
ENDBRANCH   7  20
TORSDOF 5
ENDMDL
MODEL 9
REMARK VINA RESULT:      -7.3      1.585      1.879
REMARK  Name = 66377
REMARK  5 active torsions:
REMARK  status: ('A' for Active; 'I' for Inactive)
REMARK    1  A    between atoms: N_3  and  C1*_11
REMARK    2  A    between atoms: C_7  and  C_20
REMARK    3  A    between atoms: C3*_12  and  O3*_15
REMARK    4  A    between atoms: C4*_14  and  C5*_17
REMARK    5  A    between atoms: C5*_17  and  O5*_18
REMARK                            x       y       z     vdW  Elec       q    Type
REMARK                         _______ _______ _______ _____ _____    ______ ____
ROOT
ATOM      1  O   UNL     1      36.046 -23.121 -16.817  0.00  0.00    -0.252 OA
ATOM      2  O   UNL     1      31.462 -22.924 -16.503  0.00  0.00    -0.270 OA
ATOM      3  N   UNL     1      35.051 -23.840 -14.831  0.00  0.00    -0.219 N 
ATOM      4  N   UNL     1      33.760 -23.028 -16.647  0.00  0.00    -0.236 N 
ATOM      5  C   UNL     1      33.863 -24.032 -14.137  0.00  0.00    +0.071 C 
ATOM      6  C   UNL     1      35.033 -23.318 -16.142  0.00  0.00    +0.315 C 
ATOM      7  C   UNL     1      32.648 -23.754 -14.623  0.00  0.00    +0.047 C 
ATOM      8  C   UNL     1      32.547 -23.200 -15.999  0.00  0.00    +0.250 C 
ATOM      9  H   UNL     1      33.722 -22.662 -17.560  0.00  0.00    +0.159 HD
ENDROOT
BRANCH   3  11
ATOM     10  O4* UNL     1      36.044 -25.225 -13.228  0.00  0.00    -0.335 OA
ATOM     11  C1* UNL     1      36.284 -24.184 -14.186  0.00  0.00    +0.202 C 
ATOM     12  C3* UNL     1      37.584 -23.695 -12.274  0.00  0.00    +0.144 C 
ATOM     13  C2* UNL     1      36.904 -23.014 -13.440  0.00  0.00    +0.083 C 
ATOM     14  C4* UNL     1      36.663 -24.870 -11.976  0.00  0.00    +0.173 C 
BRANCH  12  15
ATOM     15  O3* UNL     1      38.865 -24.171 -12.676  0.00  0.00    -0.382 OA
ATOM     16  H3* UNL     1      39.504 -23.442 -12.651  0.00  0.00    +0.210 HD
ENDBRANCH  12  15
BRANCH  14  17
ATOM     17  C5* UNL     1      35.557 -24.522 -10.989  0.00  0.00    +0.169 C 
BRANCH  17  18
ATOM     18  O5* UNL     1      36.145 -24.147  -9.754  0.00  0.00    -0.379 OA
ATOM     19  H5* UNL     1      36.136 -24.904  -9.149  0.00  0.00    +0.211 HD
ENDBRANCH  17  18
ENDBRANCH  14  17
ENDBRANCH   3  11
BRANCH   7  20
ATOM     20  C   UNL     1      31.381 -23.969 -13.857  0.00  0.00    +0.032 C 
ATOM     21  C   UNL     1      30.699 -25.267 -14.248  0.00  0.00    +0.005 C 
ENDBRANCH   7  20
TORSDOF 5
ENDMDL
