MODEL 1
REMARK VINA RESULT:     -11.5      0.000      0.000
REMARK  Name = 9909438
REMARK  10 active torsions:
REMARK  status: ('A' for Active; 'I' for Inactive)
REMARK    1  A    between atoms: C_1  and  C_2
REMARK    2  A    between atoms: C_1  and  C_18
REMARK    3  A    between atoms: C_2  and  C_7
REMARK    4  A    between atoms: N_4  and  C_10
REMARK    5  A    between atoms: C_10  and  C_11
REMARK    6  A    between atoms: C_18  and  C_19
REMARK    7  A    between atoms: C_22  and  O_25
REMARK    8  A    between atoms: O_25  and  C_26
REMARK    9  A    between atoms: C_26  and  C_30
REMARK   10  A    between atoms: C_30  and  O_31
REMARK                            x       y       z     vdW  Elec       q    Type
REMARK                         _______ _______ _______ _____ _____    ______ ____
ROOT
ATOM      1  C   UNL     1      34.085 -22.481 -19.090  0.00  0.00    +0.014 C 
ENDROOT
BRANCH   1   2
ATOM      2  C   UNL     1      33.479 -21.217 -19.695  0.00  0.00    +0.078 C 
BRANCH   2   7
ATOM      3  O   UNL     1      37.627 -19.243 -20.784  0.00  0.00    -0.191 OA
ATOM      4  N   UNL     1      35.465 -18.868 -21.557  0.00  0.00    -0.151 N 
ATOM      5  N   UNL     1      34.259 -19.417 -21.248  0.00  0.00    -0.229 N 
ATOM      6  N   UNL     1      35.803 -20.444 -19.979  0.00  0.00    -0.308 NA
ATOM      7  C   UNL     1      34.532 -20.352 -20.296  0.00  0.00    +0.187 C 
ATOM      8  C   UNL     1      36.427 -19.486 -20.778  0.00  0.00    +0.286 C 
ATOM      9  H   UNL     1      33.380 -19.189 -21.630  0.00  0.00    +0.173 HD
BRANCH   4  10
ATOM     10  C   UNL     1      35.572 -17.821 -22.534  0.00  0.00    +0.152 C 
BRANCH  10  11
ATOM     11  C   UNL     1      34.739 -16.626 -22.171  0.00  0.00    +0.000 C 
ATOM     12  C   UNL     1      34.005 -15.976 -23.157  0.00  0.00    -0.003 C 
ATOM     13  C   UNL     1      34.709 -16.182 -20.855  0.00  0.00    -0.003 C 
ATOM     14  C   UNL     1      33.195 -14.414 -21.501  0.00  0.00    -0.022 C 
ATOM     15  C   UNL     1      33.230 -14.865 -22.820  0.00  0.00    -0.005 C 
ATOM     16  C   UNL     1      33.935 -15.072 -20.518  0.00  0.00    -0.005 C 
ATOM     17  C   UNL     1      32.367 -13.226 -21.142  0.00  0.00    +0.031 C 
ENDBRANCH  10  11
ENDBRANCH   4  10
ENDBRANCH   2   7
ENDBRANCH   1   2
BRANCH   1  18
ATOM     18  C   UNL     1      33.666 -22.690 -17.631  0.00  0.00    +0.027 C 
BRANCH  18  19
ATOM     19  C   UNL     1      34.851 -22.994 -16.751  0.00  0.00    -0.022 C 
ATOM     20  C   UNL     1      36.082 -22.429 -17.048  0.00  0.00    -0.001 C 
ATOM     21  C   UNL     1      34.691 -23.833 -15.658  0.00  0.00    -0.001 C 
ATOM     22  C   UNL     1      37.032 -23.551 -15.131  0.00  0.00    +0.139 C 
ATOM     23  C   UNL     1      37.179 -22.708 -16.234  0.00  0.00    +0.037 C 
ATOM     24  C   UNL     1      35.789 -24.114 -14.844  0.00  0.00    +0.037 C 
BRANCH  22  25
ATOM     25  O   UNL     1      38.102 -23.826 -14.336  0.00  0.00    -0.472 OA
BRANCH  25  26
ATOM     26  C   UNL     1      38.548 -25.180 -14.294  0.00  0.00    +0.221 C 
ATOM     27  C   UNL     1      38.481 -25.654 -12.845  0.00  0.00    +0.055 C 
ATOM     28  C   UNL     1      37.651 -26.002 -15.215  0.00  0.00    +0.055 C 
BRANCH  26  30
ATOM     29  O   UNL     1      40.916 -24.621 -14.213  0.00  0.00    -0.246 OA
ATOM     30  C   UNL     1      39.984 -25.155 -14.800  0.00  0.00    +0.350 C 
BRANCH  30  31
ATOM     31  O   UNL     1      40.147 -25.792 -15.989  0.00  0.00    -0.478 OA
ATOM     32  H   UNL     1      40.702 -25.422 -16.646  0.00  0.00    +0.295 HD
ENDBRANCH  30  31
ENDBRANCH  26  30
ENDBRANCH  25  26
ENDBRANCH  22  25
ENDBRANCH  18  19
ENDBRANCH   1  18
TORSDOF 10
ENDMDL
MODEL 2
REMARK VINA RESULT:     -11.3      6.112     13.882
REMARK  Name = 9909438
REMARK  10 active torsions:
REMARK  status: ('A' for Active; 'I' for Inactive)
REMARK    1  A    between atoms: C_1  and  C_2
REMARK    2  A    between atoms: C_1  and  C_18
REMARK    3  A    between atoms: C_2  and  C_7
REMARK    4  A    between atoms: N_4  and  C_10
REMARK    5  A    between atoms: C_10  and  C_11
REMARK    6  A    between atoms: C_18  and  C_19
REMARK    7  A    between atoms: C_22  and  O_25
REMARK    8  A    between atoms: O_25  and  C_26
REMARK    9  A    between atoms: C_26  and  C_30
REMARK   10  A    between atoms: C_30  and  O_31
REMARK                            x       y       z     vdW  Elec       q    Type
REMARK                         _______ _______ _______ _____ _____    ______ ____
ROOT
ATOM      1  C   UNL     1      33.101 -13.256 -24.012  0.00  0.00    +0.014 C 
ENDROOT
BRANCH   1   2
ATOM      2  C   UNL     1      33.400 -14.688 -24.448  0.00  0.00    +0.078 C 
BRANCH   2   7
ATOM      3  O   UNL     1      35.069 -16.071 -20.253  0.00  0.00    -0.191 OA
ATOM      4  N   UNL     1      35.230 -16.994 -22.383  0.00  0.00    -0.151 N 
ATOM      5  N   UNL     1      34.767 -16.606 -23.602  0.00  0.00    -0.229 N 
ATOM      6  N   UNL     1      34.093 -15.065 -22.112  0.00  0.00    -0.308 NA
ATOM      7  C   UNL     1      34.097 -15.443 -23.369  0.00  0.00    +0.187 C 
ATOM      8  C   UNL     1      34.828 -16.051 -21.454  0.00  0.00    +0.286 C 
ATOM      9  H   UNL     1      34.889 -17.065 -24.465  0.00  0.00    +0.173 HD
BRANCH   4  10
ATOM     10  C   UNL     1      36.006 -18.194 -22.234  0.00  0.00    +0.152 C 
BRANCH  10  11
ATOM     11  C   UNL     1      35.308 -19.211 -21.378  0.00  0.00    +0.000 C 
ATOM     12  C   UNL     1      36.059 -20.066 -20.580  0.00  0.00    -0.003 C 
ATOM     13  C   UNL     1      33.921 -19.287 -21.393  0.00  0.00    -0.003 C 
ATOM     14  C   UNL     1      34.019 -21.095 -19.793  0.00  0.00    -0.022 C 
ATOM     15  C   UNL     1      35.411 -21.012 -19.784  0.00  0.00    -0.005 C 
ATOM     16  C   UNL     1      33.274 -20.232 -20.597  0.00  0.00    -0.005 C 
ATOM     17  C   UNL     1      33.327 -22.106 -18.942  0.00  0.00    +0.031 C 
ENDBRANCH  10  11
ENDBRANCH   4  10
ENDBRANCH   2   7
ENDBRANCH   1   2
BRANCH   1  18
ATOM     18  C   UNL     1      34.154 -12.260 -24.511  0.00  0.00    +0.027 C 
BRANCH  18  19
ATOM     19  C   UNL     1      33.847 -10.855 -24.060  0.00  0.00    -0.022 C 
ATOM     20  C   UNL     1      34.682  -9.818 -24.449  0.00  0.00    -0.001 C 
ATOM     21  C   UNL     1      32.736 -10.622 -23.264  0.00  0.00    -0.001 C 
ATOM     22  C   UNL     1      33.283  -8.269 -23.232  0.00  0.00    +0.139 C 
ATOM     23  C   UNL     1      34.399  -8.517 -24.033  0.00  0.00    +0.037 C 
ATOM     24  C   UNL     1      32.453  -9.321 -22.847  0.00  0.00    +0.037 C 
BRANCH  22  25
ATOM     25  O   UNL     1      33.007  -7.000 -22.824  0.00  0.00    -0.472 OA
BRANCH  25  26
ATOM     26  C   UNL     1      31.994  -6.295 -23.540  0.00  0.00    +0.221 C 
ATOM     27  C   UNL     1      32.659  -5.565 -24.703  0.00  0.00    +0.055 C 
ATOM     28  C   UNL     1      30.954  -7.308 -24.010  0.00  0.00    +0.055 C 
BRANCH  26  30
ATOM     29  O   UNL     1      30.574  -4.450 -22.827  0.00  0.00    -0.246 OA
ATOM     30  C   UNL     1      31.396  -5.313 -22.542  0.00  0.00    +0.350 C 
BRANCH  30  31
ATOM     31  O   UNL     1      31.863  -5.479 -21.277  0.00  0.00    -0.478 OA
ATOM     32  H   UNL     1      32.560  -4.940 -20.961  0.00  0.00    +0.295 HD
ENDBRANCH  30  31
ENDBRANCH  26  30
ENDBRANCH  25  26
ENDBRANCH  22  25
ENDBRANCH  18  19
ENDBRANCH   1  18
TORSDOF 10
ENDMDL
MODEL 3
REMARK VINA RESULT:     -11.3      1.175      1.799
REMARK  Name = 9909438
REMARK  10 active torsions:
REMARK  status: ('A' for Active; 'I' for Inactive)
REMARK    1  A    between atoms: C_1  and  C_2
REMARK    2  A    between atoms: C_1  and  C_18
REMARK    3  A    between atoms: C_2  and  C_7
REMARK    4  A    between atoms: N_4  and  C_10
REMARK    5  A    between atoms: C_10  and  C_11
REMARK    6  A    between atoms: C_18  and  C_19
REMARK    7  A    between atoms: C_22  and  O_25
REMARK    8  A    between atoms: O_25  and  C_26
REMARK    9  A    between atoms: C_26  and  C_30
REMARK   10  A    between atoms: C_30  and  O_31
REMARK                            x       y       z     vdW  Elec       q    Type
REMARK                         _______ _______ _______ _____ _____    ______ ____
ROOT
ATOM      1  C   UNL     1      34.015 -22.376 -19.238  0.00  0.00    +0.014 C 
ENDROOT
BRANCH   1   2
ATOM      2  C   UNL     1      33.438 -21.088 -19.821  0.00  0.00    +0.078 C 
BRANCH   2   7
ATOM      3  O   UNL     1      37.635 -19.181 -20.844  0.00  0.00    -0.191 OA
ATOM      4  N   UNL     1      35.484 -18.734 -21.611  0.00  0.00    -0.151 N 
ATOM      5  N   UNL     1      34.264 -19.263 -21.320  0.00  0.00    -0.229 N 
ATOM      6  N   UNL     1      35.780 -20.362 -20.078  0.00  0.00    -0.308 NA
ATOM      7  C   UNL     1      34.514 -20.231 -20.395  0.00  0.00    +0.187 C 
ATOM      8  C   UNL     1      36.429 -19.396 -20.848  0.00  0.00    +0.286 C 
ATOM      9  H   UNL     1      33.392 -19.004 -21.697  0.00  0.00    +0.173 HD
BRANCH   4  10
ATOM     10  C   UNL     1      35.618 -17.662 -22.557  0.00  0.00    +0.152 C 
BRANCH  10  11
ATOM     11  C   UNL     1      34.751 -16.489 -22.204  0.00  0.00    +0.000 C 
ATOM     12  C   UNL     1      34.013 -15.857 -23.198  0.00  0.00    -0.003 C 
ATOM     13  C   UNL     1      34.695 -16.045 -20.888  0.00  0.00    -0.003 C 
ATOM     14  C   UNL     1      33.145 -14.316 -21.553  0.00  0.00    -0.022 C 
ATOM     15  C   UNL     1      33.206 -14.766 -22.870  0.00  0.00    -0.005 C 
ATOM     16  C   UNL     1      33.888 -14.956 -20.561  0.00  0.00    -0.005 C 
ATOM     17  C   UNL     1      32.283 -13.150 -21.203  0.00  0.00    +0.031 C 
ENDBRANCH  10  11
ENDBRANCH   4  10
ENDBRANCH   2   7
ENDBRANCH   1   2
BRANCH   1  18
ATOM     18  C   UNL     1      33.356 -22.763 -17.909  0.00  0.00    +0.027 C 
BRANCH  18  19
ATOM     19  C   UNL     1      34.381 -22.995 -16.829  0.00  0.00    -0.022 C 
ATOM     20  C   UNL     1      33.992 -23.597 -15.641  0.00  0.00    -0.001 C 
ATOM     21  C   UNL     1      35.694 -22.605 -17.040  0.00  0.00    -0.001 C 
ATOM     22  C   UNL     1      36.265 -23.426 -14.840  0.00  0.00    +0.139 C 
ATOM     23  C   UNL     1      34.940 -23.814 -14.640  0.00  0.00    +0.037 C 
ATOM     24  C   UNL     1      36.642 -22.821 -16.039  0.00  0.00    +0.037 C 
BRANCH  22  25
ATOM     25  O   UNL     1      37.190 -23.635 -13.864  0.00  0.00    -0.472 OA
BRANCH  25  26
ATOM     26  C   UNL     1      37.685 -24.965 -13.713  0.00  0.00    +0.221 C 
ATOM     27  C   UNL     1      36.891 -25.873 -14.647  0.00  0.00    +0.055 C 
ATOM     28  C   UNL     1      39.175 -24.955 -14.042  0.00  0.00    +0.055 C 
BRANCH  26  30
ATOM     29  O   UNL     1      37.748 -24.616 -11.304  0.00  0.00    -0.246 OA
ATOM     30  C   UNL     1      37.445 -25.328 -12.254  0.00  0.00    +0.350 C 
BRANCH  30  31
ATOM     31  O   UNL     1      36.852 -26.539 -12.091  0.00  0.00    -0.478 OA
ATOM     32  H   UNL     1      36.221 -26.663 -11.410  0.00  0.00    +0.295 HD
ENDBRANCH  30  31
ENDBRANCH  26  30
ENDBRANCH  25  26
ENDBRANCH  22  25
ENDBRANCH  18  19
ENDBRANCH   1  18
TORSDOF 10
ENDMDL
MODEL 4
REMARK VINA RESULT:     -11.3      5.423     12.955
REMARK  Name = 9909438
REMARK  10 active torsions:
REMARK  status: ('A' for Active; 'I' for Inactive)
REMARK    1  A    between atoms: C_1  and  C_2
REMARK    2  A    between atoms: C_1  and  C_18
REMARK    3  A    between atoms: C_2  and  C_7
REMARK    4  A    between atoms: N_4  and  C_10
REMARK    5  A    between atoms: C_10  and  C_11
REMARK    6  A    between atoms: C_18  and  C_19
REMARK    7  A    between atoms: C_22  and  O_25
REMARK    8  A    between atoms: O_25  and  C_26
REMARK    9  A    between atoms: C_26  and  C_30
REMARK   10  A    between atoms: C_30  and  O_31
REMARK                            x       y       z     vdW  Elec       q    Type
REMARK                         _______ _______ _______ _____ _____    ______ ____
ROOT
ATOM      1  C   UNL     1      34.033 -14.201 -23.285  0.00  0.00    +0.014 C 
ENDROOT
BRANCH   1   2
ATOM      2  C   UNL     1      33.802 -15.250 -24.369  0.00  0.00    +0.078 C 
BRANCH   2   7
ATOM      3  O   UNL     1      35.118 -19.784 -24.348  0.00  0.00    -0.191 OA
ATOM      4  N   UNL     1      35.488 -18.040 -22.852  0.00  0.00    -0.151 N 
ATOM      5  N   UNL     1      35.109 -16.734 -22.835  0.00  0.00    -0.229 N 
ATOM      6  N   UNL     1      34.281 -17.643 -24.716  0.00  0.00    -0.308 NA
ATOM      7  C   UNL     1      34.388 -16.563 -23.978  0.00  0.00    +0.187 C 
ATOM      8  C   UNL     1      34.980 -18.617 -24.003  0.00  0.00    +0.286 C 
ATOM      9  H   UNL     1      35.312 -16.058 -22.148  0.00  0.00    +0.173 HD
BRANCH   4  10
ATOM     10  C   UNL     1      36.269 -18.597 -21.783  0.00  0.00    +0.152 C 
BRANCH  10  11
ATOM     11  C   UNL     1      35.484 -19.583 -20.968  0.00  0.00    +0.000 C 
ATOM     12  C   UNL     1      34.097 -19.497 -20.935  0.00  0.00    -0.003 C 
ATOM     13  C   UNL     1      36.151 -20.572 -20.254  0.00  0.00    -0.003 C 
ATOM     14  C   UNL     1      34.029 -21.408 -19.459  0.00  0.00    -0.022 C 
ATOM     15  C   UNL     1      33.367 -20.414 -20.177  0.00  0.00    -0.005 C 
ATOM     16  C   UNL     1      35.421 -21.488 -19.497  0.00  0.00    -0.005 C 
ATOM     17  C   UNL     1      33.248 -22.387 -18.649  0.00  0.00    +0.031 C 
ENDBRANCH  10  11
ENDBRANCH   4  10
ENDBRANCH   2   7
ENDBRANCH   1   2
BRANCH   1  18
ATOM     18  C   UNL     1      32.744 -13.837 -22.539  0.00  0.00    +0.027 C 
BRANCH  18  19
ATOM     19  C   UNL     1      32.467 -12.357 -22.598  0.00  0.00    -0.022 C 
ATOM     20  C   UNL     1      31.516 -11.808 -21.750  0.00  0.00    -0.001 C 
ATOM     21  C   UNL     1      33.167 -11.568 -23.497  0.00  0.00    -0.001 C 
ATOM     22  C   UNL     1      31.958  -9.633 -22.703  0.00  0.00    +0.139 C 
ATOM     23  C   UNL     1      31.260 -10.438 -21.802  0.00  0.00    +0.037 C 
ATOM     24  C   UNL     1      32.911 -10.197 -23.551  0.00  0.00    +0.037 C 
BRANCH  22  25
ATOM     25  O   UNL     1      31.707  -8.296 -22.757  0.00  0.00    -0.472 OA
BRANCH  25  26
ATOM     26  C   UNL     1      32.644  -7.434 -22.113  0.00  0.00    +0.221 C 
ATOM     27  C   UNL     1      32.783  -7.886 -20.663  0.00  0.00    +0.055 C 
ATOM     28  C   UNL     1      33.963  -7.517 -22.874  0.00  0.00    +0.055 C 
BRANCH  26  30
ATOM     29  O   UNL     1      31.947  -5.389 -23.235  0.00  0.00    -0.246 OA
ATOM     30  C   UNL     1      32.043  -6.038 -22.201  0.00  0.00    +0.350 C 
BRANCH  30  31
ATOM     31  O   UNL     1      31.611  -5.561 -21.004  0.00  0.00    -0.478 OA
ATOM     32  H   UNL     1      31.855  -4.701 -20.727  0.00  0.00    +0.295 HD
ENDBRANCH  30  31
ENDBRANCH  26  30
ENDBRANCH  25  26
ENDBRANCH  22  25
ENDBRANCH  18  19
ENDBRANCH   1  18
TORSDOF 10
ENDMDL
MODEL 5
REMARK VINA RESULT:     -11.0      5.320     12.978
REMARK  Name = 9909438
REMARK  10 active torsions:
REMARK  status: ('A' for Active; 'I' for Inactive)
REMARK    1  A    between atoms: C_1  and  C_2
REMARK    2  A    between atoms: C_1  and  C_18
REMARK    3  A    between atoms: C_2  and  C_7
REMARK    4  A    between atoms: N_4  and  C_10
REMARK    5  A    between atoms: C_10  and  C_11
REMARK    6  A    between atoms: C_18  and  C_19
REMARK    7  A    between atoms: C_22  and  O_25
REMARK    8  A    between atoms: O_25  and  C_26
REMARK    9  A    between atoms: C_26  and  C_30
REMARK   10  A    between atoms: C_30  and  O_31
REMARK                            x       y       z     vdW  Elec       q    Type
REMARK                         _______ _______ _______ _____ _____    ______ ____
ROOT
ATOM      1  C   UNL     1      34.122 -14.225 -21.975  0.00  0.00    +0.014 C 
ENDROOT
BRANCH   1   2
ATOM      2  C   UNL     1      34.143 -15.302 -20.894  0.00  0.00    +0.078 C 
BRANCH   2   7
ATOM      3  O   UNL     1      35.521 -18.822 -23.724  0.00  0.00    -0.191 OA
ATOM      4  N   UNL     1      35.816 -18.437 -21.448  0.00  0.00    -0.151 N 
ATOM      5  N   UNL     1      35.418 -17.437 -20.615  0.00  0.00    -0.229 N 
ATOM      6  N   UNL     1      34.666 -16.930 -22.671  0.00  0.00    -0.308 NA
ATOM      7  C   UNL     1      34.733 -16.569 -21.410  0.00  0.00    +0.187 C 
ATOM      8  C   UNL     1      35.355 -18.142 -22.719  0.00  0.00    +0.286 C 
ATOM      9  H   UNL     1      35.588 -17.358 -19.648  0.00  0.00    +0.173 HD
BRANCH   4  10
ATOM     10  C   UNL     1      36.568 -19.556 -20.954  0.00  0.00    +0.152 C 
BRANCH  10  11
ATOM     11  C   UNL     1      35.719 -20.489 -20.139  0.00  0.00    +0.000 C 
ATOM     12  C   UNL     1      34.352 -20.560 -20.380  0.00  0.00    -0.003 C 
ATOM     13  C   UNL     1      36.308 -21.270 -19.152  0.00  0.00    -0.003 C 
ATOM     14  C   UNL     1      34.146 -22.214 -18.632  0.00  0.00    -0.022 C 
ATOM     15  C   UNL     1      33.563 -21.427 -19.623  0.00  0.00    -0.005 C 
ATOM     16  C   UNL     1      35.519 -22.137 -18.396  0.00  0.00    -0.005 C 
ATOM     17  C   UNL     1      33.302 -23.140 -17.823  0.00  0.00    +0.031 C 
ENDBRANCH  10  11
ENDBRANCH   4  10
ENDBRANCH   2   7
ENDBRANCH   1   2
BRANCH   1  18
ATOM     18  C   UNL     1      32.704 -13.921 -22.471  0.00  0.00    +0.027 C 
BRANCH  18  19
ATOM     19  C   UNL     1      32.478 -12.440 -22.635  0.00  0.00    -0.022 C 
ATOM     20  C   UNL     1      31.502 -11.812 -21.876  0.00  0.00    -0.001 C 
ATOM     21  C   UNL     1      33.250 -11.731 -23.542  0.00  0.00    -0.001 C 
ATOM     22  C   UNL     1      32.064  -9.715 -22.936  0.00  0.00    +0.139 C 
ATOM     23  C   UNL     1      31.293 -10.441 -22.027  0.00  0.00    +0.037 C 
ATOM     24  C   UNL     1      33.041 -10.359 -23.694  0.00  0.00    +0.037 C 
BRANCH  22  25
ATOM     25  O   UNL     1      31.860  -8.377 -23.085  0.00  0.00    -0.472 OA
BRANCH  25  26
ATOM     26  C   UNL     1      32.687  -7.505 -22.317  0.00  0.00    +0.221 C 
ATOM     27  C   UNL     1      32.768  -8.058 -20.898  0.00  0.00    +0.055 C 
ATOM     28  C   UNL     1      34.055  -7.436 -22.990  0.00  0.00    +0.055 C 
BRANCH  26  30
ATOM     29  O   UNL     1      31.409  -5.691 -23.318  0.00  0.00    -0.246 OA
ATOM     30  C   UNL     1      31.991  -6.151 -22.343  0.00  0.00    +0.350 C 
BRANCH  30  31
ATOM     31  O   UNL     1      32.071  -5.481 -21.164  0.00  0.00    -0.478 OA
ATOM     32  H   UNL     1      31.293  -5.161 -20.754  0.00  0.00    +0.295 HD
ENDBRANCH  30  31
ENDBRANCH  26  30
ENDBRANCH  25  26
ENDBRANCH  22  25
ENDBRANCH  18  19
ENDBRANCH   1  18
TORSDOF 10
ENDMDL
MODEL 6
REMARK VINA RESULT:     -11.0      3.265      9.733
REMARK  Name = 9909438
REMARK  10 active torsions:
REMARK  status: ('A' for Active; 'I' for Inactive)
REMARK    1  A    between atoms: C_1  and  C_2
REMARK    2  A    between atoms: C_1  and  C_18
REMARK    3  A    between atoms: C_2  and  C_7
REMARK    4  A    between atoms: N_4  and  C_10
REMARK    5  A    between atoms: C_10  and  C_11
REMARK    6  A    between atoms: C_18  and  C_19
REMARK    7  A    between atoms: C_22  and  O_25
REMARK    8  A    between atoms: O_25  and  C_26
REMARK    9  A    between atoms: C_26  and  C_30
REMARK   10  A    between atoms: C_30  and  O_31
REMARK                            x       y       z     vdW  Elec       q    Type
REMARK                         _______ _______ _______ _____ _____    ______ ____
ROOT
ATOM      1  C   UNL     1      36.727 -21.874 -18.180  0.00  0.00    +0.014 C 
ENDROOT
BRANCH   1   2
ATOM      2  C   UNL     1      36.724 -21.575 -16.683  0.00  0.00    +0.078 C 
BRANCH   2   7
ATOM      3  O   UNL     1      35.854 -25.832 -14.835  0.00  0.00    -0.191 OA
ATOM      4  N   UNL     1      34.826 -23.763 -14.552  0.00  0.00    -0.151 N 
ATOM      5  N   UNL     1      35.055 -22.531 -15.083  0.00  0.00    -0.229 N 
ATOM      6  N   UNL     1      36.588 -23.926 -15.952  0.00  0.00    -0.308 NA
ATOM      7  C   UNL     1      36.121 -22.700 -15.913  0.00  0.00    +0.187 C 
ATOM      8  C   UNL     1      35.760 -24.636 -15.082  0.00  0.00    +0.286 C 
ATOM      9  H   UNL     1      34.559 -21.699 -14.905  0.00  0.00    +0.173 HD
BRANCH   4  10
ATOM     10  C   UNL     1      33.754 -23.980 -13.622  0.00  0.00    +0.152 C 
BRANCH  10  11
ATOM     11  C   UNL     1      32.424 -24.078 -14.311  0.00  0.00    +0.000 C 
ATOM     12  C   UNL     1      31.543 -25.095 -13.962  0.00  0.00    -0.003 C 
ATOM     13  C   UNL     1      32.087 -23.153 -15.292  0.00  0.00    -0.003 C 
ATOM     14  C   UNL     1      29.961 -24.262 -15.587  0.00  0.00    -0.022 C 
ATOM     15  C   UNL     1      30.306 -25.186 -14.603  0.00  0.00    -0.005 C 
ATOM     16  C   UNL     1      30.851 -23.244 -15.931  0.00  0.00    -0.005 C 
ATOM     17  C   UNL     1      28.639 -24.360 -16.271  0.00  0.00    +0.031 C 
ENDBRANCH  10  11
ENDBRANCH   4  10
ENDBRANCH   2   7
ENDBRANCH   1   2
BRANCH   1  18
ATOM     18  C   UNL     1      35.312 -21.986 -18.758  0.00  0.00    +0.027 C 
BRANCH  18  19
ATOM     19  C   UNL     1      35.019 -20.873 -19.731  0.00  0.00    -0.022 C 
ATOM     20  C   UNL     1      36.072 -20.182 -20.311  0.00  0.00    -0.001 C 
ATOM     21  C   UNL     1      33.702 -20.560 -20.031  0.00  0.00    -0.001 C 
ATOM     22  C   UNL     1      34.482 -18.827 -21.523  0.00  0.00    +0.139 C 
ATOM     23  C   UNL     1      35.802 -19.152 -21.212  0.00  0.00    +0.037 C 
ATOM     24  C   UNL     1      33.432 -19.529 -20.932  0.00  0.00    +0.037 C 
BRANCH  22  25
ATOM     25  O   UNL     1      34.217 -17.821 -22.402  0.00  0.00    -0.472 OA
BRANCH  25  26
ATOM     26  C   UNL     1      34.211 -16.492 -21.884  0.00  0.00    +0.221 C 
ATOM     27  C   UNL     1      32.759 -16.073 -21.675  0.00  0.00    +0.055 C 
ATOM     28  C   UNL     1      35.008 -16.488 -20.583  0.00  0.00    +0.055 C 
BRANCH  26  30
ATOM     29  O   UNL     1      34.689 -14.435 -23.096  0.00  0.00    -0.246 OA
ATOM     30  C   UNL     1      34.885 -15.635 -22.947  0.00  0.00    +0.350 C 
BRANCH  30  31
ATOM     31  O   UNL     1      35.745 -16.332 -23.734  0.00  0.00    -0.478 OA
ATOM     32  H   UNL     1      35.539 -17.208 -23.991  0.00  0.00    +0.295 HD
ENDBRANCH  30  31
ENDBRANCH  26  30
ENDBRANCH  25  26
ENDBRANCH  22  25
ENDBRANCH  18  19
ENDBRANCH   1  18
TORSDOF 10
ENDMDL
MODEL 7
REMARK VINA RESULT:     -10.9      5.932     13.677
REMARK  Name = 9909438
REMARK  10 active torsions:
REMARK  status: ('A' for Active; 'I' for Inactive)
REMARK    1  A    between atoms: C_1  and  C_2
REMARK    2  A    between atoms: C_1  and  C_18
REMARK    3  A    between atoms: C_2  and  C_7
REMARK    4  A    between atoms: N_4  and  C_10
REMARK    5  A    between atoms: C_10  and  C_11
REMARK    6  A    between atoms: C_18  and  C_19
REMARK    7  A    between atoms: C_22  and  O_25
REMARK    8  A    between atoms: O_25  and  C_26
REMARK    9  A    between atoms: C_26  and  C_30
REMARK   10  A    between atoms: C_30  and  O_31
REMARK                            x       y       z     vdW  Elec       q    Type
REMARK                         _______ _______ _______ _____ _____    ______ ____
ROOT
ATOM      1  C   UNL     1      32.658 -13.454 -22.024  0.00  0.00    +0.014 C 
ENDROOT
BRANCH   1   2
ATOM      2  C   UNL     1      33.200 -14.486 -21.038  0.00  0.00    +0.078 C 
BRANCH   2   7
ATOM      3  O   UNL     1      34.908 -17.342 -24.388  0.00  0.00    -0.191 OA
ATOM      4  N   UNL     1      35.217 -17.274 -22.083  0.00  0.00    -0.151 N 
ATOM      5  N   UNL     1      34.727 -16.468 -21.102  0.00  0.00    -0.229 N 
ATOM      6  N   UNL     1      33.864 -15.749 -23.049  0.00  0.00    -0.308 NA
ATOM      7  C   UNL     1      33.922 -15.579 -21.749  0.00  0.00    +0.187 C 
ATOM      8  C   UNL     1      34.690 -16.848 -23.289  0.00  0.00    +0.286 C 
ATOM      9  H   UNL     1      34.912 -16.516 -20.136  0.00  0.00    +0.173 HD
BRANCH   4  10
ATOM     10  C   UNL     1      36.110 -18.356 -21.773  0.00  0.00    +0.152 C 
BRANCH  10  11
ATOM     11  C   UNL     1      35.432 -19.435 -20.980  0.00  0.00    +0.000 C 
ATOM     12  C   UNL     1      36.199 -20.328 -20.241  0.00  0.00    -0.003 C 
ATOM     13  C   UNL     1      34.046 -19.530 -20.993  0.00  0.00    -0.003 C 
ATOM     14  C   UNL     1      34.179 -21.433 -19.511  0.00  0.00    -0.022 C 
ATOM     15  C   UNL     1      35.569 -21.331 -19.503  0.00  0.00    -0.005 C 
ATOM     16  C   UNL     1      33.417 -20.532 -20.255  0.00  0.00    -0.005 C 
ATOM     17  C   UNL     1      33.506 -22.506 -18.722  0.00  0.00    +0.031 C 
ENDBRANCH  10  11
ENDBRANCH   4  10
ENDBRANCH   2   7
ENDBRANCH   1   2
BRANCH   1  18
ATOM     18  C   UNL     1      31.667 -12.485 -21.369  0.00  0.00    +0.027 C 
BRANCH  18  19
ATOM     19  C   UNL     1      31.987 -11.051 -21.708  0.00  0.00    -0.022 C 
ATOM     20  C   UNL     1      32.555 -10.753 -22.938  0.00  0.00    -0.001 C 
ATOM     21  C   UNL     1      31.706 -10.055 -20.787  0.00  0.00    -0.001 C 
ATOM     22  C   UNL     1      32.573  -8.414 -22.334  0.00  0.00    +0.139 C 
ATOM     23  C   UNL     1      32.850  -9.427 -23.253  0.00  0.00    +0.037 C 
ATOM     24  C   UNL     1      32.002  -8.728 -21.101  0.00  0.00    +0.037 C 
BRANCH  22  25
ATOM     25  O   UNL     1      32.862  -7.120 -22.640  0.00  0.00    -0.472 OA
BRANCH  25  26
ATOM     26  C   UNL     1      31.945  -6.434 -23.491  0.00  0.00    +0.221 C 
ATOM     27  C   UNL     1      32.716  -5.929 -24.707  0.00  0.00    +0.055 C 
ATOM     28  C   UNL     1      30.835  -7.408 -23.874  0.00  0.00    +0.055 C 
BRANCH  26  30
ATOM     29  O   UNL     1      30.522  -4.512 -23.034  0.00  0.00    -0.246 OA
ATOM     30  C   UNL     1      31.403  -5.278 -22.662  0.00  0.00    +0.350 C 
BRANCH  30  31
ATOM     31  O   UNL     1      31.993  -5.166 -21.444  0.00  0.00    -0.478 OA
ATOM     32  H   UNL     1      32.882  -4.878 -21.379  0.00  0.00    +0.295 HD
ENDBRANCH  30  31
ENDBRANCH  26  30
ENDBRANCH  25  26
ENDBRANCH  22  25
ENDBRANCH  18  19
ENDBRANCH   1  18
TORSDOF 10
ENDMDL
MODEL 8
REMARK VINA RESULT:     -10.7      6.042     10.387
REMARK  Name = 9909438
REMARK  10 active torsions:
REMARK  status: ('A' for Active; 'I' for Inactive)
REMARK    1  A    between atoms: C_1  and  C_2
REMARK    2  A    between atoms: C_1  and  C_18
REMARK    3  A    between atoms: C_2  and  C_7
REMARK    4  A    between atoms: N_4  and  C_10
REMARK    5  A    between atoms: C_10  and  C_11
REMARK    6  A    between atoms: C_18  and  C_19
REMARK    7  A    between atoms: C_22  and  O_25
REMARK    8  A    between atoms: O_25  and  C_26
REMARK    9  A    between atoms: C_26  and  C_30
REMARK   10  A    between atoms: C_30  and  O_31
REMARK                            x       y       z     vdW  Elec       q    Type
REMARK                         _______ _______ _______ _____ _____    ______ ____
ROOT
ATOM      1  C   UNL     1      32.746 -12.176 -22.671  0.00  0.00    +0.014 C 
ENDROOT
BRANCH   1   2
ATOM      2  C   UNL     1      31.556 -11.662 -21.864  0.00  0.00    +0.078 C 
BRANCH   2   7
ATOM      3  O   UNL     1      32.633  -7.582 -19.747  0.00  0.00    -0.191 OA
ATOM      4  N   UNL     1      31.631  -8.068 -21.790  0.00  0.00    -0.151 N 
ATOM      5  N   UNL     1      31.303  -9.234 -22.410  0.00  0.00    -0.229 N 
ATOM      6  N   UNL     1      32.260  -9.769 -20.449  0.00  0.00    -0.308 NA
ATOM      7  C   UNL     1      31.705 -10.213 -21.553  0.00  0.00    +0.187 C 
ATOM      8  C   UNL     1      32.217  -8.381 -20.576  0.00  0.00    +0.286 C 
ATOM      9  H   UNL     1      30.870  -9.346 -23.288  0.00  0.00    +0.173 HD
BRANCH   4  10
ATOM     10  C   UNL     1      31.345  -6.800 -22.400  0.00  0.00    +0.152 C 
BRANCH  10  11
ATOM     11  C   UNL     1      32.300  -6.483 -23.513  0.00  0.00    +0.000 C 
ATOM     12  C   UNL     1      33.558  -7.074 -23.527  0.00  0.00    -0.003 C 
ATOM     13  C   UNL     1      31.918  -5.602 -24.518  0.00  0.00    -0.003 C 
ATOM     14  C   UNL     1      34.070  -5.898 -25.575  0.00  0.00    -0.022 C 
ATOM     15  C   UNL     1      34.446  -6.780 -24.563  0.00  0.00    -0.005 C 
ATOM     16  C   UNL     1      32.806  -5.309 -25.553  0.00  0.00    -0.005 C 
ATOM     17  C   UNL     1      35.020  -5.584 -26.681  0.00  0.00    +0.031 C 
ENDBRANCH  10  11
ENDBRANCH   4  10
ENDBRANCH   2   7
ENDBRANCH   1   2
BRANCH   1  18
ATOM     18  C   UNL     1      32.449 -13.511 -23.364  0.00  0.00    +0.027 C 
BRANCH  18  19
ATOM     19  C   UNL     1      33.152 -14.658 -22.684  0.00  0.00    -0.022 C 
ATOM     20  C   UNL     1      32.634 -15.170 -21.504  0.00  0.00    -0.001 C 
ATOM     21  C   UNL     1      34.304 -15.182 -23.250  0.00  0.00    -0.001 C 
ATOM     22  C   UNL     1      34.443 -16.769 -21.433  0.00  0.00    +0.139 C 
ATOM     23  C   UNL     1      33.282 -16.232 -20.874  0.00  0.00    +0.037 C 
ATOM     24  C   UNL     1      34.954 -16.244 -22.620  0.00  0.00    +0.037 C 
BRANCH  22  25
ATOM     25  O   UNL     1      35.078 -17.805 -20.819  0.00  0.00    -0.472 OA
BRANCH  25  26
ATOM     26  C   UNL     1      34.733 -19.122 -21.244  0.00  0.00    +0.221 C 
ATOM     27  C   UNL     1      33.299 -19.401 -20.803  0.00  0.00    +0.055 C 
ATOM     28  C   UNL     1      34.895 -19.187 -22.760  0.00  0.00    +0.055 C 
BRANCH  26  30
ATOM     29  O   UNL     1      35.488 -21.222 -20.270  0.00  0.00    -0.246 OA
ATOM     30  C   UNL     1      35.717 -20.050 -20.544  0.00  0.00    +0.350 C 
BRANCH  30  31
ATOM     31  O   UNL     1      36.899 -19.452 -20.243  0.00  0.00    -0.478 OA
ATOM     32  H   UNL     1      37.416 -19.068 -20.922  0.00  0.00    +0.295 HD
ENDBRANCH  30  31
ENDBRANCH  26  30
ENDBRANCH  25  26
ENDBRANCH  22  25
ENDBRANCH  18  19
ENDBRANCH   1  18
TORSDOF 10
ENDMDL
MODEL 9
REMARK VINA RESULT:     -10.6      1.571      2.603
REMARK  Name = 9909438
REMARK  10 active torsions:
REMARK  status: ('A' for Active; 'I' for Inactive)
REMARK    1  A    between atoms: C_1  and  C_2
REMARK    2  A    between atoms: C_1  and  C_18
REMARK    3  A    between atoms: C_2  and  C_7
REMARK    4  A    between atoms: N_4  and  C_10
REMARK    5  A    between atoms: C_10  and  C_11
REMARK    6  A    between atoms: C_18  and  C_19
REMARK    7  A    between atoms: C_22  and  O_25
REMARK    8  A    between atoms: O_25  and  C_26
REMARK    9  A    between atoms: C_26  and  C_30
REMARK   10  A    between atoms: C_30  and  O_31
REMARK                            x       y       z     vdW  Elec       q    Type
REMARK                         _______ _______ _______ _____ _____    ______ ____
ROOT
ATOM      1  C   UNL     1      34.199 -21.832 -19.578  0.00  0.00    +0.014 C 
ENDROOT
BRANCH   1   2
ATOM      2  C   UNL     1      33.396 -20.718 -20.243  0.00  0.00    +0.078 C 
BRANCH   2   7
ATOM      3  O   UNL     1      37.055 -18.385 -22.103  0.00  0.00    -0.191 OA
ATOM      4  N   UNL     1      34.980 -17.676 -21.326  0.00  0.00    -0.151 N 
ATOM      5  N   UNL     1      33.919 -18.330 -20.778  0.00  0.00    -0.229 N 
ATOM      6  N   UNL     1      35.489 -19.872 -21.233  0.00  0.00    -0.308 NA
ATOM      7  C   UNL     1      34.291 -19.640 -20.750  0.00  0.00    +0.187 C 
ATOM      8  C   UNL     1      35.959 -18.612 -21.607  0.00  0.00    +0.286 C 
ATOM      9  H   UNL     1      33.069 -17.941 -20.470  0.00  0.00    +0.173 HD
BRANCH   4  10
ATOM     10  C   UNL     1      34.956 -16.252 -21.509  0.00  0.00    +0.152 C 
BRANCH  10  11
ATOM     11  C   UNL     1      34.414 -15.867 -22.855  0.00  0.00    +0.000 C 
ATOM     12  C   UNL     1      34.619 -16.706 -23.943  0.00  0.00    -0.003 C 
ATOM     13  C   UNL     1      33.713 -14.676 -22.999  0.00  0.00    -0.003 C 
ATOM     14  C   UNL     1      33.410 -15.156 -25.347  0.00  0.00    -0.022 C 
ATOM     15  C   UNL     1      34.115 -16.349 -25.195  0.00  0.00    -0.005 C 
ATOM     16  C   UNL     1      33.209 -14.319 -24.249  0.00  0.00    -0.005 C 
ATOM     17  C   UNL     1      32.872 -14.774 -26.685  0.00  0.00    +0.031 C 
ENDBRANCH  10  11
ENDBRANCH   4  10
ENDBRANCH   2   7
ENDBRANCH   1   2
BRANCH   1  18
ATOM     18  C   UNL     1      33.426 -22.514 -18.443  0.00  0.00    +0.027 C 
BRANCH  18  19
ATOM     19  C   UNL     1      34.311 -22.790 -17.256  0.00  0.00    -0.022 C 
ATOM     20  C   UNL     1      33.783 -23.442 -16.151  0.00  0.00    -0.001 C 
ATOM     21  C   UNL     1      35.638 -22.390 -17.287  0.00  0.00    -0.001 C 
ATOM     22  C   UNL     1      35.940 -23.302 -15.070  0.00  0.00    +0.139 C 
ATOM     23  C   UNL     1      34.602 -23.699 -15.051  0.00  0.00    +0.037 C 
ATOM     24  C   UNL     1      36.457 -22.647 -16.187  0.00  0.00    +0.037 C 
BRANCH  22  25
ATOM     25  O   UNL     1      36.739 -23.552 -13.997  0.00  0.00    -0.472 OA
BRANCH  25  26
ATOM     26  C   UNL     1      37.339 -24.844 -13.922  0.00  0.00    +0.221 C 
ATOM     27  C   UNL     1      36.460 -25.820 -14.697  0.00  0.00    +0.055 C 
ATOM     28  C   UNL     1      38.747 -24.746 -14.502  0.00  0.00    +0.055 C 
BRANCH  26  30
ATOM     29  O   UNL     1      36.765 -26.123 -11.932  0.00  0.00    -0.246 OA
ATOM     30  C   UNL     1      37.377 -25.192 -12.440  0.00  0.00    +0.350 C 
BRANCH  30  31
ATOM     31  O   UNL     1      38.166 -24.361 -11.711  0.00  0.00    -0.478 OA
ATOM     32  H   UNL     1      39.083 -24.536 -11.631  0.00  0.00    +0.295 HD
ENDBRANCH  30  31
ENDBRANCH  26  30
ENDBRANCH  25  26
ENDBRANCH  22  25
ENDBRANCH  18  19
ENDBRANCH   1  18
TORSDOF 10
ENDMDL
