MODEL 1
REMARK VINA RESULT:     -10.5      0.000      0.000
REMARK  Name = 10184653
REMARK  7 active torsions:
REMARK  status: ('A' for Active; 'I' for Inactive)
REMARK    1  A    between atoms: N_2  and  C_15
REMARK    2  A    between atoms: C_4  and  O_32
REMARK    3  A    between atoms: C_5  and  N_22
REMARK    4  A    between atoms: C_23  and  C_25
REMARK    5  A    between atoms: C_26  and  C_27
REMARK    6  A    between atoms: C_27  and  N_28
REMARK    7  A    between atoms: O_32  and  C_34
REMARK                            x       y       z     vdW  Elec       q    Type
REMARK                         _______ _______ _______ _____ _____    ______ ____
ROOT
ATOM      1  N   UNL     1      30.909 -24.662 -13.341  0.00  0.00    -0.248 NA
ATOM      2  N   UNL     1      34.857 -24.248 -14.509  0.00  0.00    -0.301 N 
ATOM      3  N   UNL     1      33.262 -25.014 -12.959  0.00  0.00    -0.233 NA
ATOM      4  C   UNL     1      30.420 -22.880 -16.502  0.00  0.00    +0.153 C 
ATOM      5  C   UNL     1      31.732 -22.719 -16.935  0.00  0.00    +0.081 C 
ATOM      6  C   UNL     1      30.156 -23.533 -15.296  0.00  0.00    +0.053 C 
ATOM      7  C   UNL     1      32.503 -23.867 -14.947  0.00  0.00    +0.117 C 
ATOM      8  C   UNL     1      31.182 -24.036 -14.499  0.00  0.00    +0.070 C 
ATOM      9  C   UNL     1      32.777 -23.210 -16.159  0.00  0.00    +0.005 C 
ATOM     10  C   UNL     1      33.500 -24.383 -14.123  0.00  0.00    +0.115 C 
ATOM     11  C   UNL     1      31.964 -25.118 -12.634  0.00  0.00    +0.251 C 
ATOM     12  H   UNL     1      34.993 -24.231 -15.484  0.00  0.00    +0.153 HD
ENDROOT
BRANCH   2  15
ATOM     13 CL   UNL     1      39.731 -25.689 -13.866  0.00  0.00    -0.080 Cl
ATOM     14  F   UNL     1      39.536 -23.802 -11.587  0.00  0.00    -0.203 F 
ATOM     15  C   UNL     1      36.046 -24.137 -13.770  0.00  0.00    +0.050 C 
ATOM     16  C   UNL     1      37.169 -24.880 -14.139  0.00  0.00    +0.028 C 
ATOM     17  C   UNL     1      36.105 -23.285 -12.668  0.00  0.00    +0.017 C 
ATOM     18  C   UNL     1      38.350 -24.770 -13.406  0.00  0.00    +0.086 C 
ATOM     19  C   UNL     1      37.287 -23.176 -11.933  0.00  0.00    +0.032 C 
ATOM     20  C   UNL     1      38.409 -23.919 -12.302  0.00  0.00    +0.151 C 
ENDBRANCH   2  15
BRANCH   5  22
ATOM     21  O   UNL     1      34.252 -22.655 -18.567  0.00  0.00    -0.270 OA
ATOM     22  N   UNL     1      32.014 -22.067 -18.139  0.00  0.00    -0.278 N 
ATOM     23  C   UNL     1      33.214 -22.072 -18.861  0.00  0.00    +0.249 C 
ATOM     24  H   UNL     1      31.278 -21.540 -18.527  0.00  0.00    +0.155 HD
BRANCH  23  25
ATOM     25  C   UNL     1      33.112 -21.249 -20.103  0.00  0.00    +0.051 C 
ATOM     26  C   UNL     1      33.966 -20.241 -20.323  0.00  0.00    -0.044 C 
BRANCH  26  27
ATOM     27  C   UNL     1      33.925 -19.381 -21.552  0.00  0.00    -0.050 C 
BRANCH  27  28
ATOM     28  N   UNL     1      35.211 -19.366 -22.240  0.00  0.00    +0.387 N 
ATOM     29  C   UNL     1      35.058 -18.863 -23.606  0.00  0.00    -0.100 C 
ATOM     30  C   UNL     1      36.178 -18.551 -21.504  0.00  0.00    -0.100 C 
ATOM     31  H   UNL     1      35.560 -20.323 -22.285  0.00  0.00    -0.079 HD
ENDBRANCH  27  28
ENDBRANCH  26  27
ENDBRANCH  23  25
ENDBRANCH   5  22
BRANCH   4  32
ATOM     32  O   UNL     1      29.376 -22.408 -17.240  0.00  0.00    -0.475 OA
BRANCH  32  34
ATOM     33  O   UNL     1      26.459 -21.607 -17.006  0.00  0.00    -0.350 OA
ATOM     34  C   UNL     1      28.195 -23.201 -17.268  0.00  0.00    +0.198 C 
ATOM     35  C   UNL     1      27.627 -23.331 -15.876  0.00  0.00    +0.078 C 
ATOM     36  C   UNL     1      27.104 -22.435 -17.990  0.00  0.00    +0.185 C 
ATOM     37  C   UNL     1      26.901 -22.013 -15.703  0.00  0.00    +0.146 C 
ENDBRANCH  32  34
ENDBRANCH   4  32
TORSDOF 7
ENDMDL
MODEL 2
REMARK VINA RESULT:     -10.4     11.958     15.987
REMARK  Name = 10184653
REMARK  7 active torsions:
REMARK  status: ('A' for Active; 'I' for Inactive)
REMARK    1  A    between atoms: N_2  and  C_15
REMARK    2  A    between atoms: C_4  and  O_32
REMARK    3  A    between atoms: C_5  and  N_22
REMARK    4  A    between atoms: C_23  and  C_25
REMARK    5  A    between atoms: C_26  and  C_27
REMARK    6  A    between atoms: C_27  and  N_28
REMARK    7  A    between atoms: O_32  and  C_34
REMARK                            x       y       z     vdW  Elec       q    Type
REMARK                         _______ _______ _______ _____ _____    ______ ____
ROOT
ATOM      1  N   UNL     1      31.565 -10.961 -20.054  0.00  0.00    -0.248 NA
ATOM      2  N   UNL     1      32.720 -12.701 -23.627  0.00  0.00    -0.301 N 
ATOM      3  N   UNL     1      31.932 -12.912 -21.421  0.00  0.00    -0.233 NA
ATOM      4  C   UNL     1      32.407  -7.945 -21.952  0.00  0.00    +0.153 C 
ATOM      5  C   UNL     1      32.803  -8.485 -23.170  0.00  0.00    +0.081 C 
ATOM      6  C   UNL     1      31.994  -8.784 -20.914  0.00  0.00    +0.053 C 
ATOM      7  C   UNL     1      32.368 -10.703 -22.299  0.00  0.00    +0.117 C 
ATOM      8  C   UNL     1      31.966 -10.169 -21.063  0.00  0.00    +0.070 C 
ATOM      9  C   UNL     1      32.786  -9.864 -23.348  0.00  0.00    +0.005 C 
ATOM     10  C   UNL     1      32.327 -12.090 -22.410  0.00  0.00    +0.115 C 
ATOM     11  C   UNL     1      31.569 -12.290 -20.288  0.00  0.00    +0.251 C 
ATOM     12  H   UNL     1      32.554 -12.145 -24.423  0.00  0.00    +0.153 HD
ENDROOT
BRANCH   2  15
ATOM     13 CL   UNL     1      35.318 -16.789 -21.959  0.00  0.00    -0.080 Cl
ATOM     14  F   UNL     1      34.996 -17.610 -24.790  0.00  0.00    -0.203 F 
ATOM     15  C   UNL     1      33.298 -13.947 -23.918  0.00  0.00    +0.050 C 
ATOM     16  C   UNL     1      33.946 -14.667 -22.914  0.00  0.00    +0.028 C 
ATOM     17  C   UNL     1      33.226 -14.464 -25.211  0.00  0.00    +0.017 C 
ATOM     18  C   UNL     1      34.521 -15.905 -23.202  0.00  0.00    +0.086 C 
ATOM     19  C   UNL     1      33.801 -15.702 -25.501  0.00  0.00    +0.032 C 
ATOM     20  C   UNL     1      34.449 -16.422 -24.496  0.00  0.00    +0.151 C 
ENDBRANCH   2  15
BRANCH   5  22
ATOM     21  O   UNL     1      35.425  -7.095 -23.625  0.00  0.00    -0.270 OA
ATOM     22  N   UNL     1      33.220  -7.660 -24.218  0.00  0.00    -0.278 N 
ATOM     23  C   UNL     1      34.462  -7.034 -24.380  0.00  0.00    +0.249 C 
ATOM     24  H   UNL     1      32.558  -7.498 -24.929  0.00  0.00    +0.155 HD
BRANCH  23  25
ATOM     25  C   UNL     1      34.514  -6.232 -25.639  0.00  0.00    +0.051 C 
ATOM     26  C   UNL     1      33.444  -5.535 -26.046  0.00  0.00    -0.044 C 
BRANCH  26  27
ATOM     27  C   UNL     1      33.430  -4.704 -27.294  0.00  0.00    -0.050 C 
BRANCH  27  28
ATOM     28  N   UNL     1      32.364  -3.709 -27.264  0.00  0.00    +0.387 N 
ATOM     29  C   UNL     1      32.780  -2.529 -26.503  0.00  0.00    -0.100 C 
ATOM     30  C   UNL     1      31.979  -3.326 -28.623  0.00  0.00    -0.100 C 
ATOM     31  H   UNL     1      31.554  -4.122 -26.802  0.00  0.00    -0.079 HD
ENDBRANCH  27  28
ENDBRANCH  26  27
ENDBRANCH  23  25
ENDBRANCH   5  22
BRANCH   4  32
ATOM     32  O   UNL     1      32.414  -6.597 -21.747  0.00  0.00    -0.475 OA
BRANCH  32  34
ATOM     33  O   UNL     1      30.803  -5.498 -24.072  0.00  0.00    -0.350 OA
ATOM     34  C   UNL     1      31.155  -5.934 -21.769  0.00  0.00    +0.198 C 
ATOM     35  C   UNL     1      31.352  -4.458 -22.016  0.00  0.00    +0.078 C 
ATOM     36  C   UNL     1      30.390  -6.367 -23.003  0.00  0.00    +0.185 C 
ATOM     37  C   UNL     1      31.555  -4.410 -23.516  0.00  0.00    +0.146 C 
ENDBRANCH  32  34
ENDBRANCH   4  32
TORSDOF 7
ENDMDL
MODEL 3
REMARK VINA RESULT:     -10.2      6.552     11.125
REMARK  Name = 10184653
REMARK  7 active torsions:
REMARK  status: ('A' for Active; 'I' for Inactive)
REMARK    1  A    between atoms: N_2  and  C_15
REMARK    2  A    between atoms: C_4  and  O_32
REMARK    3  A    between atoms: C_5  and  N_22
REMARK    4  A    between atoms: C_23  and  C_25
REMARK    5  A    between atoms: C_26  and  C_27
REMARK    6  A    between atoms: C_27  and  N_28
REMARK    7  A    between atoms: O_32  and  C_34
REMARK                            x       y       z     vdW  Elec       q    Type
REMARK                         _______ _______ _______ _____ _____    ______ ____
ROOT
ATOM      1  N   UNL     1      34.564 -17.900 -25.501  0.00  0.00    -0.248 NA
ATOM      2  N   UNL     1      34.697 -18.531 -21.414  0.00  0.00    -0.301 N 
ATOM      3  N   UNL     1      35.017 -19.319 -23.607  0.00  0.00    -0.233 NA
ATOM      4  C   UNL     1      33.404 -14.625 -24.346  0.00  0.00    +0.153 C 
ATOM      5  C   UNL     1      33.433 -14.792 -22.966  0.00  0.00    +0.081 C 
ATOM      6  C   UNL     1      33.785 -15.674 -25.187  0.00  0.00    +0.053 C 
ATOM      7  C   UNL     1      34.226 -17.058 -23.282  0.00  0.00    +0.117 C 
ATOM      8  C   UNL     1      34.201 -16.902 -24.677  0.00  0.00    +0.070 C 
ATOM      9  C   UNL     1      33.843 -16.007 -22.429  0.00  0.00    +0.005 C 
ATOM     10  C   UNL     1      34.647 -18.299 -22.811  0.00  0.00    +0.115 C 
ATOM     11  C   UNL     1      34.953 -19.055 -24.921  0.00  0.00    +0.251 C 
ATOM     12  H   UNL     1      34.881 -17.723 -20.883  0.00  0.00    +0.153 HD
ENDROOT
BRANCH   2  15
ATOM     13 CL   UNL     1      36.822 -22.051 -18.359  0.00  0.00    -0.080 Cl
ATOM     14  F   UNL     1      34.050 -23.105 -18.365  0.00  0.00    -0.203 F 
ATOM     15  C   UNL     1      34.536 -19.691 -20.639  0.00  0.00    +0.050 C 
ATOM     16  C   UNL     1      35.629 -20.234 -19.962  0.00  0.00    +0.028 C 
ATOM     17  C   UNL     1      33.286 -20.301 -20.547  0.00  0.00    +0.017 C 
ATOM     18  C   UNL     1      35.470 -21.387 -19.192  0.00  0.00    +0.086 C 
ATOM     19  C   UNL     1      33.127 -21.454 -19.778  0.00  0.00    +0.032 C 
ATOM     20  C   UNL     1      34.219 -21.997 -19.101  0.00  0.00    +0.151 C 
ENDBRANCH   2  15
BRANCH   5  22
ATOM     21  O   UNL     1      32.302 -14.877 -20.186  0.00  0.00    -0.270 OA
ATOM     22  N   UNL     1      33.054 -13.753 -22.111  0.00  0.00    -0.278 N 
ATOM     23  C   UNL     1      32.529 -13.851 -20.817  0.00  0.00    +0.249 C 
ATOM     24  H   UNL     1      33.171 -12.840 -22.462  0.00  0.00    +0.155 HD
BRANCH  23  25
ATOM     25  C   UNL     1      32.252 -12.504 -20.233  0.00  0.00    +0.051 C 
ATOM     26  C   UNL     1      31.750 -11.522 -20.994  0.00  0.00    -0.044 C 
BRANCH  26  27
ATOM     27  C   UNL     1      31.441 -10.152 -20.471  0.00  0.00    -0.050 C 
BRANCH  27  28
ATOM     28  N   UNL     1      32.201  -9.124 -21.175  0.00  0.00    +0.387 N 
ATOM     29  C   UNL     1      31.422  -8.580 -22.289  0.00  0.00    -0.100 C 
ATOM     30  C   UNL     1      32.590  -8.053 -20.257  0.00  0.00    -0.100 C 
ATOM     31  H   UNL     1      33.047  -9.553 -21.550  0.00  0.00    -0.079 HD
ENDBRANCH  27  28
ENDBRANCH  26  27
ENDBRANCH  23  25
ENDBRANCH   5  22
BRANCH   4  32
ATOM     32  O   UNL     1      33.005 -13.446 -24.901  0.00  0.00    -0.475 OA
BRANCH  32  34
ATOM     33  O   UNL     1      33.709 -10.774 -23.645  0.00  0.00    -0.350 OA
ATOM     34  C   UNL     1      34.026 -12.509 -25.229  0.00  0.00    +0.198 C 
ATOM     35  C   UNL     1      33.426 -11.317 -25.934  0.00  0.00    +0.078 C 
ATOM     36  C   UNL     1      34.559 -11.893 -23.952  0.00  0.00    +0.185 C 
ATOM     37  C   UNL     1      32.870 -10.510 -24.778  0.00  0.00    +0.146 C 
ENDBRANCH  32  34
ENDBRANCH   4  32
TORSDOF 7
ENDMDL
MODEL 4
REMARK VINA RESULT:     -10.0     11.430     16.045
REMARK  Name = 10184653
REMARK  7 active torsions:
REMARK  status: ('A' for Active; 'I' for Inactive)
REMARK    1  A    between atoms: N_2  and  C_15
REMARK    2  A    between atoms: C_4  and  O_32
REMARK    3  A    between atoms: C_5  and  N_22
REMARK    4  A    between atoms: C_23  and  C_25
REMARK    5  A    between atoms: C_26  and  C_27
REMARK    6  A    between atoms: C_27  and  N_28
REMARK    7  A    between atoms: O_32  and  C_34
REMARK                            x       y       z     vdW  Elec       q    Type
REMARK                         _______ _______ _______ _____ _____    ______ ____
ROOT
ATOM      1  N   UNL     1      31.789  -8.754 -19.820  0.00  0.00    -0.248 NA
ATOM      2  N   UNL     1      32.869  -7.588 -23.641  0.00  0.00    -0.301 N 
ATOM      3  N   UNL     1      32.321  -7.033 -21.421  0.00  0.00    -0.233 NA
ATOM      4  C   UNL     1      31.997 -12.042 -21.418  0.00  0.00    +0.153 C 
ATOM      5  C   UNL     1      32.361 -11.696 -22.715  0.00  0.00    +0.081 C 
ATOM      6  C   UNL     1      31.807 -11.046 -20.455  0.00  0.00    +0.053 C 
ATOM      7  C   UNL     1      32.343  -9.361 -22.072  0.00  0.00    +0.117 C 
ATOM      8  C   UNL     1      31.975  -9.697 -20.759  0.00  0.00    +0.070 C 
ATOM      9  C   UNL     1      32.534 -10.357 -23.047  0.00  0.00    +0.005 C 
ATOM     10  C   UNL     1      32.500  -8.003 -22.337  0.00  0.00    +0.115 C 
ATOM     11  C   UNL     1      31.973  -7.472 -20.202  0.00  0.00    +0.251 C 
ATOM     12  H   UNL     1      33.420  -8.245 -24.126  0.00  0.00    +0.153 HD
ENDROOT
BRANCH   2  15
ATOM     13 CL   UNL     1      34.376  -4.278 -27.248  0.00  0.00    -0.080 Cl
ATOM     14  F   UNL     1      31.806  -2.986 -26.526  0.00  0.00    -0.203 F 
ATOM     15  C   UNL     1      32.602  -6.421 -24.375  0.00  0.00    +0.050 C 
ATOM     16  C   UNL     1      33.513  -5.978 -25.335  0.00  0.00    +0.028 C 
ATOM     17  C   UNL     1      31.428  -5.705 -24.144  0.00  0.00    +0.017 C 
ATOM     18  C   UNL     1      33.249  -4.819 -26.065  0.00  0.00    +0.086 C 
ATOM     19  C   UNL     1      31.164  -4.545 -24.873  0.00  0.00    +0.032 C 
ATOM     20  C   UNL     1      32.075  -4.102 -25.833  0.00  0.00    +0.151 C 
ENDBRANCH   2  15
BRANCH   5  22
ATOM     21  O   UNL     1      34.175 -11.732 -25.107  0.00  0.00    -0.270 OA
ATOM     22  N   UNL     1      32.553 -12.679 -23.690  0.00  0.00    -0.278 N 
ATOM     23  C   UNL     1      33.418 -12.642 -24.791  0.00  0.00    +0.249 C 
ATOM     24  H   UNL     1      32.014 -13.497 -23.591  0.00  0.00    +0.155 HD
BRANCH  23  25
ATOM     25  C   UNL     1      33.331 -13.895 -25.600  0.00  0.00    +0.051 C 
ATOM     26  C   UNL     1      33.556 -15.088 -25.033  0.00  0.00    -0.044 C 
BRANCH  26  27
ATOM     27  C   UNL     1      33.477 -16.383 -25.785  0.00  0.00    -0.050 C 
BRANCH  27  28
ATOM     28  N   UNL     1      34.560 -17.287 -25.413  0.00  0.00    +0.387 N 
ATOM     29  C   UNL     1      35.296 -16.762 -24.261  0.00  0.00    -0.100 C 
ATOM     30  C   UNL     1      34.037 -18.621 -25.116  0.00  0.00    -0.100 C 
ATOM     31  H   UNL     1      35.202 -17.358 -26.202  0.00  0.00    -0.079 HD
ENDBRANCH  27  28
ENDBRANCH  26  27
ENDBRANCH  23  25
ENDBRANCH   5  22
BRANCH   4  32
ATOM     32  O   UNL     1      31.818 -13.345 -21.064  0.00  0.00    -0.475 OA
BRANCH  32  34
ATOM     33  O   UNL     1      33.775 -15.583 -21.678  0.00  0.00    -0.350 OA
ATOM     34  C   UNL     1      32.828 -13.939 -20.256  0.00  0.00    +0.198 C 
ATOM     35  C   UNL     1      32.379 -15.301 -19.785  0.00  0.00    +0.078 C 
ATOM     36  C   UNL     1      34.021 -14.277 -21.127  0.00  0.00    +0.185 C 
ATOM     37  C   UNL     1      32.654 -16.164 -20.999  0.00  0.00    +0.146 C 
ENDBRANCH  32  34
ENDBRANCH   4  32
TORSDOF 7
ENDMDL
MODEL 5
REMARK VINA RESULT:      -9.9     12.185     16.119
REMARK  Name = 10184653
REMARK  7 active torsions:
REMARK  status: ('A' for Active; 'I' for Inactive)
REMARK    1  A    between atoms: N_2  and  C_15
REMARK    2  A    between atoms: C_4  and  O_32
REMARK    3  A    between atoms: C_5  and  N_22
REMARK    4  A    between atoms: C_23  and  C_25
REMARK    5  A    between atoms: C_26  and  C_27
REMARK    6  A    between atoms: C_27  and  N_28
REMARK    7  A    between atoms: O_32  and  C_34
REMARK                            x       y       z     vdW  Elec       q    Type
REMARK                         _______ _______ _______ _____ _____    ______ ____
ROOT
ATOM      1  N   UNL     1      31.457 -10.303 -19.639  0.00  0.00    -0.248 NA
ATOM      2  N   UNL     1      32.708 -12.371 -22.998  0.00  0.00    -0.301 N 
ATOM      3  N   UNL     1      31.880 -12.375 -20.797  0.00  0.00    -0.233 NA
ATOM      4  C   UNL     1      32.291  -7.477 -21.813  0.00  0.00    +0.153 C 
ATOM      5  C   UNL     1      32.719  -8.130 -22.964  0.00  0.00    +0.081 C 
ATOM      6  C   UNL     1      31.870  -8.216 -20.704  0.00  0.00    +0.053 C 
ATOM      7  C   UNL     1      32.300 -10.257 -21.884  0.00  0.00    +0.117 C 
ATOM      8  C   UNL     1      31.865  -9.609 -20.715  0.00  0.00    +0.070 C 
ATOM      9  C   UNL     1      32.726  -9.520 -23.003  0.00  0.00    +0.005 C 
ATOM     10  C   UNL     1      32.282 -11.649 -21.856  0.00  0.00    +0.115 C 
ATOM     11  C   UNL     1      31.485 -11.649 -19.738  0.00  0.00    +0.251 C 
ATOM     12  H   UNL     1      32.550 -11.900 -23.849  0.00  0.00    +0.153 HD
ENDROOT
BRANCH   2  15
ATOM     13 CL   UNL     1      33.608 -16.424 -25.999  0.00  0.00    -0.080 Cl
ATOM     14  F   UNL     1      35.087 -17.333 -23.594  0.00  0.00    -0.203 F 
ATOM     15  C   UNL     1      33.310 -13.630 -23.153  0.00  0.00    +0.050 C 
ATOM     16  C   UNL     1      33.178 -14.324 -24.357  0.00  0.00    +0.028 C 
ATOM     17  C   UNL     1      34.041 -14.188 -22.104  0.00  0.00    +0.017 C 
ATOM     18  C   UNL     1      33.776 -15.574 -24.512  0.00  0.00    +0.086 C 
ATOM     19  C   UNL     1      34.639 -15.439 -22.258  0.00  0.00    +0.032 C 
ATOM     20  C   UNL     1      34.506 -16.132 -23.462  0.00  0.00    +0.151 C 
ENDBRANCH   2  15
BRANCH   5  22
ATOM     21  O   UNL     1      35.448  -7.119 -23.702  0.00  0.00    -0.270 OA
ATOM     22  N   UNL     1      33.144  -7.406 -24.081  0.00  0.00    -0.278 N 
ATOM     23  C   UNL     1      34.437  -6.958 -24.377  0.00  0.00    +0.249 C 
ATOM     24  H   UNL     1      32.448  -7.184 -24.742  0.00  0.00    +0.155 HD
BRANCH  23  25
ATOM     25  C   UNL     1      34.480  -6.216 -25.673  0.00  0.00    +0.051 C 
ATOM     26  C   UNL     1      33.468  -5.414 -26.031  0.00  0.00    -0.044 C 
BRANCH  26  27
ATOM     27  C   UNL     1      33.450  -4.635 -27.312  0.00  0.00    -0.050 C 
BRANCH  27  28
ATOM     28  N   UNL     1      34.000  -3.296 -27.134  0.00  0.00    +0.387 N 
ATOM     29  C   UNL     1      35.317  -3.191 -27.765  0.00  0.00    -0.100 C 
ATOM     30  C   UNL     1      33.092  -2.289 -27.686  0.00  0.00    -0.100 C 
ATOM     31  H   UNL     1      34.106  -3.124 -26.134  0.00  0.00    -0.079 HD
ENDBRANCH  27  28
ENDBRANCH  26  27
ENDBRANCH  23  25
ENDBRANCH   5  22
BRANCH   4  32
ATOM     32  O   UNL     1      32.274  -6.116 -21.745  0.00  0.00    -0.475 OA
BRANCH  32  34
ATOM     33  O   UNL     1      30.567  -5.381 -24.144  0.00  0.00    -0.350 OA
ATOM     34  C   UNL     1      31.002  -5.482 -21.816  0.00  0.00    +0.198 C 
ATOM     35  C   UNL     1      31.162  -4.053 -22.275  0.00  0.00    +0.078 C 
ATOM     36  C   UNL     1      30.206  -6.096 -22.949  0.00  0.00    +0.185 C 
ATOM     37  C   UNL     1      31.315  -4.215 -23.773  0.00  0.00    +0.146 C 
ENDBRANCH  32  34
ENDBRANCH   4  32
TORSDOF 7
ENDMDL
MODEL 6
REMARK VINA RESULT:      -9.6      4.865     10.213
REMARK  Name = 10184653
REMARK  7 active torsions:
REMARK  status: ('A' for Active; 'I' for Inactive)
REMARK    1  A    between atoms: N_2  and  C_15
REMARK    2  A    between atoms: C_4  and  O_32
REMARK    3  A    between atoms: C_5  and  N_22
REMARK    4  A    between atoms: C_23  and  C_25
REMARK    5  A    between atoms: C_26  and  C_27
REMARK    6  A    between atoms: C_27  and  N_28
REMARK    7  A    between atoms: O_32  and  C_34
REMARK                            x       y       z     vdW  Elec       q    Type
REMARK                         _______ _______ _______ _____ _____    ______ ____
ROOT
ATOM      1  N   UNL     1      37.912 -19.834 -20.951  0.00  0.00    -0.248 NA
ATOM      2  N   UNL     1      34.242 -18.187 -21.926  0.00  0.00    -0.301 N 
ATOM      3  N   UNL     1      36.572 -18.293 -22.232  0.00  0.00    -0.233 NA
ATOM      4  C   UNL     1      35.767 -21.752 -18.687  0.00  0.00    +0.153 C 
ATOM      5  C   UNL     1      34.513 -21.229 -18.982  0.00  0.00    +0.081 C 
ATOM      6  C   UNL     1      36.900 -21.277 -19.353  0.00  0.00    +0.053 C 
ATOM      7  C   UNL     1      35.539 -19.758 -20.610  0.00  0.00    +0.117 C 
ATOM      8  C   UNL     1      36.811 -20.279 -20.320  0.00  0.00    +0.070 C 
ATOM      9  C   UNL     1      34.395 -20.230 -19.943  0.00  0.00    +0.005 C 
ATOM     10  C   UNL     1      35.491 -18.762 -21.582  0.00  0.00    +0.115 C 
ATOM     11  C   UNL     1      37.733 -18.865 -21.874  0.00  0.00    +0.251 C 
ATOM     12  H   UNL     1      33.480 -18.802 -21.823  0.00  0.00    +0.153 HD
ENDROOT
BRANCH   2  15
ATOM     13 CL   UNL     1      32.371 -13.541 -20.854  0.00  0.00    -0.080 Cl
ATOM     14  F   UNL     1      32.821 -13.163 -23.760  0.00  0.00    -0.203 F 
ATOM     15  C   UNL     1      33.881 -16.911 -22.388  0.00  0.00    +0.050 C 
ATOM     16  C   UNL     1      33.365 -15.968 -21.498  0.00  0.00    +0.028 C 
ATOM     17  C   UNL     1      34.037 -16.587 -23.735  0.00  0.00    +0.017 C 
ATOM     18  C   UNL     1      33.006 -14.700 -21.956  0.00  0.00    +0.086 C 
ATOM     19  C   UNL     1      33.677 -15.320 -24.194  0.00  0.00    +0.032 C 
ATOM     20  C   UNL     1      33.161 -14.376 -23.304  0.00  0.00    +0.151 C 
ENDBRANCH   2  15
BRANCH   5  22
ATOM     21  O   UNL     1      33.596 -24.032 -18.422  0.00  0.00    -0.270 OA
ATOM     22  N   UNL     1      33.371 -21.692 -18.325  0.00  0.00    -0.278 N 
ATOM     23  C   UNL     1      32.991 -23.019 -18.090  0.00  0.00    +0.249 C 
ATOM     24  H   UNL     1      32.758 -21.000 -17.985  0.00  0.00    +0.155 HD
BRANCH  23  25
ATOM     25  C   UNL     1      31.695 -23.098 -17.350  0.00  0.00    +0.051 C 
ATOM     26  C   UNL     1      31.675 -23.087 -16.011  0.00  0.00    -0.044 C 
BRANCH  26  27
ATOM     27  C   UNL     1      30.411 -23.154 -15.207  0.00  0.00    -0.050 C 
BRANCH  27  28
ATOM     28  N   UNL     1      30.414 -24.294 -14.297  0.00  0.00    +0.387 N 
ATOM     29  C   UNL     1      29.804 -25.463 -14.933  0.00  0.00    -0.100 C 
ATOM     30  C   UNL     1      31.778 -24.605 -13.866  0.00  0.00    -0.100 C 
ATOM     31  H   UNL     1      29.862 -24.048 -13.475  0.00  0.00    -0.079 HD
ENDBRANCH  27  28
ENDBRANCH  26  27
ENDBRANCH  23  25
ENDBRANCH   5  22
BRANCH   4  32
ATOM     32  O   UNL     1      35.915 -22.730 -17.749  0.00  0.00    -0.475 OA
BRANCH  32  34
ATOM     33  O   UNL     1      37.104 -24.321 -15.455  0.00  0.00    -0.350 OA
ATOM     34  C   UNL     1      36.306 -22.320 -16.444  0.00  0.00    +0.198 C 
ATOM     35  C   UNL     1      35.295 -22.792 -15.428  0.00  0.00    +0.078 C 
ATOM     36  C   UNL     1      37.550 -23.085 -16.038  0.00  0.00    +0.185 C 
ATOM     37  C   UNL     1      35.689 -24.243 -15.237  0.00  0.00    +0.146 C 
ENDBRANCH  32  34
ENDBRANCH   4  32
TORSDOF 7
ENDMDL
MODEL 7
REMARK VINA RESULT:      -9.4     13.422     17.397
REMARK  Name = 10184653
REMARK  7 active torsions:
REMARK  status: ('A' for Active; 'I' for Inactive)
REMARK    1  A    between atoms: N_2  and  C_15
REMARK    2  A    between atoms: C_4  and  O_32
REMARK    3  A    between atoms: C_5  and  N_22
REMARK    4  A    between atoms: C_23  and  C_25
REMARK    5  A    between atoms: C_26  and  C_27
REMARK    6  A    between atoms: C_27  and  N_28
REMARK    7  A    between atoms: O_32  and  C_34
REMARK                            x       y       z     vdW  Elec       q    Type
REMARK                         _______ _______ _______ _____ _____    ______ ____
ROOT
ATOM      1  N   UNL     1      31.700  -8.361 -19.590  0.00  0.00    -0.248 NA
ATOM      2  N   UNL     1      32.085 -11.016 -22.741  0.00  0.00    -0.301 N 
ATOM      3  N   UNL     1      31.790 -10.613 -20.442  0.00  0.00    -0.233 NA
ATOM      4  C   UNL     1      32.077  -5.979 -22.346  0.00  0.00    +0.153 C 
ATOM      5  C   UNL     1      32.210  -6.834 -23.435  0.00  0.00    +0.081 C 
ATOM      6  C   UNL     1      31.906  -6.502 -21.061  0.00  0.00    +0.053 C 
ATOM      7  C   UNL     1      32.000  -8.728 -21.941  0.00  0.00    +0.117 C 
ATOM      8  C   UNL     1      31.865  -7.875 -20.833  0.00  0.00    +0.070 C 
ATOM      9  C   UNL     1      32.172  -8.210 -23.236  0.00  0.00    +0.005 C 
ATOM     10  C   UNL     1      31.953 -10.094 -21.673  0.00  0.00    +0.115 C 
ATOM     11  C   UNL     1      31.671  -9.704 -19.462  0.00  0.00    +0.251 C 
ATOM     12  H   UNL     1      31.745 -10.679 -23.601  0.00  0.00    +0.153 HD
ENDROOT
BRANCH   2  15
ATOM     13 CL   UNL     1      32.209 -15.757 -20.803  0.00  0.00    -0.080 Cl
ATOM     14  F   UNL     1      34.136 -16.149 -23.023  0.00  0.00    -0.203 F 
ATOM     15  C   UNL     1      32.603 -12.319 -22.810  0.00  0.00    +0.050 C 
ATOM     16  C   UNL     1      32.198 -13.281 -21.882  0.00  0.00    +0.028 C 
ATOM     17  C   UNL     1      33.522 -12.653 -23.804  0.00  0.00    +0.017 C 
ATOM     18  C   UNL     1      32.713 -14.575 -21.950  0.00  0.00    +0.086 C 
ATOM     19  C   UNL     1      34.037 -13.948 -23.871  0.00  0.00    +0.032 C 
ATOM     20  C   UNL     1      33.633 -14.909 -22.944  0.00  0.00    +0.151 C 
ENDBRANCH   2  15
BRANCH   5  22
ATOM     21  O   UNL     1      34.719  -6.252 -24.977  0.00  0.00    -0.270 OA
ATOM     22  N   UNL     1      32.381  -6.327 -24.726  0.00  0.00    -0.278 N 
ATOM     23  C   UNL     1      33.583  -6.074 -25.399  0.00  0.00    +0.249 C 
ATOM     24  H   UNL     1      31.556  -6.123 -25.223  0.00  0.00    +0.155 HD
BRANCH  23  25
ATOM     25  C   UNL     1      33.341  -5.532 -26.770  0.00  0.00    +0.051 C 
ATOM     26  C   UNL     1      33.540  -4.233 -27.033  0.00  0.00    -0.044 C 
BRANCH  26  27
ATOM     27  C   UNL     1      33.324  -3.626 -28.387  0.00  0.00    -0.050 C 
BRANCH  27  28
ATOM     28  N   UNL     1      31.936  -3.220 -28.579  0.00  0.00    +0.387 N 
ATOM     29  C   UNL     1      31.704  -1.893 -28.007  0.00  0.00    -0.100 C 
ATOM     30  C   UNL     1      31.590  -3.228 -30.000  0.00  0.00    -0.100 C 
ATOM     31  H   UNL     1      31.338  -3.890 -28.095  0.00  0.00    -0.079 HD
ENDBRANCH  27  28
ENDBRANCH  26  27
ENDBRANCH  23  25
ENDBRANCH   5  22
BRANCH   4  32
ATOM     32  O   UNL     1      32.110  -4.626 -22.509  0.00  0.00    -0.475 OA
BRANCH  32  34
ATOM     33  O   UNL     1      31.727  -2.341 -24.468  0.00  0.00    -0.350 OA
ATOM     34  C   UNL     1      30.922  -4.003 -22.982  0.00  0.00    +0.198 C 
ATOM     35  C   UNL     1      30.752  -2.652 -22.332  0.00  0.00    +0.078 C 
ATOM     36  C   UNL     1      31.104  -3.637 -24.442  0.00  0.00    +0.185 C 
ATOM     37  C   UNL     1      31.691  -1.786 -23.147  0.00  0.00    +0.146 C 
ENDBRANCH  32  34
ENDBRANCH   4  32
TORSDOF 7
ENDMDL
MODEL 8
REMARK VINA RESULT:      -9.2      7.392     11.884
REMARK  Name = 10184653
REMARK  7 active torsions:
REMARK  status: ('A' for Active; 'I' for Inactive)
REMARK    1  A    between atoms: N_2  and  C_15
REMARK    2  A    between atoms: C_4  and  O_32
REMARK    3  A    between atoms: C_5  and  N_22
REMARK    4  A    between atoms: C_23  and  C_25
REMARK    5  A    between atoms: C_26  and  C_27
REMARK    6  A    between atoms: C_27  and  N_28
REMARK    7  A    between atoms: O_32  and  C_34
REMARK                            x       y       z     vdW  Elec       q    Type
REMARK                         _______ _______ _______ _____ _____    ______ ____
ROOT
ATOM      1  N   UNL     1      34.391 -16.482 -25.815  0.00  0.00    -0.248 NA
ATOM      2  N   UNL     1      35.218 -17.386 -21.862  0.00  0.00    -0.301 N 
ATOM      3  N   UNL     1      35.308 -17.955 -24.143  0.00  0.00    -0.233 NA
ATOM      4  C   UNL     1      32.990 -13.504 -24.209  0.00  0.00    +0.153 C 
ATOM      5  C   UNL     1      33.248 -13.766 -22.867  0.00  0.00    +0.081 C 
ATOM      6  C   UNL     1      33.378 -14.422 -25.189  0.00  0.00    +0.053 C 
ATOM      7  C   UNL     1      34.280 -15.863 -23.501  0.00  0.00    +0.117 C 
ATOM      8  C   UNL     1      34.025 -15.611 -24.859  0.00  0.00    +0.070 C 
ATOM      9  C   UNL     1      33.892 -14.945 -22.509  0.00  0.00    +0.005 C 
ATOM     10  C   UNL     1      34.928 -17.061 -23.211  0.00  0.00    +0.115 C 
ATOM     11  C   UNL     1      35.013 -17.607 -25.406  0.00  0.00    +0.251 C 
ATOM     12  H   UNL     1      35.370 -16.600 -21.289  0.00  0.00    +0.153 HD
ENDROOT
BRANCH   2  15
ATOM     13 CL   UNL     1      32.882 -21.469 -19.834  0.00  0.00    -0.080 Cl
ATOM     14  F   UNL     1      35.680 -22.212 -19.193  0.00  0.00    -0.203 F 
ATOM     15  C   UNL     1      35.331 -18.611 -21.185  0.00  0.00    +0.050 C 
ATOM     16  C   UNL     1      34.186 -19.347 -20.880  0.00  0.00    +0.028 C 
ATOM     17  C   UNL     1      36.588 -19.090 -20.818  0.00  0.00    +0.017 C 
ATOM     18  C   UNL     1      34.298 -20.564 -20.208  0.00  0.00    +0.086 C 
ATOM     19  C   UNL     1      36.700 -20.307 -20.145  0.00  0.00    +0.032 C 
ATOM     20  C   UNL     1      35.555 -21.044 -19.839  0.00  0.00    +0.151 C 
ENDBRANCH   2  15
BRANCH   5  22
ATOM     21  O   UNL     1      32.066 -14.244 -20.149  0.00  0.00    -0.270 OA
ATOM     22  N   UNL     1      32.866 -12.860 -21.875  0.00  0.00    -0.278 N 
ATOM     23  C   UNL     1      32.316 -13.139 -20.618  0.00  0.00    +0.249 C 
ATOM     24  H   UNL     1      33.000 -11.907 -22.086  0.00  0.00    +0.155 HD
BRANCH  23  25
ATOM     25  C   UNL     1      32.045 -11.889 -19.846  0.00  0.00    +0.051 C 
ATOM     26  C   UNL     1      32.023 -10.700 -20.463  0.00  0.00    -0.044 C 
BRANCH  26  27
ATOM     27  C   UNL     1      31.749  -9.409 -19.750  0.00  0.00    -0.050 C 
BRANCH  27  28
ATOM     28  N   UNL     1      32.325  -8.272 -20.459  0.00  0.00    +0.387 N 
ATOM     29  C   UNL     1      31.789  -8.188 -21.819  0.00  0.00    -0.100 C 
ATOM     30  C   UNL     1      32.065  -7.028 -19.734  0.00  0.00    -0.100 C 
ATOM     31  H   UNL     1      33.334  -8.409 -20.517  0.00  0.00    -0.079 HD
ENDBRANCH  27  28
ENDBRANCH  26  27
ENDBRANCH  23  25
ENDBRANCH   5  22
BRANCH   4  32
ATOM     32  O   UNL     1      32.359 -12.358 -24.590  0.00  0.00    -0.475 OA
BRANCH  32  34
ATOM     33  O   UNL     1      34.921 -10.859 -23.959  0.00  0.00    -0.350 OA
ATOM     34  C   UNL     1      33.110 -11.438 -25.375  0.00  0.00    +0.198 C 
ATOM     35  C   UNL     1      32.896 -10.032 -24.869  0.00  0.00    +0.078 C 
ATOM     36  C   UNL     1      34.586 -11.654 -25.110  0.00  0.00    +0.185 C 
ATOM     37  C   UNL     1      33.826  -9.979 -23.674  0.00  0.00    +0.146 C 
ENDBRANCH  32  34
ENDBRANCH   4  32
TORSDOF 7
ENDMDL
