MODEL 1
REMARK VINA RESULT:      -8.5      0.000      0.000
REMARK  Name = 6335986
REMARK  8 active torsions:
REMARK  status: ('A' for Active; 'I' for Inactive)
REMARK    1  A    between atoms: N_2  and  CA_9
REMARK    2  A    between atoms: C_3  and  C_22
REMARK    3  A    between atoms: CA_11  and  C_15
REMARK    4  A    between atoms: C_12  and  C_18
REMARK    5  A    between atoms: C_15  and  O_16
REMARK    6  A    between atoms: C_18  and  O_19
REMARK    7  A    between atoms: N_21  and  O_31
REMARK    8  A    between atoms: C_22  and  C_26
REMARK                            x       y       z     vdW  Elec       q    Type
REMARK                         _______ _______ _______ _____ _____    ______ ____
ROOT
ATOM      1  O   UNL     1      36.930 -20.877 -20.604  0.00  0.00    -0.268 OA
ATOM      2  N   UNL     1      35.373 -19.134 -20.379  0.00  0.00    -0.291 N 
ATOM      3  C   UNL     1      35.879 -20.410 -20.195  0.00  0.00    +0.269 C 
ATOM      4  H   UNL     1      34.501 -18.911 -19.981  0.00  0.00    +0.150 HD
ENDROOT
BRANCH   2   9
ATOM      5  S   UNL     1      34.881 -19.374 -23.398  0.00  0.00    -0.114 S 
ATOM      6  O   UNL     1      35.076 -15.889 -20.328  0.00  0.00    -0.273 OA
ATOM      7  N   UNL     1      35.070 -16.899 -22.459  0.00  0.00    -0.242 N 
ATOM      8  C   UNL     1      35.901 -18.068 -22.675  0.00  0.00    +0.155 C 
ATOM      9  CA  UNL     1      36.080 -18.106 -21.142  0.00  0.00    +0.179 C 
ATOM     10  C   UNL     1      35.357 -16.729 -21.150  0.00  0.00    +0.251 C 
ATOM     11  CA  UNL     1      34.316 -16.318 -23.428  0.00  0.00    +0.126 C 
ATOM     12  C   UNL     1      34.051 -16.955 -24.593  0.00  0.00    +0.016 C 
ATOM     13  C   UNL     1      34.478 -18.392 -24.882  0.00  0.00    +0.085 C 
BRANCH  11  15
ATOM     14  OXT UNL     1      32.633 -14.816 -22.680  0.00  0.00    -0.244 OA
ATOM     15  C   UNL     1      33.747 -14.996 -23.129  0.00  0.00    +0.351 C 
BRANCH  15  16
ATOM     16  O   UNL     1      34.650 -14.041 -23.428  0.00  0.00    -0.476 OA
ATOM     17  H   UNL     1      35.327 -13.829 -22.817  0.00  0.00    +0.295 HD
ENDBRANCH  15  16
ENDBRANCH  11  15
BRANCH  12  18
ATOM     18  C   UNL     1      33.291 -16.347 -25.749  0.00  0.00    +0.167 C 
BRANCH  18  19
ATOM     19  O   UNL     1      34.058 -15.307 -26.317  0.00  0.00    -0.347 OA
ATOM     20  C   UNL     1      33.245 -14.215 -26.736  0.00  0.00    +0.175 C 
ENDBRANCH  18  19
ENDBRANCH  12  18
ENDBRANCH   2   9
BRANCH   3  22
ATOM     21  N   UNL     1      33.742 -21.484 -19.750  0.00  0.00    -0.076 NA
ATOM     22  C   UNL     1      34.972 -21.292 -19.377  0.00  0.00    +0.198 C 
BRANCH  22  26
ATOM     23  S   UNL     1      36.843 -22.650 -16.196  0.00  0.00    -0.060 S 
ATOM     24  N   UNL     1      34.618 -22.819 -17.503  0.00  0.00    -0.383 NA
ATOM     25  N   UNL     1      34.746 -24.156 -15.558  0.00  0.00    -0.328 N 
ATOM     26  C   UNL     1      35.442 -21.941 -18.150  0.00  0.00    +0.148 C 
ATOM     27  C   UNL     1      36.675 -21.709 -17.620  0.00  0.00    +0.127 C 
ATOM     28  C   UNL     1      35.259 -23.263 -16.444  0.00  0.00    +0.204 C 
ATOM     29  H   UNL     1      35.282 -24.446 -14.785  0.00  0.00    +0.145 HD
ATOM     30  H   UNL     1      33.838 -24.514 -15.688  0.00  0.00    +0.145 HD
ENDBRANCH  22  26
BRANCH  21  31
ATOM     31  O   UNL     1      33.441 -20.795 -20.933  0.00  0.00    -0.373 OA
ATOM     32  C   UNL     1      32.419 -19.854 -20.646  0.00  0.00    +0.288 C 
ENDBRANCH  21  31
ENDBRANCH   3  22
TORSDOF 8
ENDMDL
MODEL 2
REMARK VINA RESULT:      -8.1      5.763     10.163
REMARK  Name = 6335986
REMARK  8 active torsions:
REMARK  status: ('A' for Active; 'I' for Inactive)
REMARK    1  A    between atoms: N_2  and  CA_9
REMARK    2  A    between atoms: C_3  and  C_22
REMARK    3  A    between atoms: CA_11  and  C_15
REMARK    4  A    between atoms: C_12  and  C_18
REMARK    5  A    between atoms: C_15  and  O_16
REMARK    6  A    between atoms: C_18  and  O_19
REMARK    7  A    between atoms: N_21  and  O_31
REMARK    8  A    between atoms: C_22  and  C_26
REMARK                            x       y       z     vdW  Elec       q    Type
REMARK                         _______ _______ _______ _____ _____    ______ ____
ROOT
ATOM      1  O   UNL     1      30.697 -10.444 -22.872  0.00  0.00    -0.268 OA
ATOM      2  N   UNL     1      32.606 -11.747 -22.463  0.00  0.00    -0.291 N 
ATOM      3  C   UNL     1      31.899 -10.583 -22.717  0.00  0.00    +0.269 C 
ATOM      4  H   UNL     1      33.584 -11.691 -22.362  0.00  0.00    +0.150 HD
ENDROOT
BRANCH   2   9
ATOM      5  S   UNL     1      33.590 -13.738 -24.579  0.00  0.00    -0.114 S 
ATOM      6  O   UNL     1      32.664 -13.911 -20.027  0.00  0.00    -0.273 OA
ATOM      7  N   UNL     1      33.081 -14.765 -22.185  0.00  0.00    -0.242 N 
ATOM      8  C   UNL     1      32.379 -14.179 -23.311  0.00  0.00    +0.155 C 
ATOM      9  CA  UNL     1      31.961 -13.053 -22.341  0.00  0.00    +0.179 C 
ATOM     10  C   UNL     1      32.578 -13.951 -21.231  0.00  0.00    +0.251 C 
ATOM     11  CA  UNL     1      33.938 -15.813 -22.291  0.00  0.00    +0.126 C 
ATOM     12  C   UNL     1      34.430 -16.204 -23.491  0.00  0.00    +0.016 C 
ATOM     13  C   UNL     1      34.156 -15.460 -24.795  0.00  0.00    +0.085 C 
BRANCH  11  15
ATOM     14  OXT UNL     1      35.147 -15.981 -20.252  0.00  0.00    -0.244 OA
ATOM     15  C   UNL     1      34.359 -16.462 -21.041  0.00  0.00    +0.351 C 
BRANCH  15  16
ATOM     16  O   UNL     1      33.736 -17.651 -20.921  0.00  0.00    -0.476 OA
ATOM     17  H   UNL     1      33.771 -18.118 -20.110  0.00  0.00    +0.295 HD
ENDBRANCH  15  16
ENDBRANCH  11  15
BRANCH  12  18
ATOM     18  C   UNL     1      35.320 -17.406 -23.702  0.00  0.00    +0.167 C 
BRANCH  18  19
ATOM     19  O   UNL     1      34.553 -18.584 -23.580  0.00  0.00    -0.347 OA
ATOM     20  C   UNL     1      34.573 -19.358 -24.776  0.00  0.00    +0.175 C 
ENDBRANCH  18  19
ENDBRANCH  12  18
ENDBRANCH   2   9
BRANCH   3  22
ATOM     21  N   UNL     1      33.790  -9.346 -23.619  0.00  0.00    -0.076 NA
ATOM     22  C   UNL     1      32.781  -9.364 -22.802  0.00  0.00    +0.198 C 
BRANCH  22  26
ATOM     23  S   UNL     1      32.318  -6.629 -20.014  0.00  0.00    -0.060 S 
ATOM     24  N   UNL     1      32.104  -7.029 -22.560  0.00  0.00    -0.383 NA
ATOM     25  N   UNL     1      31.539  -4.852 -21.833  0.00  0.00    -0.328 N 
ATOM     26  C   UNL     1      32.532  -8.184 -21.968  0.00  0.00    +0.148 C 
ATOM     27  C   UNL     1      32.710  -8.185 -20.618  0.00  0.00    +0.127 C 
ATOM     28  C   UNL     1      31.954  -6.127 -21.615  0.00  0.00    +0.204 C 
ATOM     29  H   UNL     1      31.449  -4.227 -21.078  0.00  0.00    +0.145 HD
ATOM     30  H   UNL     1      31.329  -4.551 -22.747  0.00  0.00    +0.145 HD
ENDBRANCH  22  26
BRANCH  21  31
ATOM     31  O   UNL     1      33.900 -10.544 -24.338  0.00  0.00    -0.373 OA
ATOM     32  C   UNL     1      35.023 -10.439 -25.200  0.00  0.00    +0.288 C 
ENDBRANCH  21  31
ENDBRANCH   3  22
TORSDOF 8
ENDMDL
MODEL 3
REMARK VINA RESULT:      -8.0      6.566     11.268
REMARK  Name = 6335986
REMARK  8 active torsions:
REMARK  status: ('A' for Active; 'I' for Inactive)
REMARK    1  A    between atoms: N_2  and  CA_9
REMARK    2  A    between atoms: C_3  and  C_22
REMARK    3  A    between atoms: CA_11  and  C_15
REMARK    4  A    between atoms: C_12  and  C_18
REMARK    5  A    between atoms: C_15  and  O_16
REMARK    6  A    between atoms: C_18  and  O_19
REMARK    7  A    between atoms: N_21  and  O_31
REMARK    8  A    between atoms: C_22  and  C_26
REMARK                            x       y       z     vdW  Elec       q    Type
REMARK                         _______ _______ _______ _____ _____    ______ ____
ROOT
ATOM      1  O   UNL     1      30.700  -8.874 -23.063  0.00  0.00    -0.268 OA
ATOM      2  N   UNL     1      32.413 -10.274 -22.278  0.00  0.00    -0.291 N 
ATOM      3  C   UNL     1      31.831  -9.074 -22.653  0.00  0.00    +0.269 C 
ATOM      4  H   UNL     1      33.346 -10.268 -21.966  0.00  0.00    +0.150 HD
ENDROOT
BRANCH   2   9
ATOM      5  S   UNL     1      33.646 -12.225 -24.299  0.00  0.00    -0.114 S 
ATOM      6  O   UNL     1      31.966 -12.538 -19.976  0.00  0.00    -0.273 OA
ATOM      7  N   UNL     1      32.699 -13.322 -22.075  0.00  0.00    -0.242 N 
ATOM      8  C   UNL     1      32.222 -12.654 -23.272  0.00  0.00    +0.155 C 
ATOM      9  CA  UNL     1      31.698 -11.549 -22.329  0.00  0.00    +0.179 C 
ATOM     10  C   UNL     1      32.081 -12.523 -21.179  0.00  0.00    +0.251 C 
ATOM     11  CA  UNL     1      33.514 -14.408 -22.091  0.00  0.00    +0.126 C 
ATOM     12  C   UNL     1      34.182 -14.774 -23.211  0.00  0.00    +0.016 C 
ATOM     13  C   UNL     1      34.163 -13.963 -24.504  0.00  0.00    +0.085 C 
BRANCH  11  15
ATOM     14  OXT UNL     1      34.734 -15.180 -20.203  0.00  0.00    -0.244 OA
ATOM     15  C   UNL     1      33.690 -15.129 -20.822  0.00  0.00    +0.351 C 
BRANCH  15  16
ATOM     16  O   UNL     1      32.525 -15.709 -20.471  0.00  0.00    -0.476 OA
ATOM     17  H   UNL     1      32.282 -16.533 -20.842  0.00  0.00    +0.295 HD
ENDBRANCH  15  16
ENDBRANCH  11  15
BRANCH  12  18
ATOM     18  C   UNL     1      35.040 -16.011 -23.332  0.00  0.00    +0.167 C 
BRANCH  18  19
ATOM     19  O   UNL     1      34.237 -17.101 -23.730  0.00  0.00    -0.347 OA
ATOM     20  C   UNL     1      34.596 -17.582 -25.022  0.00  0.00    +0.175 C 
ENDBRANCH  18  19
ENDBRANCH  12  18
ENDBRANCH   2   9
BRANCH   3  22
ATOM     21  N   UNL     1      33.239  -7.576 -21.351  0.00  0.00    -0.076 NA
ATOM     22  C   UNL     1      32.764  -7.899 -22.516  0.00  0.00    +0.198 C 
BRANCH  22  26
ATOM     23  S   UNL     1      34.421  -6.117 -25.605  0.00  0.00    -0.060 S 
ATOM     24  N   UNL     1      32.278  -6.159 -24.161  0.00  0.00    -0.383 NA
ATOM     25  N   UNL     1      32.269  -4.588 -25.927  0.00  0.00    -0.328 N 
ATOM     26  C   UNL     1      33.150  -7.092 -23.678  0.00  0.00    +0.148 C 
ATOM     27  C   UNL     1      34.352  -7.231 -24.304  0.00  0.00    +0.127 C 
ATOM     28  C   UNL     1      32.847  -5.573 -25.191  0.00  0.00    +0.204 C 
ATOM     29  H   UNL     1      32.754  -4.193 -26.688  0.00  0.00    +0.145 HD
ATOM     30  H   UNL     1      31.366  -4.268 -25.700  0.00  0.00    +0.145 HD
ENDBRANCH  22  26
BRANCH  21  31
ATOM     31  O   UNL     1      32.775  -8.432 -20.343  0.00  0.00    -0.373 OA
ATOM     32  C   UNL     1      31.896  -7.695 -19.507  0.00  0.00    +0.288 C 
ENDBRANCH  21  31
ENDBRANCH   3  22
TORSDOF 8
ENDMDL
MODEL 4
REMARK VINA RESULT:      -7.9      5.241      9.625
REMARK  Name = 6335986
REMARK  8 active torsions:
REMARK  status: ('A' for Active; 'I' for Inactive)
REMARK    1  A    between atoms: N_2  and  CA_9
REMARK    2  A    between atoms: C_3  and  C_22
REMARK    3  A    between atoms: CA_11  and  C_15
REMARK    4  A    between atoms: C_12  and  C_18
REMARK    5  A    between atoms: C_15  and  O_16
REMARK    6  A    between atoms: C_18  and  O_19
REMARK    7  A    between atoms: N_21  and  O_31
REMARK    8  A    between atoms: C_22  and  C_26
REMARK                            x       y       z     vdW  Elec       q    Type
REMARK                         _______ _______ _______ _____ _____    ______ ____
ROOT
ATOM      1  O   UNL     1      30.476 -10.792 -22.483  0.00  0.00    -0.268 OA
ATOM      2  N   UNL     1      32.307 -12.021 -21.677  0.00  0.00    -0.291 N 
ATOM      3  C   UNL     1      31.596 -10.879 -22.007  0.00  0.00    +0.269 C 
ATOM      4  H   UNL     1      33.210 -11.921 -21.299  0.00  0.00    +0.150 HD
ENDROOT
BRANCH   2   9
ATOM      5  S   UNL     1      33.538 -13.429 -24.108  0.00  0.00    -0.114 S 
ATOM      6  O   UNL     1      32.457 -14.649 -19.755  0.00  0.00    -0.273 OA
ATOM      7  N   UNL     1      33.028 -14.984 -22.018  0.00  0.00    -0.242 N 
ATOM      8  C   UNL     1      32.322 -14.223 -23.032  0.00  0.00    +0.155 C 
ATOM      9  CA  UNL     1      31.772 -13.368 -21.871  0.00  0.00    +0.179 C 
ATOM     10  C   UNL     1      32.421 -14.434 -20.943  0.00  0.00    +0.251 C 
ATOM     11  CA  UNL     1      33.976 -15.916 -22.295  0.00  0.00    +0.126 C 
ATOM     12  C   UNL     1      34.545 -16.001 -23.522  0.00  0.00    +0.016 C 
ATOM     13  C   UNL     1      34.258 -15.016 -24.652  0.00  0.00    +0.085 C 
BRANCH  11  15
ATOM     14  OXT UNL     1      34.132 -17.966 -21.103  0.00  0.00    -0.244 OA
ATOM     15  C   UNL     1      34.402 -16.785 -21.189  0.00  0.00    +0.351 C 
BRANCH  15  16
ATOM     16  O   UNL     1      35.126 -16.066 -20.308  0.00  0.00    -0.476 OA
ATOM     17  H   UNL     1      34.875 -15.188 -20.103  0.00  0.00    +0.295 HD
ENDBRANCH  15  16
ENDBRANCH  11  15
BRANCH  12  18
ATOM     18  C   UNL     1      35.542 -17.059 -23.932  0.00  0.00    +0.167 C 
BRANCH  18  19
ATOM     19  O   UNL     1      34.962 -17.894 -24.911  0.00  0.00    -0.347 OA
ATOM     20  C   UNL     1      34.581 -19.157 -24.373  0.00  0.00    +0.175 C 
ENDBRANCH  18  19
ENDBRANCH  12  18
ENDBRANCH   2   9
BRANCH   3  22
ATOM     21  N   UNL     1      32.193  -8.995 -20.586  0.00  0.00    -0.076 NA
ATOM     22  C   UNL     1      32.355  -9.609 -21.720  0.00  0.00    +0.198 C 
BRANCH  22  26
ATOM     23  S   UNL     1      34.667  -7.430 -24.038  0.00  0.00    -0.060 S 
ATOM     24  N   UNL     1      33.900  -9.859 -23.596  0.00  0.00    -0.383 NA
ATOM     25  N   UNL     1      35.441  -9.598 -25.369  0.00  0.00    -0.328 N 
ATOM     26  C   UNL     1      33.279  -9.034 -22.702  0.00  0.00    +0.148 C 
ATOM     27  C   UNL     1      33.549  -7.700 -22.766  0.00  0.00    +0.127 C 
ATOM     28  C   UNL     1      34.668  -9.115 -24.362  0.00  0.00    +0.204 C 
ATOM     29  H   UNL     1      35.993  -8.983 -25.904  0.00  0.00    +0.145 HD
ATOM     30  H   UNL     1      35.451 -10.563 -25.564  0.00  0.00    +0.145 HD
ENDBRANCH  22  26
BRANCH  21  31
ATOM     31  O   UNL     1      31.278  -9.660 -19.759  0.00  0.00    -0.373 OA
ATOM     32  C   UNL     1      32.000 -10.256 -18.693  0.00  0.00    +0.288 C 
ENDBRANCH  21  31
ENDBRANCH   3  22
TORSDOF 8
ENDMDL
MODEL 5
REMARK VINA RESULT:      -7.9      3.489      5.684
REMARK  Name = 6335986
REMARK  8 active torsions:
REMARK  status: ('A' for Active; 'I' for Inactive)
REMARK    1  A    between atoms: N_2  and  CA_9
REMARK    2  A    between atoms: C_3  and  C_22
REMARK    3  A    between atoms: CA_11  and  C_15
REMARK    4  A    between atoms: C_12  and  C_18
REMARK    5  A    between atoms: C_15  and  O_16
REMARK    6  A    between atoms: C_18  and  O_19
REMARK    7  A    between atoms: N_21  and  O_31
REMARK    8  A    between atoms: C_22  and  C_26
REMARK                            x       y       z     vdW  Elec       q    Type
REMARK                         _______ _______ _______ _____ _____    ______ ____
ROOT
ATOM      1  O   UNL     1      33.785 -24.693 -17.593  0.00  0.00    -0.268 OA
ATOM      2  N   UNL     1      33.477 -22.454 -18.226  0.00  0.00    -0.291 N 
ATOM      3  C   UNL     1      33.363 -23.564 -17.405  0.00  0.00    +0.269 C 
ATOM      4  H   UNL     1      33.078 -21.605 -17.928  0.00  0.00    +0.150 HD
ENDROOT
BRANCH   2   9
ATOM      5  S   UNL     1      32.604 -20.173 -20.083  0.00  0.00    -0.114 S 
ATOM      6  O   UNL     1      36.644 -22.169 -18.940  0.00  0.00    -0.273 OA
ATOM      7  N   UNL     1      35.169 -20.845 -20.218  0.00  0.00    -0.242 N 
ATOM      8  C   UNL     1      33.863 -21.384 -20.549  0.00  0.00    +0.155 C 
ATOM      9  CA  UNL     1      34.164 -22.492 -19.516  0.00  0.00    +0.179 C 
ATOM     10  C   UNL     1      35.598 -21.890 -19.476  0.00  0.00    +0.251 C 
ATOM     11  CA  UNL     1      35.615 -19.634 -20.638  0.00  0.00    +0.126 C 
ATOM     12  C   UNL     1      34.769 -18.709 -21.153  0.00  0.00    +0.016 C 
ATOM     13  C   UNL     1      33.255 -18.897 -21.214  0.00  0.00    +0.085 C 
BRANCH  11  15
ATOM     14  OXT UNL     1      37.813 -19.078 -21.351  0.00  0.00    -0.244 OA
ATOM     15  C   UNL     1      37.044 -19.346 -20.450  0.00  0.00    +0.351 C 
BRANCH  15  16
ATOM     16  O   UNL     1      37.349 -19.428 -19.139  0.00  0.00    -0.476 OA
ATOM     17  H   UNL     1      37.702 -18.684 -18.694  0.00  0.00    +0.295 HD
ENDBRANCH  15  16
ENDBRANCH  11  15
BRANCH  12  18
ATOM     18  C   UNL     1      35.197 -17.375 -21.716  0.00  0.00    +0.167 C 
BRANCH  18  19
ATOM     19  O   UNL     1      35.220 -16.416 -20.681  0.00  0.00    -0.347 OA
ATOM     20  C   UNL     1      34.370 -15.308 -20.964  0.00  0.00    +0.175 C 
ENDBRANCH  18  19
ENDBRANCH  12  18
ENDBRANCH   2   9
BRANCH   3  22
ATOM     21  N   UNL     1      33.248 -22.865 -15.078  0.00  0.00    -0.076 NA
ATOM     22  C   UNL     1      32.611 -23.280 -16.131  0.00  0.00    +0.198 C 
BRANCH  22  26
ATOM     23  S   UNL     1      28.882 -24.267 -15.366  0.00  0.00    -0.060 S 
ATOM     24  N   UNL     1      30.343 -22.763 -16.879  0.00  0.00    -0.383 NA
ATOM     25  N   UNL     1      28.014 -22.600 -17.248  0.00  0.00    -0.328 N 
ATOM     26  C   UNL     1      31.160 -23.470 -16.043  0.00  0.00    +0.148 C 
ATOM     27  C   UNL     1      30.583 -24.330 -15.158  0.00  0.00    +0.127 C 
ATOM     28  C   UNL     1      29.103 -23.105 -16.610  0.00  0.00    +0.204 C 
ATOM     29  H   UNL     1      27.112 -22.901 -16.995  0.00  0.00    +0.145 HD
ATOM     30  H   UNL     1      28.127 -21.932 -17.963  0.00  0.00    +0.145 HD
ENDBRANCH  22  26
BRANCH  21  31
ATOM     31  O   UNL     1      34.623 -22.738 -15.316  0.00  0.00    -0.373 OA
ATOM     32  C   UNL     1      35.312 -23.503 -14.338  0.00  0.00    +0.288 C 
ENDBRANCH  21  31
ENDBRANCH   3  22
TORSDOF 8
ENDMDL
MODEL 6
REMARK VINA RESULT:      -7.7      5.301     10.343
REMARK  Name = 6335986
REMARK  8 active torsions:
REMARK  status: ('A' for Active; 'I' for Inactive)
REMARK    1  A    between atoms: N_2  and  CA_9
REMARK    2  A    between atoms: C_3  and  C_22
REMARK    3  A    between atoms: CA_11  and  C_15
REMARK    4  A    between atoms: C_12  and  C_18
REMARK    5  A    between atoms: C_15  and  O_16
REMARK    6  A    between atoms: C_18  and  O_19
REMARK    7  A    between atoms: N_21  and  O_31
REMARK    8  A    between atoms: C_22  and  C_26
REMARK                            x       y       z     vdW  Elec       q    Type
REMARK                         _______ _______ _______ _____ _____    ______ ____
ROOT
ATOM      1  O   UNL     1      33.796 -24.196 -18.885  0.00  0.00    -0.268 OA
ATOM      2  N   UNL     1      33.636 -23.392 -16.685  0.00  0.00    -0.291 N 
ATOM      3  C   UNL     1      33.472 -23.358 -18.060  0.00  0.00    +0.269 C 
ATOM      4  H   UNL     1      33.318 -22.628 -16.153  0.00  0.00    +0.150 HD
ENDROOT
BRANCH   2   9
ATOM      5  S   UNL     1      36.502 -22.766 -15.791  0.00  0.00    -0.114 S 
ATOM      6  O   UNL     1      32.817 -24.878 -13.902  0.00  0.00    -0.273 OA
ATOM      7  N   UNL     1      35.085 -24.274 -14.129  0.00  0.00    -0.242 N 
ATOM      8  C   UNL     1      35.694 -24.345 -15.444  0.00  0.00    +0.155 C 
ATOM      9  CA  UNL     1      34.262 -24.518 -15.993  0.00  0.00    +0.179 C 
ATOM     10  C   UNL     1      33.840 -24.642 -14.501  0.00  0.00    +0.251 C 
ATOM     11  CA  UNL     1      35.757 -23.920 -13.003  0.00  0.00    +0.126 C 
ATOM     12  C   UNL     1      36.972 -23.324 -13.063  0.00  0.00    +0.016 C 
ATOM     13  C   UNL     1      37.641 -22.908 -14.372  0.00  0.00    +0.085 C 
BRANCH  11  15
ATOM     14  OXT UNL     1      35.384 -25.030 -10.935  0.00  0.00    -0.244 OA
ATOM     15  C   UNL     1      35.080 -24.154 -11.720  0.00  0.00    +0.351 C 
BRANCH  15  16
ATOM     16  O   UNL     1      34.090 -23.253 -11.565  0.00  0.00    -0.476 OA
ATOM     17  H   UNL     1      33.474 -23.350 -10.866  0.00  0.00    +0.295 HD
ENDBRANCH  15  16
ENDBRANCH  11  15
BRANCH  12  18
ATOM     18  C   UNL     1      37.817 -22.975 -11.861  0.00  0.00    +0.167 C 
BRANCH  18  19
ATOM     19  O   UNL     1      38.954 -23.811 -11.830  0.00  0.00    -0.347 OA
ATOM     20  C   UNL     1      38.638 -25.152 -12.192  0.00  0.00    +0.175 C 
ENDBRANCH  18  19
ENDBRANCH  12  18
ENDBRANCH   2   9
BRANCH   3  22
ATOM     21  N   UNL     1      31.604 -21.801 -18.144  0.00  0.00    -0.076 NA
ATOM     22  C   UNL     1      32.804 -22.096 -18.542  0.00  0.00    +0.198 C 
BRANCH  22  26
ATOM     23  S   UNL     1      33.943 -19.516 -21.284  0.00  0.00    -0.060 S 
ATOM     24  N   UNL     1      34.837 -21.047 -19.402  0.00  0.00    -0.383 NA
ATOM     25  N   UNL     1      36.483 -19.799 -20.551  0.00  0.00    -0.328 N 
ATOM     26  C   UNL     1      33.479 -21.182 -19.469  0.00  0.00    +0.148 C 
ATOM     27  C   UNL     1      32.808 -20.454 -20.405  0.00  0.00    +0.127 C 
ATOM     28  C   UNL     1      35.200 -20.183 -20.324  0.00  0.00    +0.204 C 
ATOM     29  H   UNL     1      36.684 -19.146 -21.260  0.00  0.00    +0.145 HD
ATOM     30  H   UNL     1      37.213 -20.174 -20.007  0.00  0.00    +0.145 HD
ENDBRANCH  22  26
BRANCH  21  31
ATOM     31  O   UNL     1      31.092 -22.770 -17.270  0.00  0.00    -0.373 OA
ATOM     32  C   UNL     1      29.796 -22.357 -16.865  0.00  0.00    +0.288 C 
ENDBRANCH  21  31
ENDBRANCH   3  22
TORSDOF 8
ENDMDL
MODEL 7
REMARK VINA RESULT:      -7.5      5.803      8.687
REMARK  Name = 6335986
REMARK  8 active torsions:
REMARK  status: ('A' for Active; 'I' for Inactive)
REMARK    1  A    between atoms: N_2  and  CA_9
REMARK    2  A    between atoms: C_3  and  C_22
REMARK    3  A    between atoms: CA_11  and  C_15
REMARK    4  A    between atoms: C_12  and  C_18
REMARK    5  A    between atoms: C_15  and  O_16
REMARK    6  A    between atoms: C_18  and  O_19
REMARK    7  A    between atoms: N_21  and  O_31
REMARK    8  A    between atoms: C_22  and  C_26
REMARK                            x       y       z     vdW  Elec       q    Type
REMARK                         _______ _______ _______ _____ _____    ______ ____
ROOT
ATOM      1  O   UNL     1      31.976 -13.847 -23.834  0.00  0.00    -0.268 OA
ATOM      2  N   UNL     1      33.506 -12.192 -23.179  0.00  0.00    -0.291 N 
ATOM      3  C   UNL     1      32.793 -13.373 -23.062  0.00  0.00    +0.269 C 
ATOM      4  H   UNL     1      34.134 -11.947 -22.462  0.00  0.00    +0.150 HD
ENDROOT
BRANCH   2   9
ATOM      5  S   UNL     1      31.388 -10.024 -22.709  0.00  0.00    -0.114 S 
ATOM      6  O   UNL     1      35.655 -10.159 -24.548  0.00  0.00    -0.273 OA
ATOM      7  N   UNL     1      33.523  -9.262 -24.089  0.00  0.00    -0.242 N 
ATOM      8  C   UNL     1      32.364 -10.122 -24.227  0.00  0.00    +0.155 C 
ATOM      9  CA  UNL     1      33.364 -11.294 -24.325  0.00  0.00    +0.179 C 
ATOM     10  C   UNL     1      34.458 -10.190 -24.389  0.00  0.00    +0.251 C 
ATOM     11  CA  UNL     1      33.454  -7.948 -23.751  0.00  0.00    +0.126 C 
ATOM     12  C   UNL     1      32.324  -7.411 -23.232  0.00  0.00    +0.016 C 
ATOM     13  C   UNL     1      31.084  -8.233 -22.888  0.00  0.00    +0.085 C 
BRANCH  11  15
ATOM     14  OXT UNL     1      34.870  -6.369 -24.824  0.00  0.00    -0.244 OA
ATOM     15  C   UNL     1      34.678  -7.151 -23.914  0.00  0.00    +0.351 C 
BRANCH  15  16
ATOM     16  O   UNL     1      35.530  -7.427 -22.907  0.00  0.00    -0.476 OA
ATOM     17  H   UNL     1      36.436  -7.207 -22.987  0.00  0.00    +0.295 HD
ENDBRANCH  15  16
ENDBRANCH  11  15
BRANCH  12  18
ATOM     18  C   UNL     1      32.140  -5.948 -22.908  0.00  0.00    +0.167 C 
BRANCH  18  19
ATOM     19  O   UNL     1      31.002  -5.458 -23.584  0.00  0.00    -0.347 OA
ATOM     20  C   UNL     1      31.343  -4.838 -24.820  0.00  0.00    +0.175 C 
ENDBRANCH  18  19
ENDBRANCH  12  18
ENDBRANCH   2   9
BRANCH   3  22
ATOM     21  N   UNL     1      32.644 -13.708 -20.656  0.00  0.00    -0.076 NA
ATOM     22  C   UNL     1      33.106 -14.127 -21.795  0.00  0.00    +0.198 C 
BRANCH  22  26
ATOM     23  S   UNL     1      35.263 -17.344 -21.114  0.00  0.00    -0.060 S 
ATOM     24  N   UNL     1      34.380 -15.822 -23.009  0.00  0.00    -0.383 NA
ATOM     25  N   UNL     1      35.701 -17.649 -23.719  0.00  0.00    -0.328 N 
ATOM     26  C   UNL     1      33.939 -15.334 -21.812  0.00  0.00    +0.148 C 
ATOM     27  C   UNL     1      34.297 -15.997 -20.677  0.00  0.00    +0.127 C 
ATOM     28  C   UNL     1      35.099 -16.895 -22.763  0.00  0.00    +0.204 C 
ATOM     29  H   UNL     1      36.226 -18.442 -23.464  0.00  0.00    +0.145 HD
ATOM     30  H   UNL     1      35.613 -17.403 -24.669  0.00  0.00    +0.145 HD
ENDBRANCH  22  26
BRANCH  21  31
ATOM     31  O   UNL     1      31.875 -12.545 -20.801  0.00  0.00    -0.373 OA
ATOM     32  C   UNL     1      31.838 -11.881 -19.548  0.00  0.00    +0.288 C 
ENDBRANCH  21  31
ENDBRANCH   3  22
TORSDOF 8
ENDMDL
MODEL 8
REMARK VINA RESULT:      -7.5      5.618      8.437
REMARK  Name = 6335986
REMARK  8 active torsions:
REMARK  status: ('A' for Active; 'I' for Inactive)
REMARK    1  A    between atoms: N_2  and  CA_9
REMARK    2  A    between atoms: C_3  and  C_22
REMARK    3  A    between atoms: CA_11  and  C_15
REMARK    4  A    between atoms: C_12  and  C_18
REMARK    5  A    between atoms: C_15  and  O_16
REMARK    6  A    between atoms: C_18  and  O_19
REMARK    7  A    between atoms: N_21  and  O_31
REMARK    8  A    between atoms: C_22  and  C_26
REMARK                            x       y       z     vdW  Elec       q    Type
REMARK                         _______ _______ _______ _____ _____    ______ ____
ROOT
ATOM      1  O   UNL     1      32.305 -14.102 -24.176  0.00  0.00    -0.268 OA
ATOM      2  N   UNL     1      33.666 -12.356 -23.394  0.00  0.00    -0.291 N 
ATOM      3  C   UNL     1      33.066 -13.604 -23.362  0.00  0.00    +0.269 C 
ATOM      4  H   UNL     1      34.260 -12.100 -22.652  0.00  0.00    +0.150 HD
ENDROOT
BRANCH   2   9
ATOM      5  S   UNL     1      31.508 -10.281 -22.723  0.00  0.00    -0.114 S 
ATOM      6  O   UNL     1      35.698 -10.189 -24.735  0.00  0.00    -0.273 OA
ATOM      7  N   UNL     1      33.562  -9.383 -24.144  0.00  0.00    -0.242 N 
ATOM      8  C   UNL     1      32.422 -10.270 -24.282  0.00  0.00    +0.155 C 
ATOM      9  CA  UNL     1      33.451 -11.404 -24.483  0.00  0.00    +0.179 C 
ATOM     10  C   UNL     1      34.509 -10.265 -24.531  0.00  0.00    +0.251 C 
ATOM     11  CA  UNL     1      33.469  -8.092 -23.734  0.00  0.00    +0.126 C 
ATOM     12  C   UNL     1      32.347  -7.618 -23.141  0.00  0.00    +0.016 C 
ATOM     13  C   UNL     1      31.145  -8.494 -22.794  0.00  0.00    +0.085 C 
BRANCH  11  15
ATOM     14  OXT UNL     1      34.816  -6.454 -24.806  0.00  0.00    -0.244 OA
ATOM     15  C   UNL     1      34.662  -7.250 -23.902  0.00  0.00    +0.351 C 
BRANCH  15  16
ATOM     16  O   UNL     1      35.534  -7.504 -22.906  0.00  0.00    -0.476 OA
ATOM     17  H   UNL     1      35.243  -7.939 -22.129  0.00  0.00    +0.295 HD
ENDBRANCH  15  16
ENDBRANCH  11  15
BRANCH  12  18
ATOM     18  C   UNL     1      32.135  -6.180 -22.732  0.00  0.00    +0.167 C 
BRANCH  18  19
ATOM     19  O   UNL     1      31.007  -5.662 -23.406  0.00  0.00    -0.347 OA
ATOM     20  C   UNL     1      31.362  -5.047 -24.641  0.00  0.00    +0.175 C 
ENDBRANCH  18  19
ENDBRANCH  12  18
ENDBRANCH   2   9
BRANCH   3  22
ATOM     21  N   UNL     1      33.031 -14.027 -20.966  0.00  0.00    -0.076 NA
ATOM     22  C   UNL     1      33.436 -14.405 -22.141  0.00  0.00    +0.198 C 
BRANCH  22  26
ATOM     23  S   UNL     1      35.683 -17.480 -23.121  0.00  0.00    -0.060 S 
ATOM     24  N   UNL     1      34.518 -16.340 -21.114  0.00  0.00    -0.383 NA
ATOM     25  N   UNL     1      35.723 -18.306 -20.594  0.00  0.00    -0.328 N 
ATOM     26  C   UNL     1      34.262 -15.612 -22.241  0.00  0.00    +0.148 C 
ATOM     27  C   UNL     1      34.789 -16.048 -23.420  0.00  0.00    +0.127 C 
ATOM     28  C   UNL     1      35.269 -17.363 -21.460  0.00  0.00    +0.204 C 
ATOM     29  H   UNL     1      36.283 -19.047 -20.922  0.00  0.00    +0.145 HD
ATOM     30  H   UNL     1      35.493 -18.250 -19.638  0.00  0.00    +0.145 HD
ENDBRANCH  22  26
BRANCH  21  31
ATOM     31  O   UNL     1      32.261 -12.857 -21.032  0.00  0.00    -0.373 OA
ATOM     32  C   UNL     1      32.006 -12.422 -19.705  0.00  0.00    +0.288 C 
ENDBRANCH  21  31
ENDBRANCH   3  22
TORSDOF 8
ENDMDL
MODEL 9
REMARK VINA RESULT:      -7.4      4.129      9.882
REMARK  Name = 6335986
REMARK  8 active torsions:
REMARK  status: ('A' for Active; 'I' for Inactive)
REMARK    1  A    between atoms: N_2  and  CA_9
REMARK    2  A    between atoms: C_3  and  C_22
REMARK    3  A    between atoms: CA_11  and  C_15
REMARK    4  A    between atoms: C_12  and  C_18
REMARK    5  A    between atoms: C_15  and  O_16
REMARK    6  A    between atoms: C_18  and  O_19
REMARK    7  A    between atoms: N_21  and  O_31
REMARK    8  A    between atoms: C_22  and  C_26
REMARK                            x       y       z     vdW  Elec       q    Type
REMARK                         _______ _______ _______ _____ _____    ______ ____
ROOT
ATOM      1  O   UNL     1      34.906 -23.191 -20.193  0.00  0.00    -0.268 OA
ATOM      2  N   UNL     1      34.282 -22.346 -18.094  0.00  0.00    -0.291 N 
ATOM      3  C   UNL     1      34.892 -22.322 -19.337  0.00  0.00    +0.269 C 
ATOM      4  H   UNL     1      34.365 -21.556 -17.513  0.00  0.00    +0.150 HD
ENDROOT
BRANCH   2   9
ATOM      5  S   UNL     1      35.685 -23.778 -15.772  0.00  0.00    -0.114 S 
ATOM      6  O   UNL     1      31.321 -22.503 -16.740  0.00  0.00    -0.273 OA
ATOM      7  N   UNL     1      33.037 -23.671 -15.622  0.00  0.00    -0.242 N 
ATOM      8  C   UNL     1      34.078 -24.301 -16.413  0.00  0.00    +0.155 C 
ATOM      9  CA  UNL     1      33.522 -23.498 -17.609  0.00  0.00    +0.179 C 
ATOM     10  C   UNL     1      32.359 -23.116 -16.650  0.00  0.00    +0.251 C 
ATOM     11  CA  UNL     1      32.965 -23.750 -14.268  0.00  0.00    +0.126 C 
ATOM     12  C   UNL     1      34.018 -24.174 -13.528  0.00  0.00    +0.016 C 
ATOM     13  C   UNL     1      35.387 -24.498 -14.122  0.00  0.00    +0.085 C 
BRANCH  11  15
ATOM     14  OXT UNL     1      30.894 -24.033 -13.138  0.00  0.00    -0.244 OA
ATOM     15  C   UNL     1      31.718 -23.295 -13.638  0.00  0.00    +0.351 C 
BRANCH  15  16
ATOM     16  O   UNL     1      31.647 -21.950 -13.707  0.00  0.00    -0.476 OA
ATOM     17  H   UNL     1      32.414 -21.433 -13.563  0.00  0.00    +0.295 HD
ENDBRANCH  15  16
ENDBRANCH  11  15
BRANCH  12  18
ATOM     18  C   UNL     1      33.991 -24.367 -12.031  0.00  0.00    +0.167 C 
BRANCH  18  19
ATOM     19  O   UNL     1      35.197 -24.972 -11.615  0.00  0.00    -0.347 OA
ATOM     20  C   UNL     1      35.845 -24.217 -10.595  0.00  0.00    +0.175 C 
ENDBRANCH  18  19
ENDBRANCH  12  18
ENDBRANCH   2   9
BRANCH   3  22
ATOM     21  N   UNL     1      36.690 -20.731 -18.944  0.00  0.00    -0.076 NA
ATOM     22  C   UNL     1      35.617 -21.031 -19.612  0.00  0.00    +0.198 C 
BRANCH  22  26
ATOM     23  S   UNL     1      33.661 -18.743 -22.143  0.00  0.00    -0.060 S 
ATOM     24  N   UNL     1      36.038 -19.319 -21.304  0.00  0.00    -0.383 NA
ATOM     25  N   UNL     1      35.940 -17.666 -22.991  0.00  0.00    -0.328 N 
ATOM     26  C   UNL     1      35.135 -20.085 -20.623  0.00  0.00    +0.148 C 
ATOM     27  C   UNL     1      33.814 -19.934 -20.919  0.00  0.00    +0.127 C 
ATOM     28  C   UNL     1      35.368 -18.561 -22.145  0.00  0.00    +0.204 C 
ATOM     29  H   UNL     1      35.377 -17.130 -23.596  0.00  0.00    +0.145 HD
ATOM     30  H   UNL     1      36.918 -17.552 -23.001  0.00  0.00    +0.145 HD
ENDBRANCH  22  26
BRANCH  21  31
ATOM     31  O   UNL     1      37.020 -21.726 -18.013  0.00  0.00    -0.373 OA
ATOM     32  C   UNL     1      37.434 -21.089 -16.815  0.00  0.00    +0.288 C 
ENDBRANCH  21  31
ENDBRANCH   3  22
TORSDOF 8
ENDMDL
