MODEL 1
REMARK VINA RESULT:      -8.9      0.000      0.000
REMARK  Name = 12106168
REMARK  2 active torsions:
REMARK  status: ('A' for Active; 'I' for Inactive)
REMARK    1  A    between atoms: C_3  and  C_8
REMARK    2  A    between atoms: C_4  and  C_15
REMARK                            x       y       z     vdW  Elec       q    Type
REMARK                         _______ _______ _______ _____ _____    ______ ____
ROOT
ATOM      1  N   UNL     1      34.984 -18.124 -24.907  0.00  0.00    -0.236 N 
ATOM      2  N   UNL     1      34.669 -17.212 -25.842  0.00  0.00    -0.180 NA
ATOM      3  C   UNL     1      34.757 -17.704 -23.629  0.00  0.00    +0.066 C 
ATOM      4  C   UNL     1      34.258 -16.429 -23.736  0.00  0.00    +0.036 C 
ATOM      5  C   UNL     1      34.226 -16.179 -25.121  0.00  0.00    +0.119 C 
ATOM      6  H   UNL     1      35.347 -19.014 -25.124  0.00  0.00    +0.174 HD
ENDROOT
BRANCH   3   8
ATOM      7  F   UNL     1      35.823 -20.935 -19.217  0.00  0.00    -0.204 F 
ATOM      8  C   UNL     1      35.033 -18.540 -22.487  0.00  0.00    +0.015 C 
ATOM      9  C   UNL     1      36.325 -18.604 -21.964  0.00  0.00    +0.004 C 
ATOM     10  C   UNL     1      34.008 -19.287 -21.904  0.00  0.00    +0.004 C 
ATOM     11  C   UNL     1      36.592 -19.413 -20.859  0.00  0.00    +0.030 C 
ATOM     12  C   UNL     1      34.275 -20.096 -20.800  0.00  0.00    +0.030 C 
ATOM     13  C   UNL     1      35.567 -20.158 -20.278  0.00  0.00    +0.140 C 
ENDBRANCH   3   8
BRANCH   4  15
ATOM     14  N   UNL     1      33.132 -13.978 -20.477  0.00  0.00    -0.242 NA
ATOM     15  C   UNL     1      33.878 -15.599 -22.634  0.00  0.00    +0.006 C 
ATOM     16  C   UNL     1      34.601 -15.637 -21.444  0.00  0.00    +0.021 C 
ATOM     17  C   UNL     1      32.781 -14.748 -22.742  0.00  0.00    +0.021 C 
ATOM     18  C   UNL     1      34.191 -14.815 -20.406  0.00  0.00    +0.099 C 
ATOM     19  C   UNL     1      32.453 -13.966 -21.647  0.00  0.00    +0.099 C 
ENDBRANCH   4  15
TORSDOF 2
ENDMDL
MODEL 2
REMARK VINA RESULT:      -8.9      2.480      4.766
REMARK  Name = 12106168
REMARK  2 active torsions:
REMARK  status: ('A' for Active; 'I' for Inactive)
REMARK    1  A    between atoms: C_3  and  C_8
REMARK    2  A    between atoms: C_4  and  C_15
REMARK                            x       y       z     vdW  Elec       q    Type
REMARK                         _______ _______ _______ _____ _____    ______ ____
ROOT
ATOM      1  N   UNL     1      34.072 -15.912 -25.078  0.00  0.00    -0.236 N 
ATOM      2  N   UNL     1      34.579 -16.823 -25.925  0.00  0.00    -0.180 NA
ATOM      3  C   UNL     1      34.125 -16.287 -23.768  0.00  0.00    +0.066 C 
ATOM      4  C   UNL     1      34.709 -17.531 -23.757  0.00  0.00    +0.036 C 
ATOM      5  C   UNL     1      34.967 -17.810 -25.112  0.00  0.00    +0.119 C 
ATOM      6  H   UNL     1      33.696 -15.052 -25.376  0.00  0.00    +0.174 HD
ENDROOT
BRANCH   3   8
ATOM      7  F   UNL     1      32.210 -13.030 -19.673  0.00  0.00    -0.204 F 
ATOM      8  C   UNL     1      33.630 -15.444 -22.708  0.00  0.00    +0.015 C 
ATOM      9  C   UNL     1      33.983 -15.706 -21.384  0.00  0.00    +0.004 C 
ATOM     10  C   UNL     1      32.796 -14.365 -23.006  0.00  0.00    +0.004 C 
ATOM     11  C   UNL     1      33.504 -14.891 -20.359  0.00  0.00    +0.030 C 
ATOM     12  C   UNL     1      32.317 -13.550 -21.980  0.00  0.00    +0.030 C 
ATOM     13  C   UNL     1      32.671 -13.813 -20.658  0.00  0.00    +0.140 C 
ENDBRANCH   3   8
BRANCH   4  15
ATOM     14  N   UNL     1      35.465 -19.834 -20.289  0.00  0.00    -0.242 NA
ATOM     15  C   UNL     1      34.964 -18.309 -22.583  0.00  0.00    +0.006 C 
ATOM     16  C   UNL     1      36.230 -18.307 -22.002  0.00  0.00    +0.021 C 
ATOM     17  C   UNL     1      33.950 -19.075 -22.014  0.00  0.00    +0.021 C 
ATOM     18  C   UNL     1      36.426 -19.078 -20.867  0.00  0.00    +0.099 C 
ATOM     19  C   UNL     1      34.248 -19.811 -20.879  0.00  0.00    +0.099 C 
ENDBRANCH   4  15
TORSDOF 2
ENDMDL
MODEL 3
REMARK VINA RESULT:      -8.7      7.596     10.813
REMARK  Name = 12106168
REMARK  2 active torsions:
REMARK  status: ('A' for Active; 'I' for Inactive)
REMARK    1  A    between atoms: C_3  and  C_8
REMARK    2  A    between atoms: C_4  and  C_15
REMARK                            x       y       z     vdW  Elec       q    Type
REMARK                         _______ _______ _______ _____ _____    ______ ____
ROOT
ATOM      1  N   UNL     1      33.240 -22.982 -14.634  0.00  0.00    -0.236 N 
ATOM      2  N   UNL     1      32.855 -23.607 -13.508  0.00  0.00    -0.180 NA
ATOM      3  C   UNL     1      34.446 -23.402 -15.112  0.00  0.00    +0.066 C 
ATOM      4  C   UNL     1      34.881 -24.368 -14.238  0.00  0.00    +0.036 C 
ATOM      5  C   UNL     1      33.861 -24.453 -13.271  0.00  0.00    +0.119 C 
ATOM      6  H   UNL     1      32.700 -22.286 -15.073  0.00  0.00    +0.174 HD
ENDROOT
BRANCH   3   8
ATOM      7  F   UNL     1      36.700 -21.272 -19.741  0.00  0.00    -0.204 F 
ATOM      8  C   UNL     1      35.030 -22.851 -16.310  0.00  0.00    +0.015 C 
ATOM      9  C   UNL     1      36.332 -22.350 -16.286  0.00  0.00    +0.004 C 
ATOM     10  C   UNL     1      34.292 -22.817 -17.494  0.00  0.00    +0.004 C 
ATOM     11  C   UNL     1      36.896 -21.817 -17.445  0.00  0.00    +0.030 C 
ATOM     12  C   UNL     1      34.856 -22.284 -18.653  0.00  0.00    +0.030 C 
ATOM     13  C   UNL     1      36.158 -21.784 -18.628  0.00  0.00    +0.140 C 
ENDBRANCH   3   8
BRANCH   4  15
ATOM     14  N   UNL     1      38.524 -26.493 -14.580  0.00  0.00    -0.242 NA
ATOM     15  C   UNL     1      36.113 -25.088 -14.353  0.00  0.00    +0.006 C 
ATOM     16  C   UNL     1      37.235 -24.676 -13.639  0.00  0.00    +0.021 C 
ATOM     17  C   UNL     1      36.199 -26.204 -15.181  0.00  0.00    +0.021 C 
ATOM     18  C   UNL     1      38.405 -25.406 -13.785  0.00  0.00    +0.099 C 
ATOM     19  C   UNL     1      37.414 -26.865 -15.259  0.00  0.00    +0.099 C 
ENDBRANCH   4  15
TORSDOF 2
ENDMDL
MODEL 4
REMARK VINA RESULT:      -8.7      7.593     10.880
REMARK  Name = 12106168
REMARK  2 active torsions:
REMARK  status: ('A' for Active; 'I' for Inactive)
REMARK    1  A    between atoms: C_3  and  C_8
REMARK    2  A    between atoms: C_4  and  C_15
REMARK                            x       y       z     vdW  Elec       q    Type
REMARK                         _______ _______ _______ _____ _____    ______ ____
ROOT
ATOM      1  N   UNL     1      33.224 -22.993 -14.639  0.00  0.00    -0.236 N 
ATOM      2  N   UNL     1      32.849 -23.612 -13.506  0.00  0.00    -0.180 NA
ATOM      3  C   UNL     1      34.435 -23.402 -15.114  0.00  0.00    +0.066 C 
ATOM      4  C   UNL     1      34.883 -24.355 -14.232  0.00  0.00    +0.036 C 
ATOM      5  C   UNL     1      33.866 -24.443 -13.262  0.00  0.00    +0.119 C 
ATOM      6  H   UNL     1      32.675 -22.308 -15.084  0.00  0.00    +0.174 HD
ENDROOT
BRANCH   3   8
ATOM      7  F   UNL     1      36.657 -21.292 -19.768  0.00  0.00    -0.204 F 
ATOM      8  C   UNL     1      35.010 -22.856 -16.319  0.00  0.00    +0.015 C 
ATOM      9  C   UNL     1      34.265 -22.827 -17.498  0.00  0.00    +0.004 C 
ATOM     10  C   UNL     1      36.313 -22.356 -16.306  0.00  0.00    +0.004 C 
ATOM     11  C   UNL     1      34.821 -22.299 -18.663  0.00  0.00    +0.030 C 
ATOM     12  C   UNL     1      36.869 -21.828 -17.471  0.00  0.00    +0.030 C 
ATOM     13  C   UNL     1      36.123 -21.800 -18.649  0.00  0.00    +0.140 C 
ENDBRANCH   3   8
BRANCH   4  15
ATOM     14  N   UNL     1      38.551 -26.440 -14.555  0.00  0.00    -0.242 NA
ATOM     15  C   UNL     1      36.124 -25.060 -14.342  0.00  0.00    +0.006 C 
ATOM     16  C   UNL     1      36.228 -26.172 -15.173  0.00  0.00    +0.021 C 
ATOM     17  C   UNL     1      37.237 -24.639 -13.618  0.00  0.00    +0.021 C 
ATOM     18  C   UNL     1      37.452 -26.820 -15.244  0.00  0.00    +0.099 C 
ATOM     19  C   UNL     1      38.414 -25.356 -13.758  0.00  0.00    +0.099 C 
ENDBRANCH   4  15
TORSDOF 2
ENDMDL
MODEL 5
REMARK VINA RESULT:      -8.6      4.785      7.038
REMARK  Name = 12106168
REMARK  2 active torsions:
REMARK  status: ('A' for Active; 'I' for Inactive)
REMARK    1  A    between atoms: C_3  and  C_8
REMARK    2  A    between atoms: C_4  and  C_15
REMARK                            x       y       z     vdW  Elec       q    Type
REMARK                         _______ _______ _______ _____ _____    ______ ____
ROOT
ATOM      1  N   UNL     1      33.436 -12.987 -26.814  0.00  0.00    -0.236 N 
ATOM      2  N   UNL     1      33.115 -14.259 -27.105  0.00  0.00    -0.180 NA
ATOM      3  C   UNL     1      33.593 -12.750 -25.480  0.00  0.00    +0.066 C 
ATOM      4  C   UNL     1      33.359 -13.951 -24.855  0.00  0.00    +0.036 C 
ATOM      5  C   UNL     1      33.070 -14.843 -25.905  0.00  0.00    +0.119 C 
ATOM      6  H   UNL     1      33.547 -12.290 -27.501  0.00  0.00    +0.174 HD
ENDROOT
BRANCH   3   8
ATOM      7  F   UNL     1      34.925  -7.714 -23.504  0.00  0.00    -0.204 F 
ATOM      8  C   UNL     1      33.938 -11.446 -24.968  0.00  0.00    +0.015 C 
ATOM      9  C   UNL     1      33.168 -10.866 -23.960  0.00  0.00    +0.004 C 
ATOM     10  C   UNL     1      35.042 -10.764 -25.482  0.00  0.00    +0.004 C 
ATOM     11  C   UNL     1      33.501  -9.605 -23.465  0.00  0.00    +0.030 C 
ATOM     12  C   UNL     1      35.375  -9.503 -24.987  0.00  0.00    +0.030 C 
ATOM     13  C   UNL     1      34.605  -8.925 -23.979  0.00  0.00    +0.140 C 
ENDBRANCH   3   8
BRANCH   4  15
ATOM     14  N   UNL     1      33.527 -14.593 -20.676  0.00  0.00    -0.242 NA
ATOM     15  C   UNL     1      33.416 -14.167 -23.441  0.00  0.00    +0.006 C 
ATOM     16  C   UNL     1      34.523 -14.792 -22.871  0.00  0.00    +0.021 C 
ATOM     17  C   UNL     1      32.366 -13.755 -22.625  0.00  0.00    +0.021 C 
ATOM     18  C   UNL     1      34.529 -14.979 -21.498  0.00  0.00    +0.099 C 
ATOM     19  C   UNL     1      32.469 -13.989 -21.264  0.00  0.00    +0.099 C 
ENDBRANCH   4  15
TORSDOF 2
ENDMDL
MODEL 6
REMARK VINA RESULT:      -8.4      7.830     10.417
REMARK  Name = 12106168
REMARK  2 active torsions:
REMARK  status: ('A' for Active; 'I' for Inactive)
REMARK    1  A    between atoms: C_3  and  C_8
REMARK    2  A    between atoms: C_4  and  C_15
REMARK                            x       y       z     vdW  Elec       q    Type
REMARK                         _______ _______ _______ _____ _____    ______ ____
ROOT
ATOM      1  N   UNL     1      33.810 -24.666 -13.244  0.00  0.00    -0.236 N 
ATOM      2  N   UNL     1      32.596 -24.136 -13.476  0.00  0.00    -0.180 NA
ATOM      3  C   UNL     1      34.735 -24.363 -14.199  0.00  0.00    +0.066 C 
ATOM      4  C   UNL     1      34.082 -23.581 -15.120  0.00  0.00    +0.036 C 
ATOM      5  C   UNL     1      32.769 -23.475 -14.624  0.00  0.00    +0.119 C 
ATOM      6  H   UNL     1      34.012 -25.221 -12.456  0.00  0.00    +0.174 HD
ENDROOT
BRANCH   3   8
ATOM      7  F   UNL     1      39.988 -26.199 -13.922  0.00  0.00    -0.204 F 
ATOM      8  C   UNL     1      36.095 -24.839 -14.127  0.00  0.00    +0.015 C 
ATOM      9  C   UNL     1      37.001 -24.232 -13.257  0.00  0.00    +0.004 C 
ATOM     10  C   UNL     1      36.505 -25.905 -14.928  0.00  0.00    +0.004 C 
ATOM     11  C   UNL     1      38.316 -24.691 -13.188  0.00  0.00    +0.030 C 
ATOM     12  C   UNL     1      37.820 -26.365 -14.858  0.00  0.00    +0.030 C 
ATOM     13  C   UNL     1      38.725 -25.758 -13.988  0.00  0.00    +0.140 C 
ENDBRANCH   3   8
BRANCH   4  15
ATOM     14  N   UNL     1      35.835 -21.957 -18.612  0.00  0.00    -0.242 NA
ATOM     15  C   UNL     1      34.675 -23.033 -16.302  0.00  0.00    +0.006 C 
ATOM     16  C   UNL     1      35.966 -22.512 -16.262  0.00  0.00    +0.021 C 
ATOM     17  C   UNL     1      33.965 -23.014 -17.500  0.00  0.00    +0.021 C 
ATOM     18  C   UNL     1      36.495 -21.992 -17.433  0.00  0.00    +0.099 C 
ATOM     19  C   UNL     1      34.584 -22.471 -18.615  0.00  0.00    +0.099 C 
ENDBRANCH   4  15
TORSDOF 2
ENDMDL
MODEL 7
REMARK VINA RESULT:      -8.2      3.750      5.116
REMARK  Name = 12106168
REMARK  2 active torsions:
REMARK  status: ('A' for Active; 'I' for Inactive)
REMARK    1  A    between atoms: C_3  and  C_8
REMARK    2  A    between atoms: C_4  and  C_15
REMARK                            x       y       z     vdW  Elec       q    Type
REMARK                         _______ _______ _______ _____ _____    ______ ____
ROOT
ATOM      1  N   UNL     1      33.182 -14.855 -26.096  0.00  0.00    -0.236 N 
ATOM      2  N   UNL     1      33.188 -14.341 -27.338  0.00  0.00    -0.180 NA
ATOM      3  C   UNL     1      33.435 -13.938 -25.118  0.00  0.00    +0.066 C 
ATOM      4  C   UNL     1      33.619 -12.740 -25.766  0.00  0.00    +0.036 C 
ATOM      5  C   UNL     1      33.456 -13.049 -27.130  0.00  0.00    +0.119 C 
ATOM      6  H   UNL     1      33.011 -15.806 -25.909  0.00  0.00    +0.174 HD
ENDROOT
BRANCH   3   8
ATOM      7  F   UNL     1      33.573 -15.322 -19.723  0.00  0.00    -0.204 F 
ATOM      8  C   UNL     1      33.471 -14.296 -23.722  0.00  0.00    +0.015 C 
ATOM      9  C   UNL     1      34.563 -14.996 -23.208  0.00  0.00    +0.004 C 
ATOM     10  C   UNL     1      32.413 -13.943 -22.883  0.00  0.00    +0.004 C 
ATOM     11  C   UNL     1      34.598 -15.342 -21.858  0.00  0.00    +0.030 C 
ATOM     12  C   UNL     1      32.448 -14.290 -21.533  0.00  0.00    +0.030 C 
ATOM     13  C   UNL     1      33.540 -14.989 -21.021  0.00  0.00    +0.140 C 
ENDBRANCH   3   8
BRANCH   4  15
ATOM     14  N   UNL     1      34.480  -9.057 -23.870  0.00  0.00    -0.242 NA
ATOM     15  C   UNL     1      33.911 -11.494 -25.124  0.00  0.00    +0.006 C 
ATOM     16  C   UNL     1      33.070 -11.004 -24.128  0.00  0.00    +0.021 C 
ATOM     17  C   UNL     1      35.038 -10.763 -25.491  0.00  0.00    +0.021 C 
ATOM     18  C   UNL     1      33.396  -9.793 -23.538  0.00  0.00    +0.099 C 
ATOM     19  C   UNL     1      35.275  -9.563 -24.841  0.00  0.00    +0.099 C 
ENDBRANCH   4  15
TORSDOF 2
ENDMDL
MODEL 8
REMARK VINA RESULT:      -8.0      7.071      8.681
REMARK  Name = 12106168
REMARK  2 active torsions:
REMARK  status: ('A' for Active; 'I' for Inactive)
REMARK    1  A    between atoms: C_3  and  C_8
REMARK    2  A    between atoms: C_4  and  C_15
REMARK                            x       y       z     vdW  Elec       q    Type
REMARK                         _______ _______ _______ _____ _____    ______ ____
ROOT
ATOM      1  N   UNL     1      32.244 -12.202 -22.204  0.00  0.00    -0.236 N 
ATOM      2  N   UNL     1      31.355 -12.142 -21.198  0.00  0.00    -0.180 NA
ATOM      3  C   UNL     1      32.518 -10.992 -22.770  0.00  0.00    +0.066 C 
ATOM      4  C   UNL     1      31.755 -10.076 -22.087  0.00  0.00    +0.036 C 
ATOM      5  C   UNL     1      31.060 -10.842 -21.131  0.00  0.00    +0.119 C 
ATOM      6  H   UNL     1      32.660 -13.043 -22.505  0.00  0.00    +0.174 HD
ENDROOT
BRANCH   3   8
ATOM      7  F   UNL     1      36.106 -10.441 -26.997  0.00  0.00    -0.204 F 
ATOM      8  C   UNL     1      33.447 -10.849 -23.864  0.00  0.00    +0.015 C 
ATOM      9  C   UNL     1      34.349  -9.785 -23.880  0.00  0.00    +0.004 C 
ATOM     10  C   UNL     1      33.444 -11.775 -24.908  0.00  0.00    +0.004 C 
ATOM     11  C   UNL     1      35.247  -9.647 -24.938  0.00  0.00    +0.030 C 
ATOM     12  C   UNL     1      34.342 -11.637 -25.966  0.00  0.00    +0.030 C 
ATOM     13  C   UNL     1      35.243 -10.574 -25.981  0.00  0.00    +0.140 C 
ENDBRANCH   3   8
BRANCH   4  15
ATOM     14  N   UNL     1      31.671  -5.917 -22.859  0.00  0.00    -0.242 NA
ATOM     15  C   UNL     1      31.727  -8.669 -22.348  0.00  0.00    +0.006 C 
ATOM     16  C   UNL     1      32.351  -7.781 -21.476  0.00  0.00    +0.021 C 
ATOM     17  C   UNL     1      31.076  -8.178 -23.477  0.00  0.00    +0.021 C 
ATOM     18  C   UNL     1      32.295  -6.428 -21.773  0.00  0.00    +0.099 C 
ATOM     19  C   UNL     1      31.077  -6.809 -23.685  0.00  0.00    +0.099 C 
ENDBRANCH   4  15
TORSDOF 2
ENDMDL
MODEL 9
REMARK VINA RESULT:      -8.0      7.489      9.963
REMARK  Name = 12106168
REMARK  2 active torsions:
REMARK  status: ('A' for Active; 'I' for Inactive)
REMARK    1  A    between atoms: C_3  and  C_8
REMARK    2  A    between atoms: C_4  and  C_15
REMARK                            x       y       z     vdW  Elec       q    Type
REMARK                         _______ _______ _______ _____ _____    ______ ____
ROOT
ATOM      1  N   UNL     1      32.131 -22.623 -17.979  0.00  0.00    -0.236 N 
ATOM      2  N   UNL     1      32.978 -22.289 -18.968  0.00  0.00    -0.180 NA
ATOM      3  C   UNL     1      32.751 -23.064 -16.848  0.00  0.00    +0.066 C 
ATOM      4  C   UNL     1      34.098 -23.016 -17.115  0.00  0.00    +0.036 C 
ATOM      5  C   UNL     1      34.178 -22.532 -18.434  0.00  0.00    +0.119 C 
ATOM      6  H   UNL     1      31.152 -22.554 -18.064  0.00  0.00    +0.174 HD
ENDROOT
BRANCH   3   8
ATOM      7  F   UNL     1      29.901 -24.628 -12.324  0.00  0.00    -0.204 F 
ATOM      8  C   UNL     1      32.013 -23.469 -15.677  0.00  0.00    +0.015 C 
ATOM      9  C   UNL     1      32.171 -22.774 -14.477  0.00  0.00    +0.004 C 
ATOM     10  C   UNL     1      31.141 -24.556 -15.742  0.00  0.00    +0.004 C 
ATOM     11  C   UNL     1      31.458 -23.165 -13.345  0.00  0.00    +0.030 C 
ATOM     12  C   UNL     1      30.427 -24.947 -14.610  0.00  0.00    +0.030 C 
ATOM     13  C   UNL     1      30.586 -24.252 -13.411  0.00  0.00    +0.140 C 
ENDBRANCH   3   8
BRANCH   4  15
ATOM     14  N   UNL     1      37.156 -24.132 -14.412  0.00  0.00    -0.242 NA
ATOM     15  C   UNL     1      35.132 -23.393 -16.200  0.00  0.00    +0.006 C 
ATOM     16  C   UNL     1      36.218 -22.549 -15.982  0.00  0.00    +0.021 C 
ATOM     17  C   UNL     1      35.060 -24.607 -15.521  0.00  0.00    +0.021 C 
ATOM     18  C   UNL     1      37.193 -22.961 -15.087  0.00  0.00    +0.099 C 
ATOM     19  C   UNL     1      36.087 -24.926 -14.647  0.00  0.00    +0.099 C 
ENDBRANCH   4  15
TORSDOF 2
ENDMDL
