MODEL 1
REMARK VINA RESULT:      -9.6      0.000      0.000
REMARK  Name = 108059
REMARK  3 active torsions:
REMARK  status: ('A' for Active; 'I' for Inactive)
REMARK    1  A    between atoms: C_6  and  C_22
REMARK    2  A    between atoms: C_6  and  O_24
REMARK    3  A    between atoms: O_24  and  C_26
REMARK                            x       y       z     vdW  Elec       q    Type
REMARK                         _______ _______ _______ _____ _____    ______ ____
ROOT
ATOM      1  O   UNL     1      27.785 -22.008 -15.913  0.00  0.00    -0.291 OA
ATOM      2  C   UNL     1      35.662 -24.592 -14.205  0.00  0.00    +0.044 C 
ATOM      3  C   UNL     1      35.285 -23.504 -15.246  0.00  0.00    +0.008 C 
ATOM      4  C   UNL     1      33.911 -23.733 -15.885  0.00  0.00    +0.001 C 
ATOM      5  C   UNL     1      32.825 -23.739 -14.771  0.00  0.00    +0.004 C 
ATOM      6  C   UNL     1      37.103 -24.126 -13.835  0.00  0.00    +0.201 C 
ATOM      7  C   UNL     1      34.609 -24.535 -13.086  0.00  0.00    +0.004 C 
ATOM      8  C   UNL     1      33.180 -24.721 -13.626  0.00  0.00    +0.000 C 
ATOM      9  C   UNL     1      36.508 -23.443 -16.160  0.00  0.00    +0.026 C 
ATOM     10  C   UNL     1      31.409 -24.003 -15.369  0.00  0.00    +0.019 C 
ATOM     11  C   UNL     1      33.578 -22.658 -16.929  0.00  0.00    +0.004 C 
ATOM     12  C   UNL     1      37.645 -23.671 -15.183  0.00  0.00    -0.002 C 
ATOM     13  C   UNL     1      35.691 -26.027 -14.811  0.00  0.00    +0.004 C 
ATOM     14  C   UNL     1      32.218 -22.927 -17.564  0.00  0.00    +0.022 C 
ATOM     15  C   UNL     1      31.122 -23.068 -16.536  0.00  0.00    -0.042 C 
ATOM     16  C   UNL     1      30.331 -23.895 -14.270  0.00  0.00    +0.012 C 
ATOM     17  C   UNL     1      28.924 -23.821 -14.837  0.00  0.00    +0.069 C 
ATOM     18  C   UNL     1      29.960 -22.419 -16.706  0.00  0.00    +0.029 C 
ATOM     19  C   UNL     1      38.927 -23.454 -15.508  0.00  0.00    -0.005 C 
ATOM     20  C   UNL     1      28.814 -22.671 -15.804  0.00  0.00    +0.173 C 
ENDROOT
BRANCH   6  22
ATOM     21  O   UNL     1      37.528 -25.806 -12.186  0.00  0.00    -0.292 OA
ATOM     22  C   UNL     1      37.946 -25.169 -13.153  0.00  0.00    +0.191 C 
ATOM     23  C   UNL     1      39.324 -25.398 -13.711  0.00  0.00    +0.076 C 
ENDBRANCH   6  22
BRANCH   6  24
ATOM     24  O   UNL     1      37.103 -23.001 -12.965  0.00  0.00    -0.445 OA
BRANCH  24  26
ATOM     25  O   UNL     1      38.985 -23.135 -11.632  0.00  0.00    -0.250 OA
ATOM     26  C   UNL     1      37.771 -23.162 -11.782  0.00  0.00    +0.318 C 
ATOM     27  C   UNL     1      36.794 -23.381 -10.668  0.00  0.00    +0.121 C 
ENDBRANCH  24  26
ENDBRANCH   6  24
TORSDOF 3
ENDMDL
MODEL 2
REMARK VINA RESULT:      -8.8      2.758      3.952
REMARK  Name = 108059
REMARK  3 active torsions:
REMARK  status: ('A' for Active; 'I' for Inactive)
REMARK    1  A    between atoms: C_6  and  C_22
REMARK    2  A    between atoms: C_6  and  O_24
REMARK    3  A    between atoms: O_24  and  C_26
REMARK                            x       y       z     vdW  Elec       q    Type
REMARK                         _______ _______ _______ _____ _____    ______ ____
ROOT
ATOM      1  O   UNL     1      33.415 -19.025 -21.303  0.00  0.00    -0.291 OA
ATOM      2  C   UNL     1      35.822 -24.100 -14.971  0.00  0.00    +0.044 C 
ATOM      3  C   UNL     1      36.733 -23.062 -15.680  0.00  0.00    +0.008 C 
ATOM      4  C   UNL     1      36.364 -22.841 -17.150  0.00  0.00    +0.001 C 
ATOM      5  C   UNL     1      34.894 -22.339 -17.237  0.00  0.00    +0.004 C 
ATOM      6  C   UNL     1      36.507 -24.153 -13.572  0.00  0.00    +0.201 C 
ATOM      7  C   UNL     1      34.386 -23.551 -15.017  0.00  0.00    +0.004 C 
ATOM      8  C   UNL     1      33.923 -23.260 -16.456  0.00  0.00    +0.000 C 
ATOM      9  C   UNL     1      38.146 -23.542 -15.352  0.00  0.00    +0.026 C 
ATOM     10  C   UNL     1      34.458 -22.132 -18.721  0.00  0.00    +0.019 C 
ATOM     11  C   UNL     1      37.298 -21.831 -17.831  0.00  0.00    +0.004 C 
ATOM     12  C   UNL     1      37.982 -24.065 -13.937  0.00  0.00    -0.002 C 
ATOM     13  C   UNL     1      35.858 -25.502 -15.651  0.00  0.00    +0.004 C 
ATOM     14  C   UNL     1      36.922 -21.652 -19.297  0.00  0.00    +0.022 C 
ATOM     15  C   UNL     1      35.470 -21.280 -19.476  0.00  0.00    -0.042 C 
ATOM     16  C   UNL     1      33.039 -21.528 -18.786  0.00  0.00    +0.012 C 
ATOM     17  C   UNL     1      32.689 -21.008 -20.169  0.00  0.00    +0.069 C 
ATOM     18  C   UNL     1      35.135 -20.275 -20.299  0.00  0.00    +0.029 C 
ATOM     19  C   UNL     1      39.029 -24.362 -13.155  0.00  0.00    -0.005 C 
ATOM     20  C   UNL     1      33.715 -20.001 -20.620  0.00  0.00    +0.173 C 
ENDROOT
BRANCH   6  22
ATOM     21  O   UNL     1      35.118 -25.393 -12.069  0.00  0.00    -0.292 OA
ATOM     22  C   UNL     1      36.149 -25.355 -12.741  0.00  0.00    +0.191 C 
ATOM     23  C   UNL     1      37.111 -26.512 -12.773  0.00  0.00    +0.076 C 
ENDBRANCH   6  22
BRANCH   6  24
ATOM     24  O   UNL     1      36.191 -23.022 -12.770  0.00  0.00    -0.445 OA
BRANCH  24  26
ATOM     25  O   UNL     1      38.100 -22.016 -11.945  0.00  0.00    -0.250 OA
ATOM     26  C   UNL     1      37.100 -22.706 -11.798  0.00  0.00    +0.318 C 
ATOM     27  C   UNL     1      36.700 -23.335 -10.499  0.00  0.00    +0.121 C 
ENDBRANCH  24  26
ENDBRANCH   6  24
TORSDOF 3
ENDMDL
MODEL 3
REMARK VINA RESULT:      -8.0      5.521      8.236
REMARK  Name = 108059
REMARK  3 active torsions:
REMARK  status: ('A' for Active; 'I' for Inactive)
REMARK    1  A    between atoms: C_6  and  C_22
REMARK    2  A    between atoms: C_6  and  O_24
REMARK    3  A    between atoms: O_24  and  C_26
REMARK                            x       y       z     vdW  Elec       q    Type
REMARK                         _______ _______ _______ _____ _____    ______ ____
ROOT
ATOM      1  O   UNL     1      34.591 -24.108 -12.994  0.00  0.00    -0.291 OA
ATOM      2  C   UNL     1      35.716 -20.352 -20.495  0.00  0.00    +0.044 C 
ATOM      3  C   UNL     1      34.345 -20.568 -19.801  0.00  0.00    +0.008 C 
ATOM      4  C   UNL     1      34.303 -21.827 -18.929  0.00  0.00    +0.001 C 
ATOM      5  C   UNL     1      35.396 -21.720 -17.826  0.00  0.00    +0.004 C 
ATOM      6  C   UNL     1      35.393 -19.087 -21.347  0.00  0.00    +0.201 C 
ATOM      7  C   UNL     1      36.767 -20.187 -19.385  0.00  0.00    +0.004 C 
ATOM      8  C   UNL     1      36.787 -21.390 -18.424  0.00  0.00    +0.000 C 
ATOM      9  C   UNL     1      33.340 -20.447 -20.947  0.00  0.00    +0.026 C 
ATOM     10  C   UNL     1      35.417 -22.996 -16.930  0.00  0.00    +0.019 C 
ATOM     11  C   UNL     1      32.927 -22.029 -18.279  0.00  0.00    +0.004 C 
ATOM     12  C   UNL     1      33.970 -19.369 -21.807  0.00  0.00    -0.002 C 
ATOM     13  C   UNL     1      36.124 -21.541 -21.416  0.00  0.00    +0.004 C 
ATOM     14  C   UNL     1      32.910 -23.300 -17.438  0.00  0.00    +0.022 C 
ATOM     15  C   UNL     1      34.022 -23.330 -16.417  0.00  0.00    -0.042 C 
ATOM     16  C   UNL     1      36.426 -22.827 -15.775  0.00  0.00    +0.012 C 
ATOM     17  C   UNL     1      36.262 -23.884 -14.697  0.00  0.00    +0.069 C 
ATOM     18  C   UNL     1      33.754 -23.678 -15.149  0.00  0.00    +0.029 C 
ATOM     19  C   UNL     1      33.306 -18.762 -22.800  0.00  0.00    -0.005 C 
ATOM     20  C   UNL     1      34.850 -23.876 -14.173  0.00  0.00    +0.173 C 
ENDROOT
BRANCH   6  22
ATOM     21  O   UNL     1      35.991 -18.747 -23.639  0.00  0.00    -0.292 OA
ATOM     22  C   UNL     1      36.362 -18.819 -22.468  0.00  0.00    +0.191 C 
ATOM     23  C   UNL     1      37.807 -18.640 -22.086  0.00  0.00    +0.076 C 
ENDBRANCH   6  22
BRANCH   6  24
ATOM     24  O   UNL     1      35.370 -17.899 -20.566  0.00  0.00    -0.445 OA
BRANCH  24  26
ATOM     25  O   UNL     1      35.281 -16.265 -22.198  0.00  0.00    -0.250 OA
ATOM     26  C   UNL     1      34.851 -16.791 -21.180  0.00  0.00    +0.318 C 
ATOM     27  C   UNL     1      33.658 -16.297 -20.421  0.00  0.00    +0.121 C 
ENDBRANCH  24  26
ENDBRANCH   6  24
TORSDOF 3
ENDMDL
MODEL 4
REMARK VINA RESULT:      -7.8     12.874     15.785
REMARK  Name = 108059
REMARK  3 active torsions:
REMARK  status: ('A' for Active; 'I' for Inactive)
REMARK    1  A    between atoms: C_6  and  C_22
REMARK    2  A    between atoms: C_6  and  O_24
REMARK    3  A    between atoms: O_24  and  C_26
REMARK                            x       y       z     vdW  Elec       q    Type
REMARK                         _______ _______ _______ _____ _____    ______ ____
ROOT
ATOM      1  O   UNL     1      35.502 -18.276 -22.870  0.00  0.00    -0.291 OA
ATOM      2  C   UNL     1      32.123 -10.521 -22.549  0.00  0.00    +0.044 C 
ATOM      3  C   UNL     1      32.601 -11.339 -21.319  0.00  0.00    +0.008 C 
ATOM      4  C   UNL     1      32.460 -12.853 -21.511  0.00  0.00    +0.001 C 
ATOM      5  C   UNL     1      33.300 -13.292 -22.744  0.00  0.00    +0.004 C 
ATOM      6  C   UNL     1      32.308  -9.074 -22.000  0.00  0.00    +0.201 C 
ATOM      7  C   UNL     1      33.010 -10.928 -23.738  0.00  0.00    +0.004 C 
ATOM      8  C   UNL     1      32.968 -12.445 -23.999  0.00  0.00    +0.000 C 
ATOM      9  C   UNL     1      31.869 -10.686 -20.147  0.00  0.00    +0.026 C 
ATOM     10  C   UNL     1      33.162 -14.823 -23.003  0.00  0.00    +0.019 C 
ATOM     11  C   UNL     1      32.913 -13.633 -20.269  0.00  0.00    +0.004 C 
ATOM     12  C   UNL     1      31.866  -9.224 -20.552  0.00  0.00    -0.002 C 
ATOM     13  C   UNL     1      30.630 -10.783 -22.908  0.00  0.00    +0.004 C 
ATOM     14  C   UNL     1      32.738 -15.133 -20.481  0.00  0.00    +0.022 C 
ATOM     15  C   UNL     1      33.426 -15.621 -21.732  0.00  0.00    -0.042 C 
ATOM     16  C   UNL     1      34.087 -15.261 -24.157  0.00  0.00    +0.012 C 
ATOM     17  C   UNL     1      34.240 -16.770 -24.243  0.00  0.00    +0.069 C 
ATOM     18  C   UNL     1      34.187 -16.726 -21.688  0.00  0.00    +0.029 C 
ATOM     19  C   UNL     1      31.541  -8.243 -19.699  0.00  0.00    -0.005 C 
ATOM     20  C   UNL     1      34.735 -17.317 -22.930  0.00  0.00    +0.173 C 
ENDROOT
BRANCH   6  22
ATOM     21  O   UNL     1      31.248  -8.166 -23.944  0.00  0.00    -0.292 OA
ATOM     22  C   UNL     1      31.564  -8.012 -22.765  0.00  0.00    +0.191 C 
ATOM     23  C   UNL     1      31.221  -6.753 -22.015  0.00  0.00    +0.076 C 
ENDBRANCH   6  22
BRANCH   6  24
ATOM     24  O   UNL     1      33.670  -8.664 -21.999  0.00  0.00    -0.445 OA
BRANCH  24  26
ATOM     25  O   UNL     1      33.840  -6.754 -23.288  0.00  0.00    -0.250 OA
ATOM     26  C   UNL     1      34.076  -7.938 -23.085  0.00  0.00    +0.318 C 
ATOM     27  C   UNL     1      34.865  -8.806 -24.015  0.00  0.00    +0.121 C 
ENDBRANCH  24  26
ENDBRANCH   6  24
TORSDOF 3
ENDMDL
MODEL 5
REMARK VINA RESULT:      -7.7      3.748      5.684
REMARK  Name = 108059
REMARK  3 active torsions:
REMARK  status: ('A' for Active; 'I' for Inactive)
REMARK    1  A    between atoms: C_6  and  C_22
REMARK    2  A    between atoms: C_6  and  O_24
REMARK    3  A    between atoms: O_24  and  C_26
REMARK                            x       y       z     vdW  Elec       q    Type
REMARK                         _______ _______ _______ _____ _____    ______ ____
ROOT
ATOM      1  O   UNL     1      35.274 -19.400 -23.490  0.00  0.00    -0.291 OA
ATOM      2  C   UNL     1      36.366 -22.806 -15.818  0.00  0.00    +0.044 C 
ATOM      3  C   UNL     1      35.251 -23.204 -16.822  0.00  0.00    +0.008 C 
ATOM      4  C   UNL     1      34.807 -22.044 -17.719  0.00  0.00    +0.001 C 
ATOM      5  C   UNL     1      36.031 -21.529 -18.530  0.00  0.00    +0.004 C 
ATOM      6  C   UNL     1      36.508 -24.141 -15.026  0.00  0.00    +0.201 C 
ATOM      7  C   UNL     1      37.584 -22.360 -16.645  0.00  0.00    +0.004 C 
ATOM      8  C   UNL     1      37.239 -21.214 -17.612  0.00  0.00    +0.000 C 
ATOM      9  C   UNL     1      34.202 -23.881 -15.941  0.00  0.00    +0.026 C 
ATOM     10  C   UNL     1      35.637 -20.322 -19.436  0.00  0.00    +0.019 C 
ATOM     11  C   UNL     1      33.685 -22.460 -18.680  0.00  0.00    +0.004 C 
ATOM     12  C   UNL     1      35.062 -24.604 -14.923  0.00  0.00    -0.002 C 
ATOM     13  C   UNL     1      35.941 -21.649 -14.866  0.00  0.00    +0.004 C 
ATOM     14  C   UNL     1      33.249 -21.280 -19.542  0.00  0.00    +0.022 C 
ATOM     15  C   UNL     1      34.405 -20.643 -20.273  0.00  0.00    -0.042 C 
ATOM     16  C   UNL     1      36.831 -19.896 -20.316  0.00  0.00    +0.012 C 
ATOM     17  C   UNL     1      36.425 -18.953 -21.435  0.00  0.00    +0.069 C 
ATOM     18  C   UNL     1      34.292 -20.355 -21.579  0.00  0.00    +0.029 C 
ATOM     19  C   UNL     1      34.568 -25.535 -14.095  0.00  0.00    -0.005 C 
ATOM     20  C   UNL     1      35.344 -19.582 -22.276  0.00  0.00    +0.173 C 
ENDROOT
BRANCH   6  22
ATOM     21  O   UNL     1      38.433 -23.886 -13.628  0.00  0.00    -0.292 OA
ATOM     22  C   UNL     1      37.212 -24.016 -13.702  0.00  0.00    +0.191 C 
ATOM     23  C   UNL     1      36.347 -24.052 -12.470  0.00  0.00    +0.076 C 
ENDBRANCH   6  22
BRANCH   6  24
ATOM     24  O   UNL     1      37.229 -25.129 -15.753  0.00  0.00    -0.445 OA
BRANCH  24  26
ATOM     25  O   UNL     1      36.146 -27.145 -16.069  0.00  0.00    -0.250 OA
ATOM     26  C   UNL     1      36.926 -26.429 -15.454  0.00  0.00    +0.318 C 
ATOM     27  C   UNL     1      37.694 -26.870 -14.247  0.00  0.00    +0.121 C 
ENDBRANCH  24  26
ENDBRANCH   6  24
TORSDOF 3
ENDMDL
MODEL 6
REMARK VINA RESULT:      -7.7      4.051      6.491
REMARK  Name = 108059
REMARK  3 active torsions:
REMARK  status: ('A' for Active; 'I' for Inactive)
REMARK    1  A    between atoms: C_6  and  C_22
REMARK    2  A    between atoms: C_6  and  O_24
REMARK    3  A    between atoms: O_24  and  C_26
REMARK                            x       y       z     vdW  Elec       q    Type
REMARK                         _______ _______ _______ _____ _____    ______ ____
ROOT
ATOM      1  O   UNL     1      36.011 -17.592 -22.473  0.00  0.00    -0.291 OA
ATOM      2  C   UNL     1      33.232 -23.343 -16.919  0.00  0.00    +0.044 C 
ATOM      3  C   UNL     1      34.583 -22.586 -16.820  0.00  0.00    +0.008 C 
ATOM      4  C   UNL     1      35.171 -22.222 -18.188  0.00  0.00    +0.001 C 
ATOM      5  C   UNL     1      34.161 -21.319 -18.953  0.00  0.00    +0.004 C 
ATOM      6  C   UNL     1      32.972 -23.634 -15.409  0.00  0.00    +0.201 C 
ATOM      7  C   UNL     1      32.236 -22.405 -17.623  0.00  0.00    +0.004 C 
ATOM      8  C   UNL     1      32.746 -21.949 -19.001  0.00  0.00    +0.000 C 
ATOM      9  C   UNL     1      35.416 -23.460 -15.883  0.00  0.00    +0.026 C 
ATOM     10  C   UNL     1      34.700 -20.948 -20.369  0.00  0.00    +0.019 C 
ATOM     11  C   UNL     1      36.519 -21.500 -18.059  0.00  0.00    +0.004 C 
ATOM     12  C   UNL     1      34.371 -23.959 -14.904  0.00  0.00    -0.002 C 
ATOM     13  C   UNL     1      33.339 -24.674 -17.721  0.00  0.00    +0.004 C 
ATOM     14  C   UNL     1      37.089 -21.174 -19.434  0.00  0.00    +0.022 C 
ATOM     15  C   UNL     1      36.118 -20.398 -20.290  0.00  0.00    -0.042 C 
ATOM     16  C   UNL     1      33.742 -19.963 -21.070  0.00  0.00    +0.012 C 
ATOM     17  C   UNL     1      34.360 -19.321 -22.299  0.00  0.00    +0.069 C 
ATOM     18  C   UNL     1      36.538 -19.313 -20.959  0.00  0.00    +0.029 C 
ATOM     19  C   UNL     1      34.695 -24.567 -13.755  0.00  0.00    -0.005 C 
ATOM     20  C   UNL     1      35.651 -18.635 -21.932  0.00  0.00    +0.173 C 
ENDROOT
BRANCH   6  22
ATOM     21  O   UNL     1      32.147 -25.587 -14.301  0.00  0.00    -0.292 OA
ATOM     22  C   UNL     1      31.954 -24.709 -15.142  0.00  0.00    +0.191 C 
ATOM     23  C   UNL     1      30.686 -24.658 -15.951  0.00  0.00    +0.076 C 
ENDBRANCH   6  22
BRANCH   6  24
ATOM     24  O   UNL     1      32.513 -22.486 -14.707  0.00  0.00    -0.445 OA
BRANCH  24  26
ATOM     25  O   UNL     1      31.697 -23.142 -12.647  0.00  0.00    -0.250 OA
ATOM     26  C   UNL     1      31.532 -22.707 -13.779  0.00  0.00    +0.318 C 
ATOM     27  C   UNL     1      30.197 -22.336 -14.348  0.00  0.00    +0.121 C 
ENDBRANCH  24  26
ENDBRANCH   6  24
TORSDOF 3
ENDMDL
MODEL 7
REMARK VINA RESULT:      -7.4     14.314     17.063
REMARK  Name = 108059
REMARK  3 active torsions:
REMARK  status: ('A' for Active; 'I' for Inactive)
REMARK    1  A    between atoms: C_6  and  C_22
REMARK    2  A    between atoms: C_6  and  O_24
REMARK    3  A    between atoms: O_24  and  C_26
REMARK                            x       y       z     vdW  Elec       q    Type
REMARK                         _______ _______ _______ _____ _____    ______ ____
ROOT
ATOM      1  O   UNL     1      34.449 -16.816 -21.868  0.00  0.00    -0.291 OA
ATOM      2  C   UNL     1      32.093  -8.770 -23.034  0.00  0.00    +0.044 C 
ATOM      3  C   UNL     1      32.365  -9.431 -21.656  0.00  0.00    +0.008 C 
ATOM      4  C   UNL     1      32.043 -10.928 -21.631  0.00  0.00    +0.001 C 
ATOM      5  C   UNL     1      32.911 -11.654 -22.700  0.00  0.00    +0.004 C 
ATOM      6  C   UNL     1      32.422  -7.285 -22.693  0.00  0.00    +0.201 C 
ATOM      7  C   UNL     1      33.006  -9.463 -24.059  0.00  0.00    +0.004 C 
ATOM      8  C   UNL     1      32.788 -10.986 -24.093  0.00  0.00    +0.000 C 
ATOM      9  C   UNL     1      31.638  -8.517 -20.670  0.00  0.00    +0.026 C 
ATOM     10  C   UNL     1      32.594 -13.181 -22.738  0.00  0.00    +0.019 C 
ATOM     11  C   UNL     1      32.296 -11.547 -20.250  0.00  0.00    +0.004 C 
ATOM     12  C   UNL     1      31.856  -7.149 -21.287  0.00  0.00    -0.002 C 
ATOM     13  C   UNL     1      30.609  -8.911 -23.490  0.00  0.00    +0.004 C 
ATOM     14  C   UNL     1      31.944 -13.030 -20.251  0.00  0.00    +0.022 C 
ATOM     15  C   UNL     1      32.656 -13.790 -21.343  0.00  0.00    -0.042 C 
ATOM     16  C   UNL     1      33.540 -13.903 -23.721  0.00  0.00    +0.012 C 
ATOM     17  C   UNL     1      33.501 -15.413 -23.565  0.00  0.00    +0.069 C 
ATOM     18  C   UNL     1      33.261 -14.954 -21.062  0.00  0.00    +0.029 C 
ATOM     19  C   UNL     1      31.597  -6.013 -20.626  0.00  0.00    -0.005 C 
ATOM     20  C   UNL     1      33.820 -15.797 -22.143  0.00  0.00    +0.173 C 
ENDROOT
BRANCH   6  22
ATOM     21  O   UNL     1      31.400  -6.625 -24.754  0.00  0.00    -0.292 OA
ATOM     22  C   UNL     1      31.882  -6.280 -23.675  0.00  0.00    +0.191 C 
ATOM     23  C   UNL     1      31.957  -4.832 -23.273  0.00  0.00    +0.076 C 
ENDBRANCH   6  22
BRANCH   6  24
ATOM     24  O   UNL     1      33.821  -7.042 -22.624  0.00  0.00    -0.445 OA
BRANCH  24  26
ATOM     25  O   UNL     1      35.160  -8.637 -23.625  0.00  0.00    -0.250 OA
ATOM     26  C   UNL     1      34.569  -7.565 -23.643  0.00  0.00    +0.318 C 
ATOM     27  C   UNL     1      34.569  -6.627 -24.811  0.00  0.00    +0.121 C 
ENDBRANCH  24  26
ENDBRANCH   6  24
TORSDOF 3
ENDMDL
