MODEL 1
REMARK VINA RESULT:      -7.0      0.000      0.000
REMARK  Name = 7127816
REMARK  2 active torsions:
REMARK  status: ('A' for Active; 'I' for Inactive)
REMARK    1  A    between atoms: C_9  and  C_13
REMARK    2  A    between atoms: C_13  and  N_14
REMARK                            x       y       z     vdW  Elec       q    Type
REMARK                         _______ _______ _______ _____ _____    ______ ____
ROOT
ATOM      1  N   UNL     1      33.427 -14.531 -22.191  0.00  0.00    -0.303 N 
ATOM      2  N   UNL     1      33.301 -14.647 -25.020  0.00  0.00    -0.303 N 
ATOM      3  C   UNL     1      32.517 -13.667 -22.933  0.00  0.00    +0.112 C 
ATOM      4  C   UNL     1      33.082 -13.391 -24.315  0.00  0.00    +0.112 C 
ATOM      5  C   UNL     1      33.968 -15.625 -22.875  0.00  0.00    +0.061 C 
ATOM      6  C   UNL     1      33.898 -15.687 -24.299  0.00  0.00    +0.061 C 
ATOM      7  C   UNL     1      34.603 -16.683 -22.188  0.00  0.00    +0.009 C 
ATOM      8  C   UNL     1      34.432 -16.822 -24.948  0.00  0.00    +0.015 C 
ATOM      9  C   UNL     1      35.131 -17.784 -22.860  0.00  0.00    -0.043 C 
ATOM     10  C   UNL     1      33.418 -14.459 -20.739  0.00  0.00    +0.112 C 
ATOM     11  C   UNL     1      33.263 -14.638 -26.473  0.00  0.00    +0.112 C 
ATOM     12  C   UNL     1      35.041 -17.856 -24.240  0.00  0.00    -0.005 C 
ENDROOT
BRANCH   9  13
ATOM     13  C   UNL     1      35.788 -18.883 -22.095  0.00  0.00    -0.059 C 
BRANCH  13  14
ATOM     14  N   UNL     1      35.932 -18.567 -20.696  0.00  0.00    +0.383 N 
ATOM     15  H   UNL     1      35.665 -17.596 -20.538  0.00  0.00    -0.089 HD
ATOM     16  H   UNL     1      36.903 -18.703 -20.416  0.00  0.00    -0.089 HD
ATOM     17  H   UNL     1      35.330 -19.180 -20.145  0.00  0.00    -0.089 HD
ENDBRANCH  13  14
ENDBRANCH   9  13
TORSDOF 2
ENDMDL
MODEL 2
REMARK VINA RESULT:      -7.0      1.701      5.044
REMARK  Name = 7127816
REMARK  2 active torsions:
REMARK  status: ('A' for Active; 'I' for Inactive)
REMARK    1  A    between atoms: C_9  and  C_13
REMARK    2  A    between atoms: C_13  and  N_14
REMARK                            x       y       z     vdW  Elec       q    Type
REMARK                         _______ _______ _______ _____ _____    ______ ____
ROOT
ATOM      1  N   UNL     1      33.580 -14.977 -24.445  0.00  0.00    -0.303 N 
ATOM      2  N   UNL     1      34.583 -16.691 -22.424  0.00  0.00    -0.303 N 
ATOM      3  C   UNL     1      34.056 -16.315 -24.771  0.00  0.00    +0.112 C 
ATOM      4  C   UNL     1      35.122 -16.739 -23.776  0.00  0.00    +0.112 C 
ATOM      5  C   UNL     1      33.321 -14.702 -23.097  0.00  0.00    +0.061 C 
ATOM      6  C   UNL     1      33.820 -15.570 -22.080  0.00  0.00    +0.061 C 
ATOM      7  C   UNL     1      32.579 -13.567 -22.707  0.00  0.00    +0.009 C 
ATOM      8  C   UNL     1      33.513 -15.272 -20.734  0.00  0.00    +0.015 C 
ATOM      9  C   UNL     1      32.304 -13.293 -21.367  0.00  0.00    -0.043 C 
ATOM     10  C   UNL     1      33.036 -14.157 -25.516  0.00  0.00    +0.112 C 
ATOM     11  C   UNL     1      35.163 -17.567 -21.418  0.00  0.00    +0.112 C 
ATOM     12  C   UNL     1      32.767 -14.149 -20.382  0.00  0.00    -0.005 C 
ENDROOT
BRANCH   9  13
ATOM     13  C   UNL     1      31.510 -12.086 -20.998  0.00  0.00    -0.059 C 
BRANCH  13  14
ATOM     14  N   UNL     1      30.785 -11.542 -22.119  0.00  0.00    +0.383 N 
ATOM     15  H   UNL     1      29.830 -11.327 -21.834  0.00  0.00    -0.089 HD
ATOM     16  H   UNL     1      30.768 -12.227 -22.875  0.00  0.00    -0.089 HD
ATOM     17  H   UNL     1      31.244 -10.691 -22.441  0.00  0.00    -0.089 HD
ENDBRANCH  13  14
ENDBRANCH   9  13
TORSDOF 2
ENDMDL
MODEL 3
REMARK VINA RESULT:      -6.9      4.674      7.401
REMARK  Name = 7127816
REMARK  2 active torsions:
REMARK  status: ('A' for Active; 'I' for Inactive)
REMARK    1  A    between atoms: C_9  and  C_13
REMARK    2  A    between atoms: C_13  and  N_14
REMARK                            x       y       z     vdW  Elec       q    Type
REMARK                         _______ _______ _______ _____ _____    ______ ____
ROOT
ATOM      1  N   UNL     1      32.675 -11.511 -23.107  0.00  0.00    -0.303 N 
ATOM      2  N   UNL     1      34.645 -10.664 -24.959  0.00  0.00    -0.303 N 
ATOM      3  C   UNL     1      33.468 -12.484 -23.849  0.00  0.00    +0.112 C 
ATOM      4  C   UNL     1      33.893 -11.891 -25.181  0.00  0.00    +0.112 C 
ATOM      5  C   UNL     1      33.142 -10.191 -23.084  0.00  0.00    +0.061 C 
ATOM      6  C   UNL     1      34.139  -9.767 -24.012  0.00  0.00    +0.061 C 
ATOM      7  C   UNL     1      32.637  -9.248 -22.162  0.00  0.00    +0.009 C 
ATOM      8  C   UNL     1      34.602  -8.435 -23.937  0.00  0.00    +0.015 C 
ATOM      9  C   UNL     1      33.107  -7.936 -22.123  0.00  0.00    -0.043 C 
ATOM     10  C   UNL     1      31.709 -12.003 -22.138  0.00  0.00    +0.112 C 
ATOM     11  C   UNL     1      35.616 -10.259 -25.963  0.00  0.00    +0.112 C 
ATOM     12  C   UNL     1      34.093  -7.531 -23.007  0.00  0.00    -0.005 C 
ENDROOT
BRANCH   9  13
ATOM     13  C   UNL     1      32.551  -6.972 -21.129  0.00  0.00    -0.059 C 
BRANCH  13  14
ATOM     14  N   UNL     1      32.836  -7.362 -19.770  0.00  0.00    +0.383 N 
ATOM     15  H   UNL     1      32.045  -7.117 -19.175  0.00  0.00    -0.089 HD
ATOM     16  H   UNL     1      33.670  -6.873 -19.446  0.00  0.00    -0.089 HD
ATOM     17  H   UNL     1      32.994  -8.368 -19.731  0.00  0.00    -0.089 HD
ENDBRANCH  13  14
ENDBRANCH   9  13
TORSDOF 2
ENDMDL
MODEL 4
REMARK VINA RESULT:      -6.8      1.617      4.306
REMARK  Name = 7127816
REMARK  2 active torsions:
REMARK  status: ('A' for Active; 'I' for Inactive)
REMARK    1  A    between atoms: C_9  and  C_13
REMARK    2  A    between atoms: C_13  and  N_14
REMARK                            x       y       z     vdW  Elec       q    Type
REMARK                         _______ _______ _______ _____ _____    ______ ____
ROOT
ATOM      1  N   UNL     1      34.669 -16.516 -21.474  0.00  0.00    -0.303 N 
ATOM      2  N   UNL     1      34.838 -18.513 -23.478  0.00  0.00    -0.303 N 
ATOM      3  C   UNL     1      35.375 -17.766 -21.223  0.00  0.00    +0.112 C 
ATOM      4  C   UNL     1      34.774 -18.875 -22.068  0.00  0.00    +0.112 C 
ATOM      5  C   UNL     1      34.384 -16.201 -22.808  0.00  0.00    +0.061 C 
ATOM      6  C   UNL     1      34.476 -17.204 -23.818  0.00  0.00    +0.061 C 
ATOM      7  C   UNL     1      33.989 -14.899 -23.189  0.00  0.00    +0.009 C 
ATOM      8  C   UNL     1      34.207 -16.838 -25.154  0.00  0.00    +0.015 C 
ATOM      9  C   UNL     1      33.717 -14.573 -24.517  0.00  0.00    -0.043 C 
ATOM     10  C   UNL     1      34.651 -15.510 -20.425  0.00  0.00    +0.112 C 
ATOM     11  C   UNL     1      34.884 -19.580 -24.464  0.00  0.00    +0.112 C 
ATOM     12  C   UNL     1      33.831 -15.541 -25.500  0.00  0.00    -0.005 C 
ENDROOT
BRANCH   9  13
ATOM     13  C   UNL     1      33.309 -13.184 -24.877  0.00  0.00    -0.059 C 
BRANCH  13  14
ATOM     14  N   UNL     1      34.116 -12.188 -24.219  0.00  0.00    +0.383 N 
ATOM     15  H   UNL     1      35.062 -12.545 -24.094  0.00  0.00    -0.089 HD
ATOM     16  H   UNL     1      33.710 -11.972 -23.308  0.00  0.00    -0.089 HD
ATOM     17  H   UNL     1      34.143 -11.342 -24.788  0.00  0.00    -0.089 HD
ENDBRANCH  13  14
ENDBRANCH   9  13
TORSDOF 2
ENDMDL
MODEL 5
REMARK VINA RESULT:      -6.7      1.256      1.438
REMARK  Name = 7127816
REMARK  2 active torsions:
REMARK  status: ('A' for Active; 'I' for Inactive)
REMARK    1  A    between atoms: C_9  and  C_13
REMARK    2  A    between atoms: C_13  and  N_14
REMARK                            x       y       z     vdW  Elec       q    Type
REMARK                         _______ _______ _______ _____ _____    ______ ____
ROOT
ATOM      1  N   UNL     1      34.342 -15.285 -21.679  0.00  0.00    -0.303 N 
ATOM      2  N   UNL     1      33.938 -15.765 -24.442  0.00  0.00    -0.303 N 
ATOM      3  C   UNL     1      33.607 -14.332 -22.502  0.00  0.00    +0.112 C 
ATOM      4  C   UNL     1      34.096 -14.408 -23.937  0.00  0.00    +0.112 C 
ATOM      5  C   UNL     1      34.536 -16.567 -22.206  0.00  0.00    +0.061 C 
ATOM      6  C   UNL     1      34.326 -16.810 -23.596  0.00  0.00    +0.061 C 
ATOM      7  C   UNL     1      34.953 -17.642 -21.391  0.00  0.00    +0.009 C 
ATOM      8  C   UNL     1      34.506 -18.123 -24.082  0.00  0.00    +0.015 C 
ATOM      9  C   UNL     1      35.135 -18.926 -21.905  0.00  0.00    -0.043 C 
ATOM     10  C   UNL     1      34.481 -15.007 -20.258  0.00  0.00    +0.112 C 
ATOM     11  C   UNL     1      33.773 -15.954 -25.874  0.00  0.00    +0.112 C 
ATOM     12  C   UNL     1      34.906 -19.167 -23.249  0.00  0.00    -0.005 C 
ENDROOT
BRANCH   9  13
ATOM     13  C   UNL     1      35.570 -20.035 -21.008  0.00  0.00    -0.059 C 
BRANCH  13  14
ATOM     14  N   UNL     1      36.690 -19.664 -20.180  0.00  0.00    +0.383 N 
ATOM     15  H   UNL     1      36.654 -18.663 -19.990  0.00  0.00    -0.089 HD
ATOM     16  H   UNL     1      37.559 -19.887 -20.666  0.00  0.00    -0.089 HD
ATOM     17  H   UNL     1      36.649 -20.179 -19.302  0.00  0.00    -0.089 HD
ENDBRANCH  13  14
ENDBRANCH   9  13
TORSDOF 2
ENDMDL
MODEL 6
REMARK VINA RESULT:      -6.7      1.546      5.009
REMARK  Name = 7127816
REMARK  2 active torsions:
REMARK  status: ('A' for Active; 'I' for Inactive)
REMARK    1  A    between atoms: C_9  and  C_13
REMARK    2  A    between atoms: C_13  and  N_14
REMARK                            x       y       z     vdW  Elec       q    Type
REMARK                         _______ _______ _______ _____ _____    ______ ____
ROOT
ATOM      1  N   UNL     1      34.674 -18.011 -23.709  0.00  0.00    -0.303 N 
ATOM      2  N   UNL     1      34.565 -16.182 -21.548  0.00  0.00    -0.303 N 
ATOM      3  C   UNL     1      34.710 -18.483 -22.330  0.00  0.00    +0.112 C 
ATOM      4  C   UNL     1      35.326 -17.419 -21.438  0.00  0.00    +0.112 C 
ATOM      5  C   UNL     1      34.249 -16.695 -23.922  0.00  0.00    +0.061 C 
ATOM      6  C   UNL     1      34.187 -15.775 -22.832  0.00  0.00    +0.061 C 
ATOM      7  C   UNL     1      33.885 -16.238 -25.207  0.00  0.00    +0.009 C 
ATOM      8  C   UNL     1      33.727 -14.465 -23.086  0.00  0.00    +0.015 C 
ATOM      9  C   UNL     1      33.446 -14.932 -25.427  0.00  0.00    -0.043 C 
ATOM     10  C   UNL     1      34.689 -18.998 -24.777  0.00  0.00    +0.112 C 
ATOM     11  C   UNL     1      34.577 -15.262 -20.421  0.00  0.00    +0.112 C 
ATOM     12  C   UNL     1      33.363 -14.047 -24.364  0.00  0.00    -0.005 C 
ENDROOT
BRANCH   9  13
ATOM     13  C   UNL     1      33.066 -14.492 -26.799  0.00  0.00    -0.059 C 
BRANCH  13  14
ATOM     14  N   UNL     1      33.387 -13.107 -27.039  0.00  0.00    +0.383 N 
ATOM     15  H   UNL     1      34.155 -13.048 -27.707  0.00  0.00    -0.089 HD
ATOM     16  H   UNL     1      33.665 -12.667 -26.162  0.00  0.00    -0.089 HD
ATOM     17  H   UNL     1      32.570 -12.628 -27.416  0.00  0.00    -0.089 HD
ENDBRANCH  13  14
ENDBRANCH   9  13
TORSDOF 2
ENDMDL
MODEL 7
REMARK VINA RESULT:      -6.6      2.545      4.397
REMARK  Name = 7127816
REMARK  2 active torsions:
REMARK  status: ('A' for Active; 'I' for Inactive)
REMARK    1  A    between atoms: C_9  and  C_13
REMARK    2  A    between atoms: C_13  and  N_14
REMARK                            x       y       z     vdW  Elec       q    Type
REMARK                         _______ _______ _______ _____ _____    ______ ____
ROOT
ATOM      1  N   UNL     1      33.549 -11.165 -24.179  0.00  0.00    -0.303 N 
ATOM      2  N   UNL     1      31.864 -11.270 -21.903  0.00  0.00    -0.303 N 
ATOM      3  C   UNL     1      33.218  -9.953 -23.440  0.00  0.00    +0.112 C 
ATOM      4  C   UNL     1      31.859 -10.108 -22.781  0.00  0.00    +0.112 C 
ATOM      5  C   UNL     1      33.297 -12.388 -23.546  0.00  0.00    +0.061 C 
ATOM      6  C   UNL     1      32.454 -12.440 -22.396  0.00  0.00    +0.061 C 
ATOM      7  C   UNL     1      33.851 -13.594 -24.027  0.00  0.00    +0.009 C 
ATOM      8  C   UNL     1      32.247 -13.689 -21.772  0.00  0.00    +0.015 C 
ATOM      9  C   UNL     1      33.617 -14.814 -23.395  0.00  0.00    -0.043 C 
ATOM     10  C   UNL     1      34.454 -11.057 -25.313  0.00  0.00    +0.112 C 
ATOM     11  C   UNL     1      30.950 -11.286 -20.773  0.00  0.00    +0.112 C 
ATOM     12  C   UNL     1      32.819 -14.861 -22.264  0.00  0.00    -0.005 C 
ENDROOT
BRANCH   9  13
ATOM     13  C   UNL     1      34.226 -16.065 -23.932  0.00  0.00    -0.059 C 
BRANCH  13  14
ATOM     14  N   UNL     1      35.471 -16.391 -23.283  0.00  0.00    +0.383 N 
ATOM     15  H   UNL     1      35.367 -16.284 -22.275  0.00  0.00    -0.089 HD
ATOM     16  H   UNL     1      36.202 -15.762 -23.617  0.00  0.00    -0.089 HD
ATOM     17  H   UNL     1      35.726 -17.354 -23.499  0.00  0.00    -0.089 HD
ENDBRANCH  13  14
ENDBRANCH   9  13
TORSDOF 2
ENDMDL
MODEL 8
REMARK VINA RESULT:      -6.6      1.269      4.236
REMARK  Name = 7127816
REMARK  2 active torsions:
REMARK  status: ('A' for Active; 'I' for Inactive)
REMARK    1  A    between atoms: C_9  and  C_13
REMARK    2  A    between atoms: C_13  and  N_14
REMARK                            x       y       z     vdW  Elec       q    Type
REMARK                         _______ _______ _______ _____ _____    ______ ____
ROOT
ATOM      1  N   UNL     1      33.524 -14.648 -21.753  0.00  0.00    -0.303 N 
ATOM      2  N   UNL     1      35.188 -16.925 -22.025  0.00  0.00    -0.303 N 
ATOM      3  C   UNL     1      34.419 -15.049 -20.676  0.00  0.00    +0.112 C 
ATOM      4  C   UNL     1      34.644 -16.550 -20.726  0.00  0.00    +0.112 C 
ATOM      5  C   UNL     1      33.757 -15.202 -23.017  0.00  0.00    +0.061 C 
ATOM      6  C   UNL     1      34.601 -16.345 -23.155  0.00  0.00    +0.061 C 
ATOM      7  C   UNL     1      33.162 -14.663 -24.179  0.00  0.00    +0.009 C 
ATOM      8  C   UNL     1      34.832 -16.856 -24.450  0.00  0.00    +0.015 C 
ATOM      9  C   UNL     1      33.401 -15.200 -25.443  0.00  0.00    -0.043 C 
ATOM     10  C   UNL     1      32.725 -13.446 -21.575  0.00  0.00    +0.112 C 
ATOM     11  C   UNL     1      36.003 -18.126 -22.111  0.00  0.00    +0.112 C 
ATOM     12  C   UNL     1      34.239 -16.294 -25.579  0.00  0.00    -0.005 C 
ENDROOT
BRANCH   9  13
ATOM     13  C   UNL     1      32.757 -14.596 -26.646  0.00  0.00    -0.059 C 
BRANCH  13  14
ATOM     14  N   UNL     1      33.306 -13.303 -26.970  0.00  0.00    +0.383 N 
ATOM     15  H   UNL     1      33.733 -13.338 -27.895  0.00  0.00    -0.089 HD
ATOM     16  H   UNL     1      34.013 -13.052 -26.279  0.00  0.00    -0.089 HD
ATOM     17  H   UNL     1      32.562 -12.606 -26.965  0.00  0.00    -0.089 HD
ENDBRANCH  13  14
ENDBRANCH   9  13
TORSDOF 2
ENDMDL
MODEL 9
REMARK VINA RESULT:      -6.6      1.002      2.975
REMARK  Name = 7127816
REMARK  2 active torsions:
REMARK  status: ('A' for Active; 'I' for Inactive)
REMARK    1  A    between atoms: C_9  and  C_13
REMARK    2  A    between atoms: C_13  and  N_14
REMARK                            x       y       z     vdW  Elec       q    Type
REMARK                         _______ _______ _______ _____ _____    ______ ____
ROOT
ATOM      1  N   UNL     1      33.527 -15.062 -24.406  0.00  0.00    -0.303 N 
ATOM      2  N   UNL     1      32.892 -13.745 -21.979  0.00  0.00    -0.303 N 
ATOM      3  C   UNL     1      33.054 -13.683 -24.408  0.00  0.00    +0.112 C 
ATOM      4  C   UNL     1      32.162 -13.444 -23.203  0.00  0.00    +0.112 C 
ATOM      5  C   UNL     1      33.971 -15.583 -23.186  0.00  0.00    +0.061 C 
ATOM      6  C   UNL     1      33.658 -14.916 -21.964  0.00  0.00    +0.061 C 
ATOM      7  C   UNL     1      34.723 -16.777 -23.126  0.00  0.00    +0.009 C 
ATOM      8  C   UNL     1      34.149 -15.461 -20.758  0.00  0.00    +0.015 C 
ATOM      9  C   UNL     1      35.183 -17.296 -21.916  0.00  0.00    -0.043 C 
ATOM     10  C   UNL     1      33.878 -15.672 -25.679  0.00  0.00    +0.112 C 
ATOM     11  C   UNL     1      32.497 -13.067 -20.755  0.00  0.00    +0.112 C 
ATOM     12  C   UNL     1      34.900 -16.635 -20.732  0.00  0.00    -0.005 C 
ENDROOT
BRANCH   9  13
ATOM     13  C   UNL     1      35.980 -18.556 -21.897  0.00  0.00    -0.059 C 
BRANCH  13  14
ATOM     14  N   UNL     1      36.197 -19.047 -20.559  0.00  0.00    +0.383 N 
ATOM     15  H   UNL     1      36.046 -20.055 -20.538  0.00  0.00    -0.089 HD
ATOM     16  H   UNL     1      35.544 -18.591 -19.921  0.00  0.00    -0.089 HD
ATOM     17  H   UNL     1      37.153 -18.840 -20.272  0.00  0.00    -0.089 HD
ENDBRANCH  13  14
ENDBRANCH   9  13
TORSDOF 2
ENDMDL
