MODEL 1
REMARK VINA RESULT:      -3.5      0.000      0.000
REMARK  Name = 443943
REMARK  3 active torsions:
REMARK  status: ('A' for Active; 'I' for Inactive)
REMARK    1  A    between atoms: C_8  and  C_30
REMARK    2  A    between atoms: C_13  and  O_27
REMARK    3  A    between atoms: C_30  and  C_32
REMARK                            x       y       z     vdW  Elec       q    Type
REMARK                         _______ _______ _______ _____ _____    ______ ____
ROOT
ATOM      1  F   UNL     1      31.270 -22.320 -15.800  0.00  0.00    -0.237 F 
ATOM      2  O   UNL     1      35.506 -22.551 -14.750  0.00  0.00    -0.330 OA
ATOM      3  O   UNL     1      36.424 -24.320 -15.998  0.00  0.00    -0.334 OA
ATOM      4  O   UNL     1      26.401 -21.851 -17.594  0.00  0.00    -0.291 OA
ATOM      5  C   UNL     1      33.668 -23.923 -13.804  0.00  0.00    +0.034 C 
ATOM      6  C   UNL     1      33.208 -24.278 -15.236  0.00  0.00    +0.008 C 
ATOM      7  C   UNL     1      31.704 -24.576 -15.345  0.00  0.00    +0.033 C 
ATOM      8  C   UNL     1      35.190 -23.755 -14.056  0.00  0.00    +0.172 C 
ATOM      9  C   UNL     1      30.905 -23.312 -14.896  0.00  0.00    +0.161 C 
ATOM     10  C   UNL     1      34.219 -25.335 -15.685  0.00  0.00    +0.033 C 
ATOM     11  C   UNL     1      35.543 -24.884 -15.030  0.00  0.00    +0.149 C 
ATOM     12  C   UNL     1      32.914 -22.647 -13.380  0.00  0.00    +0.035 C 
ATOM     13  C   UNL     1      31.379 -22.757 -13.518  0.00  0.00    +0.141 C 
ATOM     14  C   UNL     1      29.340 -23.477 -15.071  0.00  0.00    +0.046 C 
ATOM     15  C   UNL     1      31.343 -24.950 -16.792  0.00  0.00    +0.007 C 
ATOM     16  C   UNL     1      33.446 -25.071 -12.783  0.00  0.00    +0.003 C 
ATOM     17  C   UNL     1      29.048 -23.968 -16.496  0.00  0.00    -0.039 C 
ATOM     18  C   UNL     1      29.847 -25.158 -16.970  0.00  0.00    +0.022 C 
ATOM     19  C   UNL     1      36.403 -22.903 -15.808  0.00  0.00    +0.188 C 
ATOM     20  C   UNL     1      28.669 -22.091 -14.835  0.00  0.00    +0.014 C 
ATOM     21  C   UNL     1      28.707 -24.506 -14.106  0.00  0.00    +0.007 C 
ATOM     22  C   UNL     1      27.243 -22.010 -15.358  0.00  0.00    +0.070 C 
ATOM     23  C   UNL     1      28.115 -23.432 -17.301  0.00  0.00    +0.029 C 
ATOM     24  C   UNL     1      37.812 -22.440 -15.450  0.00  0.00    +0.061 C 
ATOM     25  C   UNL     1      35.937 -22.234 -17.096  0.00  0.00    +0.061 C 
ATOM     26  C   UNL     1      27.207 -22.366 -16.821  0.00  0.00    +0.173 C 
ENDROOT
BRANCH  13  27
ATOM     27  O   UNL     1      30.859 -23.467 -12.405  0.00  0.00    -0.382 OA
ATOM     28  H   UNL     1      29.895 -23.536 -12.488  0.00  0.00    +0.210 HD
ENDBRANCH  13  27
BRANCH   8  30
ATOM     29  O   UNL     1      36.085 -22.726 -12.111  0.00  0.00    -0.292 OA
ATOM     30  C   UNL     1      36.019 -23.739 -12.805  0.00  0.00    +0.193 C 
BRANCH  30  32
ATOM     31 CL   UNL     1      38.471 -24.877 -12.828  0.00  0.00    -0.105 Cl
ATOM     32  C   UNL     1      36.742 -25.025 -12.481  0.00  0.00    +0.161 C 
ENDBRANCH  30  32
ENDBRANCH   8  30
TORSDOF 3
ENDMDL
MODEL 2
REMARK VINA RESULT:      -3.1     18.896     21.031
REMARK  Name = 443943
REMARK  3 active torsions:
REMARK  status: ('A' for Active; 'I' for Inactive)
REMARK    1  A    between atoms: C_8  and  C_30
REMARK    2  A    between atoms: C_13  and  O_27
REMARK    3  A    between atoms: C_30  and  C_32
REMARK                            x       y       z     vdW  Elec       q    Type
REMARK                         _______ _______ _______ _____ _____    ______ ____
ROOT
ATOM      1  F   UNL     1      31.917  -7.944 -25.156  0.00  0.00    -0.237 F 
ATOM      2  O   UNL     1      31.097  -4.066 -26.997  0.00  0.00    -0.330 OA
ATOM      3  O   UNL     1      33.177  -3.106 -27.523  0.00  0.00    -0.334 OA
ATOM      4  O   UNL     1      33.081 -12.747 -23.508  0.00  0.00    -0.291 OA
ATOM      5  C   UNL     1      31.679  -4.486 -24.622  0.00  0.00    +0.034 C 
ATOM      6  C   UNL     1      32.903  -5.312 -25.077  0.00  0.00    +0.008 C 
ATOM      7  C   UNL     1      33.316  -6.405 -24.079  0.00  0.00    +0.033 C 
ATOM      8  C   UNL     1      31.597  -3.477 -25.799  0.00  0.00    +0.172 C 
ATOM      9  C   UNL     1      32.124  -7.397 -23.895  0.00  0.00    +0.161 C 
ATOM     10  C   UNL     1      33.921  -4.247 -25.490  0.00  0.00    +0.033 C 
ATOM     11  C   UNL     1      33.055  -3.124 -26.104  0.00  0.00    +0.149 C 
ATOM     12  C   UNL     1      30.491  -5.457 -24.487  0.00  0.00    +0.035 C 
ATOM     13  C   UNL     1      30.781  -6.672 -23.575  0.00  0.00    +0.141 C 
ATOM     14  C   UNL     1      32.481  -8.626 -22.962  0.00  0.00    +0.046 C 
ATOM     15  C   UNL     1      34.557  -7.152 -24.597  0.00  0.00    +0.007 C 
ATOM     16  C   UNL     1      31.920  -3.706 -23.302  0.00  0.00    +0.003 C 
ATOM     17  C   UNL     1      33.792  -9.258 -23.454  0.00  0.00    -0.039 C 
ATOM     18  C   UNL     1      34.944  -8.310 -23.689  0.00  0.00    +0.022 C 
ATOM     19  C   UNL     1      31.975  -3.668 -28.054  0.00  0.00    +0.188 C 
ATOM     20  C   UNL     1      31.323  -9.663 -23.049  0.00  0.00    +0.014 C 
ATOM     21  C   UNL     1      32.698  -8.245 -21.480  0.00  0.00    +0.007 C 
ATOM     22  C   UNL     1      31.705 -11.044 -22.538  0.00  0.00    +0.070 C 
ATOM     23  C   UNL     1      33.970 -10.577 -23.639  0.00  0.00    +0.029 C 
ATOM     24  C   UNL     1      31.283  -2.613 -28.914  0.00  0.00    +0.061 C 
ATOM     25  C   UNL     1      32.324  -4.890 -28.895  0.00  0.00    +0.061 C 
ATOM     26  C   UNL     1      32.917 -11.551 -23.274  0.00  0.00    +0.173 C 
ENDROOT
BRANCH  13  27
ATOM     27  O   UNL     1      30.650  -6.279 -22.218  0.00  0.00    -0.382 OA
ATOM     28  H   UNL     1      30.630  -5.311 -22.162  0.00  0.00    +0.210 HD
ENDBRANCH  13  27
BRANCH   8  30
ATOM     29  O   UNL     1      30.678  -1.786 -24.406  0.00  0.00    -0.292 OA
ATOM     30  C   UNL     1      30.719  -2.291 -25.527  0.00  0.00    +0.193 C 
BRANCH  30  32
ATOM     31 CL   UNL     1      28.187  -1.786 -26.327  0.00  0.00    -0.105 Cl
ATOM     32  C   UNL     1      29.916  -1.786 -26.702  0.00  0.00    +0.161 C 
ENDBRANCH  30  32
ENDBRANCH   8  30
TORSDOF 3
ENDMDL
MODEL 3
REMARK VINA RESULT:      -2.7     11.796     14.295
REMARK  Name = 443943
REMARK  3 active torsions:
REMARK  status: ('A' for Active; 'I' for Inactive)
REMARK    1  A    between atoms: C_8  and  C_30
REMARK    2  A    between atoms: C_13  and  O_27
REMARK    3  A    between atoms: C_30  and  C_32
REMARK                            x       y       z     vdW  Elec       q    Type
REMARK                         _______ _______ _______ _____ _____    ______ ____
ROOT
ATOM      1  F   UNL     1      34.461 -14.062 -21.124  0.00  0.00    -0.237 F 
ATOM      2  O   UNL     1      32.968  -9.955 -21.128  0.00  0.00    -0.330 OA
ATOM      3  O   UNL     1      30.851  -9.996 -20.105  0.00  0.00    -0.334 OA
ATOM      4  O   UNL     1      36.292 -18.902 -20.521  0.00  0.00    -0.291 OA
ATOM      5  C   UNL     1      32.419 -11.732 -22.768  0.00  0.00    +0.034 C 
ATOM      6  C   UNL     1      32.058 -12.683 -21.605  0.00  0.00    +0.008 C 
ATOM      7  C   UNL     1      32.266 -14.169 -21.935  0.00  0.00    +0.033 C 
ATOM      8  C   UNL     1      32.036 -10.375 -22.121  0.00  0.00    +0.172 C 
ATOM      9  C   UNL     1      33.771 -14.403 -22.282  0.00  0.00    +0.161 C 
ATOM     10  C   UNL     1      30.677 -12.197 -21.161  0.00  0.00    +0.033 C 
ATOM     11  C   UNL     1      30.740 -10.666 -21.358  0.00  0.00    +0.149 C 
ATOM     12  C   UNL     1      33.915 -11.929 -23.078  0.00  0.00    +0.035 C 
ATOM     13  C   UNL     1      34.306 -13.400 -23.349  0.00  0.00    +0.141 C 
ATOM     14  C   UNL     1      34.115 -15.928 -22.537  0.00  0.00    +0.046 C 
ATOM     15  C   UNL     1      31.853 -15.039 -20.737  0.00  0.00    +0.007 C 
ATOM     16  C   UNL     1      31.550 -11.952 -24.036  0.00  0.00    +0.003 C 
ATOM     17  C   UNL     1      33.573 -16.762 -21.367  0.00  0.00    -0.039 C 
ATOM     18  C   UNL     1      32.134 -16.514 -20.980  0.00  0.00    +0.022 C 
ATOM     19  C   UNL     1      32.205  -9.557 -19.984  0.00  0.00    +0.188 C 
ATOM     20  C   UNL     1      35.663 -16.075 -22.624  0.00  0.00    +0.014 C 
ATOM     21  C   UNL     1      33.487 -16.505 -23.826  0.00  0.00    +0.007 C 
ATOM     22  C   UNL     1      36.148 -17.507 -22.462  0.00  0.00    +0.070 C 
ATOM     23  C   UNL     1      34.282 -17.702 -20.719  0.00  0.00    +0.029 C 
ATOM     24  C   UNL     1      32.214  -8.034 -19.877  0.00  0.00    +0.061 C 
ATOM     25  C   UNL     1      32.821 -10.178 -18.737  0.00  0.00    +0.061 C 
ATOM     26  C   UNL     1      35.641 -18.081 -21.166  0.00  0.00    +0.173 C 
ENDROOT
BRANCH  13  27
ATOM     27  O   UNL     1      33.958 -13.739 -24.682  0.00  0.00    -0.382 OA
ATOM     28  H   UNL     1      33.997 -12.945 -25.238  0.00  0.00    +0.210 HD
ENDBRANCH  13  27
BRANCH   8  30
ATOM     29  O   UNL     1      30.848  -8.718 -23.340  0.00  0.00    -0.292 OA
ATOM     30  C   UNL     1      31.935  -9.239 -23.096  0.00  0.00    +0.193 C 
BRANCH  30  32
ATOM     31 CL   UNL     1      33.805  -7.288 -23.019  0.00  0.00    -0.105 Cl
ATOM     32  C   UNL     1      33.234  -8.803 -23.733  0.00  0.00    +0.161 C 
ENDBRANCH  30  32
ENDBRANCH   8  30
TORSDOF 3
ENDMDL
MODEL 4
REMARK VINA RESULT:      -1.5      2.895      7.393
REMARK  Name = 443943
REMARK  3 active torsions:
REMARK  status: ('A' for Active; 'I' for Inactive)
REMARK    1  A    between atoms: C_8  and  C_30
REMARK    2  A    between atoms: C_13  and  O_27
REMARK    3  A    between atoms: C_30  and  C_32
REMARK                            x       y       z     vdW  Elec       q    Type
REMARK                         _______ _______ _______ _____ _____    ______ ____
ROOT
ATOM      1  F   UNL     1      34.920 -25.519 -14.692  0.00  0.00    -0.237 F 
ATOM      2  O   UNL     1      30.621 -24.928 -15.209  0.00  0.00    -0.330 OA
ATOM      3  O   UNL     1      30.340 -23.599 -17.128  0.00  0.00    -0.334 OA
ATOM      4  O   UNL     1      40.022 -26.567 -14.572  0.00  0.00    -0.291 OA
ATOM      5  C   UNL     1      32.212 -23.362 -14.128  0.00  0.00    +0.034 C 
ATOM      6  C   UNL     1      33.132 -23.456 -15.365  0.00  0.00    +0.008 C 
ATOM      7  C   UNL     1      34.618 -23.224 -15.049  0.00  0.00    +0.033 C 
ATOM      8  C   UNL     1      30.836 -23.576 -14.812  0.00  0.00    +0.172 C 
ATOM      9  C   UNL     1      35.092 -24.308 -14.030  0.00  0.00    +0.161 C 
ATOM     10  C   UNL     1      32.435 -22.567 -16.397  0.00  0.00    +0.033 C 
ATOM     11  C   UNL     1      30.931 -22.784 -16.119  0.00  0.00    +0.149 C 
ATOM     12  C   UNL     1      32.650 -24.464 -13.143  0.00  0.00    +0.035 C 
ATOM     13  C   UNL     1      34.154 -24.421 -12.790  0.00  0.00    +0.141 C 
ATOM     14  C   UNL     1      36.642 -24.224 -13.716  0.00  0.00    +0.046 C 
ATOM     15  C   UNL     1      35.451 -23.303 -16.339  0.00  0.00    +0.007 C 
ATOM     16  C   UNL     1      32.230 -21.965 -13.450  0.00  0.00    +0.003 C 
ATOM     17  C   UNL     1      37.417 -24.184 -15.042  0.00  0.00    -0.039 C 
ATOM     18  C   UNL     1      36.942 -23.178 -16.063  0.00  0.00    +0.022 C 
ATOM     19  C   UNL     1      30.143 -24.894 -16.558  0.00  0.00    +0.188 C 
ATOM     20  C   UNL     1      37.048 -25.485 -12.898  0.00  0.00    +0.014 C 
ATOM     21  C   UNL     1      37.053 -22.963 -12.921  0.00  0.00    +0.007 C 
ATOM     22  C   UNL     1      38.548 -25.739 -12.876  0.00  0.00    +0.070 C 
ATOM     23  C   UNL     1      38.489 -24.948 -15.311  0.00  0.00    +0.029 C 
ATOM     24  C   UNL     1      28.650 -25.211 -16.572  0.00  0.00    +0.061 C 
ATOM     25  C   UNL     1      30.910 -25.922 -17.380  0.00  0.00    +0.061 C 
ATOM     26  C   UNL     1      39.077 -25.834 -14.283  0.00  0.00    +0.173 C 
ENDROOT
BRANCH  13  27
ATOM     27  O   UNL     1      34.376 -23.419 -11.810  0.00  0.00    -0.382 OA
ATOM     28  H   UNL     1      35.142 -22.882 -12.065  0.00  0.00    +0.210 HD
ENDBRANCH  13  27
BRANCH   8  30
ATOM     29  O   UNL     1      29.380 -23.875 -12.958  0.00  0.00    -0.292 OA
ATOM     30  C   UNL     1      29.662 -23.208 -13.952  0.00  0.00    +0.193 C 
BRANCH  30  32
ATOM     31 CL   UNL     1      27.514 -22.466 -15.417  0.00  0.00    -0.105 Cl
ATOM     32  C   UNL     1      28.880 -21.994 -14.395  0.00  0.00    +0.161 C 
ENDBRANCH  30  32
ENDBRANCH   8  30
TORSDOF 3
ENDMDL
MODEL 5
REMARK VINA RESULT:      -0.9     13.443     15.750
REMARK  Name = 443943
REMARK  3 active torsions:
REMARK  status: ('A' for Active; 'I' for Inactive)
REMARK    1  A    between atoms: C_8  and  C_30
REMARK    2  A    between atoms: C_13  and  O_27
REMARK    3  A    between atoms: C_30  and  C_32
REMARK                            x       y       z     vdW  Elec       q    Type
REMARK                         _______ _______ _______ _____ _____    ______ ____
ROOT
ATOM      1  F   UNL     1      34.323 -12.722 -21.713  0.00  0.00    -0.237 F 
ATOM      2  O   UNL     1      33.434  -8.451 -21.969  0.00  0.00    -0.330 OA
ATOM      3  O   UNL     1      31.293  -8.143 -21.048  0.00  0.00    -0.334 OA
ATOM      4  O   UNL     1      35.419 -17.735 -20.809  0.00  0.00    -0.291 OA
ATOM      5  C   UNL     1      32.704 -10.215 -23.554  0.00  0.00    +0.034 C 
ATOM      6  C   UNL     1      32.164 -11.045 -22.368  0.00  0.00    +0.008 C 
ATOM      7  C   UNL     1      32.171 -12.561 -22.621  0.00  0.00    +0.033 C 
ATOM      8  C   UNL     1      32.493  -8.786 -22.986  0.00  0.00    +0.172 C 
ATOM      9  C   UNL     1      33.639 -13.021 -22.886  0.00  0.00    +0.161 C 
ATOM     10  C   UNL     1      30.849 -10.348 -22.012  0.00  0.00    +0.033 C 
ATOM     11  C   UNL     1      31.139  -8.853 -22.273  0.00  0.00    +0.149 C 
ATOM     12  C   UNL     1      34.168 -10.636 -23.783  0.00  0.00    +0.035 C 
ATOM     13  C   UNL     1      34.356 -12.159 -23.969  0.00  0.00    +0.141 C 
ATOM     14  C   UNL     1      33.773 -14.590 -23.056  0.00  0.00    +0.046 C 
ATOM     15  C   UNL     1      31.589 -13.302 -21.406  0.00  0.00    +0.007 C 
ATOM     16  C   UNL     1      31.864 -10.374 -24.850  0.00  0.00    +0.003 C 
ATOM     17  C   UNL     1      33.070 -15.279 -21.877  0.00  0.00    -0.039 C 
ATOM     18  C   UNL     1      31.667 -14.813 -21.570  0.00  0.00    +0.022 C 
ATOM     19  C   UNL     1      32.690  -7.893 -20.882  0.00  0.00    +0.188 C 
ATOM     20  C   UNL     1      35.286 -14.958 -23.063  0.00  0.00    +0.014 C 
ATOM     21  C   UNL     1      33.122 -15.138 -24.346  0.00  0.00    +0.007 C 
ATOM     22  C   UNL     1      35.555 -16.434 -22.815  0.00  0.00    +0.070 C 
ATOM     23  C   UNL     1      33.610 -16.276 -21.155  0.00  0.00    +0.029 C 
ATOM     24  C   UNL     1      32.912  -6.383 -20.842  0.00  0.00    +0.061 C 
ATOM     25  C   UNL     1      33.160  -8.530 -19.580  0.00  0.00    +0.061 C 
ATOM     26  C   UNL     1      34.918 -16.865 -21.519  0.00  0.00    +0.173 C 
ENDROOT
BRANCH  13  27
ATOM     27  O   UNL     1      34.017 -12.513 -25.301  0.00  0.00    -0.382 OA
ATOM     28  H   UNL     1      33.317 -11.924 -25.623  0.00  0.00    +0.210 HD
ENDBRANCH  13  27
BRANCH   8  30
ATOM     29  O   UNL     1      33.686  -7.372 -24.476  0.00  0.00    -0.292 OA
ATOM     30  C   UNL     1      32.594  -7.698 -24.015  0.00  0.00    +0.193 C 
BRANCH  30  32
ATOM     31 CL   UNL     1      31.266  -5.343 -23.982  0.00  0.00    -0.105 Cl
ATOM     32  C   UNL     1      31.288  -7.057 -24.423  0.00  0.00    +0.161 C 
ENDBRANCH  30  32
ENDBRANCH   8  30
TORSDOF 3
ENDMDL
MODEL 6
REMARK VINA RESULT:      -0.6     15.594     17.742
REMARK  Name = 443943
REMARK  3 active torsions:
REMARK  status: ('A' for Active; 'I' for Inactive)
REMARK    1  A    between atoms: C_8  and  C_30
REMARK    2  A    between atoms: C_13  and  O_27
REMARK    3  A    between atoms: C_30  and  C_32
REMARK                            x       y       z     vdW  Elec       q    Type
REMARK                         _______ _______ _______ _____ _____    ______ ____
ROOT
ATOM      1  F   UNL     1      32.084 -10.331 -25.134  0.00  0.00    -0.237 F 
ATOM      2  O   UNL     1      30.991  -6.461 -23.423  0.00  0.00    -0.330 OA
ATOM      3  O   UNL     1      32.749  -4.977 -23.910  0.00  0.00    -0.334 OA
ATOM      4  O   UNL     1      33.306 -14.688 -27.716  0.00  0.00    -0.291 OA
ATOM      5  C   UNL     1      32.467  -8.171 -22.398  0.00  0.00    +0.034 C 
ATOM      6  C   UNL     1      33.290  -8.232 -23.704  0.00  0.00    +0.008 C 
ATOM      7  C   UNL     1      33.963  -9.591 -23.948  0.00  0.00    +0.033 C 
ATOM      8  C   UNL     1      32.008  -6.689 -22.451  0.00  0.00    +0.172 C 
ATOM      9  C   UNL     1      32.858 -10.692 -24.038  0.00  0.00    +0.161 C 
ATOM     10  C   UNL     1      34.149  -6.967 -23.646  0.00  0.00    +0.033 C 
ATOM     11  C   UNL     1      33.232  -5.926 -22.964  0.00  0.00    +0.149 C 
ATOM     12  C   UNL     1      31.348  -9.224 -22.507  0.00  0.00    +0.035 C 
ATOM     13  C   UNL     1      31.861 -10.644 -22.840  0.00  0.00    +0.141 C 
ATOM     14  C   UNL     1      33.440 -12.121 -24.393  0.00  0.00    +0.046 C 
ATOM     15  C   UNL     1      34.783  -9.550 -25.248  0.00  0.00    +0.007 C 
ATOM     16  C   UNL     1      33.322  -8.391 -21.121  0.00  0.00    +0.003 C 
ATOM     17  C   UNL     1      34.346 -11.997 -25.626  0.00  0.00    -0.039 C 
ATOM     18  C   UNL     1      35.388 -10.905 -25.583  0.00  0.00    +0.022 C 
ATOM     19  C   UNL     1      31.382  -5.304 -24.170  0.00  0.00    +0.188 C 
ATOM     20  C   UNL     1      32.248 -13.075 -24.700  0.00  0.00    +0.014 C 
ATOM     21  C   UNL     1      34.299 -12.746 -23.269  0.00  0.00    +0.007 C 
ATOM     22  C   UNL     1      32.657 -14.342 -25.437  0.00  0.00    +0.070 C 
ATOM     23  C   UNL     1      34.286 -12.815 -26.691  0.00  0.00    +0.029 C 
ATOM     24  C   UNL     1      30.511  -4.120 -23.757  0.00  0.00    +0.061 C 
ATOM     25  C   UNL     1      31.212  -5.594 -25.656  0.00  0.00    +0.061 C 
ATOM     26  C   UNL     1      33.385 -13.989 -26.707  0.00  0.00    +0.173 C 
ENDROOT
BRANCH  13  27
ATOM     27  O   UNL     1      32.355 -11.252 -21.657  0.00  0.00    -0.382 OA
ATOM     28  H   UNL     1      32.396 -10.592 -20.948  0.00  0.00    +0.210 HD
ENDBRANCH  13  27
BRANCH   8  30
ATOM     29  O   UNL     1      30.432  -5.497 -21.131  0.00  0.00    -0.292 OA
ATOM     30  C   UNL     1      31.459  -6.172 -21.153  0.00  0.00    +0.193 C 
BRANCH  30  32
ATOM     31 CL   UNL     1      31.500  -7.904 -19.077  0.00  0.00    -0.105 Cl
ATOM     32  C   UNL     1      32.247  -6.537 -19.916  0.00  0.00    +0.161 C 
ENDBRANCH  30  32
ENDBRANCH   8  30
TORSDOF 3
ENDMDL
