MODEL 1
REMARK VINA RESULT:      -7.7      0.000      0.000
REMARK  Name = 9950244
REMARK  6 active torsions:
REMARK  status: ('A' for Active; 'I' for Inactive)
REMARK    1  A    between atoms: C_4  and  C_13
REMARK    2  A    between atoms: C_7  and  C_10
REMARK    3  A    between atoms: C_8  and  S_17
REMARK    4  A    between atoms: C_10  and  O_11
REMARK    5  A    between atoms: C_13  and  O_15
REMARK    6  A    between atoms: S_17  and  C_20
REMARK                            x       y       z     vdW  Elec       q    Type
REMARK                         _______ _______ _______ _____ _____    ______ ____
ROOT
ATOM      1  S   UNL     1      34.120 -13.194 -23.025  0.00  0.00    -0.086 S 
ATOM      2  O   UNL     1      34.729 -16.675 -25.803  0.00  0.00    -0.274 OA
ATOM      3  N   UNL     1      33.381 -15.080 -24.697  0.00  0.00    -0.244 N 
ATOM      4  C   UNL     1      34.647 -16.008 -23.334  0.00  0.00    +0.133 C 
ATOM      5  C   UNL     1      33.559 -14.922 -23.245  0.00  0.00    +0.143 C 
ATOM      6  C   UNL     1      34.297 -16.083 -24.840  0.00  0.00    +0.235 C 
ATOM      7  C   UNL     1      33.387 -13.899 -25.398  0.00  0.00    +0.142 C 
ATOM      8  C   UNL     1      33.710 -12.806 -24.687  0.00  0.00    +0.072 C 
ENDROOT
BRANCH   7  10
ATOM      9  O   UNL     1      33.919 -13.711 -27.707  0.00  0.00    -0.244 OA
ATOM     10  C   UNL     1      33.102 -13.940 -26.834  0.00  0.00    +0.353 C 
BRANCH  10  11
ATOM     11  O   UNL     1      31.806 -14.266 -27.030  0.00  0.00    -0.476 OA
ATOM     12  H   UNL     1      31.331 -14.718 -26.361  0.00  0.00    +0.295 HD
ENDBRANCH  10  11
ENDBRANCH   7  10
BRANCH   4  13
ATOM     13  C   UNL     1      34.488 -17.313 -22.589  0.00  0.00    +0.122 C 
ATOM     14  C   UNL     1      35.720 -18.196 -22.756  0.00  0.00    +0.032 C 
BRANCH  13  15
ATOM     15  O   UNL     1      34.291 -17.045 -21.202  0.00  0.00    -0.384 OA
ATOM     16  H   UNL     1      35.089 -17.286 -20.708  0.00  0.00    +0.210 HD
ENDBRANCH  13  15
ENDBRANCH   4  13
BRANCH   8  17
ATOM     17  S   UNL     1      33.823 -11.194 -25.279  0.00  0.00    -0.106 S 
BRANCH  17  20
ATOM     18  S   UNL     1      32.196  -8.694 -22.111  0.00  0.00    +0.043 S 
ATOM     19  O   UNL     1      31.276  -7.651 -22.674  0.00  0.00    -0.256 OA
ATOM     20  C   UNL     1      33.684 -10.275 -23.722  0.00  0.00    +0.067 C 
ATOM     21  C   UNL     1      34.260  -8.871 -23.842  0.00  0.00    +0.026 C 
ATOM     22  C   UNL     1      32.230 -10.084 -23.315  0.00  0.00    +0.103 C 
ATOM     23  C   UNL     1      33.906  -8.193 -22.530  0.00  0.00    +0.093 C 
ENDBRANCH  17  20
ENDBRANCH   8  17
TORSDOF 6
ENDMDL
MODEL 2
REMARK VINA RESULT:      -7.3      8.569     13.131
REMARK  Name = 9950244
REMARK  6 active torsions:
REMARK  status: ('A' for Active; 'I' for Inactive)
REMARK    1  A    between atoms: C_4  and  C_13
REMARK    2  A    between atoms: C_7  and  C_10
REMARK    3  A    between atoms: C_8  and  S_17
REMARK    4  A    between atoms: C_10  and  O_11
REMARK    5  A    between atoms: C_13  and  O_15
REMARK    6  A    between atoms: S_17  and  C_20
REMARK                            x       y       z     vdW  Elec       q    Type
REMARK                         _______ _______ _______ _____ _____    ______ ____
ROOT
ATOM      1  S   UNL     1      36.927 -21.350 -17.472  0.00  0.00    -0.086 S 
ATOM      2  O   UNL     1      33.512 -20.510 -20.271  0.00  0.00    -0.274 OA
ATOM      3  N   UNL     1      35.197 -21.900 -19.370  0.00  0.00    -0.244 N 
ATOM      4  C   UNL     1      35.995 -20.045 -19.863  0.00  0.00    +0.133 C 
ATOM      5  C   UNL     1      36.556 -21.347 -19.265  0.00  0.00    +0.143 C 
ATOM      6  C   UNL     1      34.644 -20.796 -19.952  0.00  0.00    +0.235 C 
ATOM      7  C   UNL     1      34.741 -22.500 -18.222  0.00  0.00    +0.142 C 
ATOM      8  C   UNL     1      35.527 -22.354 -17.142  0.00  0.00    +0.072 C 
ENDROOT
BRANCH   7  10
ATOM      9  O   UNL     1      32.394 -22.688 -17.894  0.00  0.00    -0.244 OA
ATOM     10  C   UNL     1      33.445 -23.183 -18.259  0.00  0.00    +0.353 C 
BRANCH  10  11
ATOM     11  O   UNL     1      33.604 -24.428 -18.756  0.00  0.00    -0.476 OA
ATOM     12  H   UNL     1      33.515 -24.581 -19.675  0.00  0.00    +0.295 HD
ENDBRANCH  10  11
ENDBRANCH   7  10
BRANCH   4  13
ATOM     13  C   UNL     1      36.510 -19.527 -21.187  0.00  0.00    +0.122 C 
ATOM     14  C   UNL     1      35.762 -18.270 -21.614  0.00  0.00    +0.032 C 
BRANCH  13  15
ATOM     15  O   UNL     1      37.900 -19.226 -21.067  0.00  0.00    -0.384 OA
ATOM     16  H   UNL     1      38.011 -18.399 -20.574  0.00  0.00    +0.210 HD
ENDBRANCH  13  15
ENDBRANCH   4  13
BRANCH   8  17
ATOM     17  S   UNL     1      35.223 -22.968 -15.562  0.00  0.00    -0.106 S 
BRANCH  17  20
ATOM     18  S   UNL     1      37.500 -26.480 -14.376  0.00  0.00    +0.043 S 
ATOM     19  O   UNL     1      37.131 -26.912 -12.987  0.00  0.00    -0.256 OA
ATOM     20  C   UNL     1      36.578 -24.165 -15.422  0.00  0.00    +0.067 C 
ATOM     21  C   UNL     1      37.557 -23.782 -14.322  0.00  0.00    +0.026 C 
ATOM     22  C   UNL     1      36.064 -25.548 -15.047  0.00  0.00    +0.103 C 
ATOM     23  C   UNL     1      38.510 -24.962 -14.222  0.00  0.00    +0.093 C 
ENDBRANCH  17  20
ENDBRANCH   8  17
TORSDOF 6
ENDMDL
MODEL 3
REMARK VINA RESULT:      -7.2     12.918     14.721
REMARK  Name = 9950244
REMARK  6 active torsions:
REMARK  status: ('A' for Active; 'I' for Inactive)
REMARK    1  A    between atoms: C_4  and  C_13
REMARK    2  A    between atoms: C_7  and  C_10
REMARK    3  A    between atoms: C_8  and  S_17
REMARK    4  A    between atoms: C_10  and  O_11
REMARK    5  A    between atoms: C_13  and  O_15
REMARK    6  A    between atoms: S_17  and  C_20
REMARK                            x       y       z     vdW  Elec       q    Type
REMARK                         _______ _______ _______ _____ _____    ______ ____
ROOT
ATOM      1  S   UNL     1      33.821 -24.152 -13.183  0.00  0.00    -0.086 S 
ATOM      2  O   UNL     1      37.444 -23.815 -15.822  0.00  0.00    -0.274 OA
ATOM      3  N   UNL     1      35.322 -24.695 -15.269  0.00  0.00    -0.244 N 
ATOM      4  C   UNL     1      36.589 -24.810 -13.625  0.00  0.00    +0.133 C 
ATOM      5  C   UNL     1      35.129 -25.210 -13.904  0.00  0.00    +0.143 C 
ATOM      6  C   UNL     1      36.636 -24.363 -15.106  0.00  0.00    +0.235 C 
ATOM      7  C   UNL     1      34.337 -23.836 -15.692  0.00  0.00    +0.142 C 
ATOM      8  C   UNL     1      33.444 -23.474 -14.757  0.00  0.00    +0.072 C 
ENDROOT
BRANCH   7  10
ATOM      9  O   UNL     1      33.604 -23.713 -17.950  0.00  0.00    -0.244 OA
ATOM     10  C   UNL     1      34.376 -23.360 -17.077  0.00  0.00    +0.353 C 
BRANCH  10  11
ATOM     11  O   UNL     1      35.391 -22.482 -17.225  0.00  0.00    -0.476 OA
ATOM     12  H   UNL     1      36.120 -22.697 -17.771  0.00  0.00    +0.295 HD
ENDBRANCH  10  11
ENDBRANCH   7  10
BRANCH   4  13
ATOM     13  C   UNL     1      37.612 -25.859 -13.255  0.00  0.00    +0.122 C 
ATOM     14  C   UNL     1      39.007 -25.254 -13.147  0.00  0.00    +0.032 C 
BRANCH  13  15
ATOM     15  O   UNL     1      37.258 -26.443 -12.002  0.00  0.00    -0.384 OA
ATOM     16  H   UNL     1      36.856 -27.313 -12.153  0.00  0.00    +0.210 HD
ENDBRANCH  13  15
ENDBRANCH   4  13
BRANCH   8  17
ATOM     17  S   UNL     1      32.113 -22.403 -14.969  0.00  0.00    -0.106 S 
BRANCH  17  20
ATOM     18  S   UNL     1      28.367 -23.973 -16.529  0.00  0.00    +0.043 S 
ATOM     19  O   UNL     1      27.207 -23.136 -16.076  0.00  0.00    -0.256 OA
ATOM     20  C   UNL     1      30.857 -23.572 -15.558  0.00  0.00    +0.067 C 
ATOM     21  C   UNL     1      30.032 -24.138 -14.411  0.00  0.00    +0.026 C 
ATOM     22  C   UNL     1      29.856 -22.896 -16.484  0.00  0.00    +0.103 C 
ATOM     23  C   UNL     1      28.933 -24.943 -15.083  0.00  0.00    +0.093 C 
ENDBRANCH  17  20
ENDBRANCH   8  17
TORSDOF 6
ENDMDL
MODEL 4
REMARK VINA RESULT:      -7.2      3.920      7.758
REMARK  Name = 9950244
REMARK  6 active torsions:
REMARK  status: ('A' for Active; 'I' for Inactive)
REMARK    1  A    between atoms: C_4  and  C_13
REMARK    2  A    between atoms: C_7  and  C_10
REMARK    3  A    between atoms: C_8  and  S_17
REMARK    4  A    between atoms: C_10  and  O_11
REMARK    5  A    between atoms: C_13  and  O_15
REMARK    6  A    between atoms: S_17  and  C_20
REMARK                            x       y       z     vdW  Elec       q    Type
REMARK                         _______ _______ _______ _____ _____    ______ ____
ROOT
ATOM      1  S   UNL     1      34.943 -17.396 -24.255  0.00  0.00    -0.086 S 
ATOM      2  O   UNL     1      33.798 -13.145 -23.348  0.00  0.00    -0.274 OA
ATOM      3  N   UNL     1      33.466 -15.482 -23.230  0.00  0.00    -0.244 N 
ATOM      4  C   UNL     1      33.828 -14.915 -25.196  0.00  0.00    +0.133 C 
ATOM      5  C   UNL     1      33.537 -16.248 -24.484  0.00  0.00    +0.143 C 
ATOM      6  C   UNL     1      33.668 -14.259 -23.803  0.00  0.00    +0.235 C 
ATOM      7  C   UNL     1      34.214 -16.007 -22.205  0.00  0.00    +0.142 C 
ATOM      8  C   UNL     1      35.013 -17.034 -22.539  0.00  0.00    +0.072 C 
ENDROOT
BRANCH   7  10
ATOM      9  O   UNL     1      35.026 -14.781 -20.337  0.00  0.00    -0.244 OA
ATOM     10  C   UNL     1      34.119 -15.384 -20.883  0.00  0.00    +0.353 C 
BRANCH  10  11
ATOM     11  O   UNL     1      32.884 -15.584 -20.375  0.00  0.00    -0.476 OA
ATOM     12  H   UNL     1      32.762 -16.177 -19.661  0.00  0.00    +0.295 HD
ENDBRANCH  10  11
ENDBRANCH   7  10
BRANCH   4  13
ATOM     13  C   UNL     1      32.880 -14.386 -26.249  0.00  0.00    +0.122 C 
ATOM     14  C   UNL     1      33.601 -13.468 -27.228  0.00  0.00    +0.032 C 
BRANCH  13  15
ATOM     15  O   UNL     1      32.311 -15.481 -26.965  0.00  0.00    -0.384 OA
ATOM     16  H   UNL     1      32.349 -15.300 -27.917  0.00  0.00    +0.210 HD
ENDBRANCH  13  15
ENDBRANCH   4  13
BRANCH   8  17
ATOM     17  S   UNL     1      36.079 -17.887 -21.491  0.00  0.00    -0.106 S 
BRANCH  17  20
ATOM     18  S   UNL     1      33.121 -20.929 -20.529  0.00  0.00    +0.043 S 
ATOM     19  O   UNL     1      32.502 -20.667 -19.187  0.00  0.00    -0.256 OA
ATOM     20  C   UNL     1      35.230 -19.488 -21.412  0.00  0.00    +0.067 C 
ATOM     21  C   UNL     1      35.743 -20.342 -20.261  0.00  0.00    +0.026 C 
ATOM     22  C   UNL     1      33.739 -19.317 -21.159  0.00  0.00    +0.103 C 
ATOM     23  C   UNL     1      34.818 -21.547 -20.231  0.00  0.00    +0.093 C 
ENDBRANCH  17  20
ENDBRANCH   8  17
TORSDOF 6
ENDMDL
MODEL 5
REMARK VINA RESULT:      -7.1      9.171     12.795
REMARK  Name = 9950244
REMARK  6 active torsions:
REMARK  status: ('A' for Active; 'I' for Inactive)
REMARK    1  A    between atoms: C_4  and  C_13
REMARK    2  A    between atoms: C_7  and  C_10
REMARK    3  A    between atoms: C_8  and  S_17
REMARK    4  A    between atoms: C_10  and  O_11
REMARK    5  A    between atoms: C_13  and  O_15
REMARK    6  A    between atoms: S_17  and  C_20
REMARK                            x       y       z     vdW  Elec       q    Type
REMARK                         _______ _______ _______ _____ _____    ______ ____
ROOT
ATOM      1  S   UNL     1      35.548 -23.096 -16.480  0.00  0.00    -0.086 S 
ATOM      2  O   UNL     1      32.508 -25.018 -13.784  0.00  0.00    -0.274 OA
ATOM      3  N   UNL     1      33.435 -23.166 -14.922  0.00  0.00    -0.244 N 
ATOM      4  C   UNL     1      34.924 -24.181 -13.887  0.00  0.00    +0.133 C 
ATOM      5  C   UNL     1      34.881 -22.931 -14.783  0.00  0.00    +0.143 C 
ATOM      6  C   UNL     1      33.392 -24.252 -14.095  0.00  0.00    +0.235 C 
ATOM      7  C   UNL     1      32.981 -23.141 -16.217  0.00  0.00    +0.142 C 
ATOM      8  C   UNL     1      33.932 -23.067 -17.163  0.00  0.00    +0.072 C 
ENDROOT
BRANCH   7  10
ATOM      9  O   UNL     1      30.857 -22.382 -16.969  0.00  0.00    -0.244 OA
ATOM     10  C   UNL     1      31.539 -23.249 -16.453  0.00  0.00    +0.353 C 
BRANCH  10  11
ATOM     11  O   UNL     1      31.096 -24.445 -16.010  0.00  0.00    -0.476 OA
ATOM     12  H   UNL     1      31.555 -24.891 -15.326  0.00  0.00    +0.295 HD
ENDBRANCH  10  11
ENDBRANCH   7  10
BRANCH   4  13
ATOM     13  C   UNL     1      35.355 -24.073 -12.442  0.00  0.00    +0.122 C 
ATOM     14  C   UNL     1      36.291 -25.213 -12.059  0.00  0.00    +0.032 C 
BRANCH  13  15
ATOM     15  O   UNL     1      36.025 -22.829 -12.241  0.00  0.00    -0.384 OA
ATOM     16  H   UNL     1      35.437 -22.217 -11.772  0.00  0.00    +0.210 HD
ENDBRANCH  13  15
ENDBRANCH   4  13
BRANCH   8  17
ATOM     17  S   UNL     1      33.686 -23.039 -18.867  0.00  0.00    -0.106 S 
BRANCH  17  20
ATOM     18  S   UNL     1      34.614 -19.355 -20.988  0.00  0.00    +0.043 S 
ATOM     19  O   UNL     1      34.557 -19.565 -22.472  0.00  0.00    -0.256 OA
ATOM     20  C   UNL     1      34.419 -21.428 -19.265  0.00  0.00    +0.067 C 
ATOM     21  C   UNL     1      35.759 -21.578 -19.971  0.00  0.00    +0.026 C 
ATOM     22  C   UNL     1      33.540 -20.637 -20.223  0.00  0.00    +0.103 C 
ATOM     23  C   UNL     1      36.140 -20.167 -20.384  0.00  0.00    +0.093 C 
ENDBRANCH  17  20
ENDBRANCH   8  17
TORSDOF 6
ENDMDL
MODEL 6
REMARK VINA RESULT:      -7.1     11.186     15.194
REMARK  Name = 9950244
REMARK  6 active torsions:
REMARK  status: ('A' for Active; 'I' for Inactive)
REMARK    1  A    between atoms: C_4  and  C_13
REMARK    2  A    between atoms: C_7  and  C_10
REMARK    3  A    between atoms: C_8  and  S_17
REMARK    4  A    between atoms: C_10  and  O_11
REMARK    5  A    between atoms: C_13  and  O_15
REMARK    6  A    between atoms: S_17  and  C_20
REMARK                            x       y       z     vdW  Elec       q    Type
REMARK                         _______ _______ _______ _____ _____    ______ ____
ROOT
ATOM      1  S   UNL     1      35.662 -23.134 -15.617  0.00  0.00    -0.086 S 
ATOM      2  O   UNL     1      31.270 -22.616 -16.419  0.00  0.00    -0.274 OA
ATOM      3  N   UNL     1      33.192 -23.931 -16.026  0.00  0.00    -0.244 N 
ATOM      4  C   UNL     1      33.581 -22.533 -17.514  0.00  0.00    +0.133 C 
ATOM      5  C   UNL     1      34.392 -23.649 -16.830  0.00  0.00    +0.143 C 
ATOM      6  C   UNL     1      32.401 -22.994 -16.625  0.00  0.00    +0.235 C 
ATOM      7  C   UNL     1      33.427 -24.020 -14.675  0.00  0.00    +0.142 C 
ATOM      8  C   UNL     1      34.666 -23.683 -14.280  0.00  0.00    +0.072 C 
ENDROOT
BRANCH   7  10
ATOM      9  O   UNL     1      31.692 -23.643 -13.096  0.00  0.00    -0.244 OA
ATOM     10  C   UNL     1      32.320 -24.412 -13.800  0.00  0.00    +0.353 C 
BRANCH  10  11
ATOM     11  O   UNL     1      32.115 -25.743 -13.899  0.00  0.00    -0.476 OA
ATOM     12  H   UNL     1      31.292 -26.068 -14.207  0.00  0.00    +0.295 HD
ENDBRANCH  10  11
ENDBRANCH   7  10
BRANCH   4  13
ATOM     13  C   UNL     1      33.304 -22.589 -18.999  0.00  0.00    +0.122 C 
ATOM     14  C   UNL     1      33.560 -21.238 -19.657  0.00  0.00    +0.032 C 
BRANCH  13  15
ATOM     15  O   UNL     1      34.148 -23.569 -19.601  0.00  0.00    -0.384 OA
ATOM     16  H   UNL     1      34.754 -23.138 -20.223  0.00  0.00    +0.210 HD
ENDBRANCH  13  15
ENDBRANCH   4  13
BRANCH   8  17
ATOM     17  S   UNL     1      35.260 -23.672 -12.664  0.00  0.00    -0.106 S 
BRANCH  17  20
ATOM     18  S   UNL     1      39.135 -25.430 -13.571  0.00  0.00    +0.043 S 
ATOM     19  O   UNL     1      39.743 -24.787 -14.783  0.00  0.00    -0.256 OA
ATOM     20  C   UNL     1      36.599 -24.887 -12.811  0.00  0.00    +0.067 C 
ATOM     21  C   UNL     1      36.501 -25.679 -14.107  0.00  0.00    +0.026 C 
ATOM     22  C   UNL     1      37.963 -24.211 -12.849  0.00  0.00    +0.103 C 
ATOM     23  C   UNL     1      37.774 -26.507 -14.153  0.00  0.00    +0.093 C 
ENDBRANCH  17  20
ENDBRANCH   8  17
TORSDOF 6
ENDMDL
MODEL 7
REMARK VINA RESULT:      -7.1     12.862     14.676
REMARK  Name = 9950244
REMARK  6 active torsions:
REMARK  status: ('A' for Active; 'I' for Inactive)
REMARK    1  A    between atoms: C_4  and  C_13
REMARK    2  A    between atoms: C_7  and  C_10
REMARK    3  A    between atoms: C_8  and  S_17
REMARK    4  A    between atoms: C_10  and  O_11
REMARK    5  A    between atoms: C_13  and  O_15
REMARK    6  A    between atoms: S_17  and  C_20
REMARK                            x       y       z     vdW  Elec       q    Type
REMARK                         _______ _______ _______ _____ _____    ______ ____
ROOT
ATOM      1  S   UNL     1      32.939 -24.937 -14.477  0.00  0.00    -0.086 S 
ATOM      2  O   UNL     1      32.214 -22.505 -18.187  0.00  0.00    -0.274 OA
ATOM      3  N   UNL     1      33.007 -22.783 -15.978  0.00  0.00    -0.244 N 
ATOM      4  C   UNL     1      31.065 -23.510 -16.132  0.00  0.00    +0.133 C 
ATOM      5  C   UNL     1      32.098 -23.397 -14.997  0.00  0.00    +0.143 C 
ATOM      6  C   UNL     1      32.121 -22.805 -17.018  0.00  0.00    +0.235 C 
ATOM      7  C   UNL     1      34.266 -23.331 -16.001  0.00  0.00    +0.142 C 
ATOM      8  C   UNL     1      34.431 -24.433 -15.251  0.00  0.00    +0.072 C 
ENDROOT
BRANCH   7  10
ATOM      9  O   UNL     1      36.244 -22.094 -16.455  0.00  0.00    -0.244 OA
ATOM     10  C   UNL     1      35.278 -22.715 -16.861  0.00  0.00    +0.353 C 
BRANCH  10  11
ATOM     11  O   UNL     1      34.972 -22.942 -18.156  0.00  0.00    -0.476 OA
ATOM     12  H   UNL     1      34.118 -23.250 -18.389  0.00  0.00    +0.295 HD
ENDBRANCH  10  11
ENDBRANCH   7  10
BRANCH   4  13
ATOM     13  C   UNL     1      29.743 -22.784 -16.039  0.00  0.00    +0.122 C 
ATOM     14  C   UNL     1      28.601 -23.651 -16.555  0.00  0.00    +0.032 C 
BRANCH  13  15
ATOM     15  O   UNL     1      29.489 -22.438 -14.678  0.00  0.00    -0.384 OA
ATOM     16  H   UNL     1      29.537 -23.234 -14.127  0.00  0.00    +0.210 HD
ENDBRANCH  13  15
ENDBRANCH   4  13
BRANCH   8  17
ATOM     17  S   UNL     1      35.875 -25.356 -15.087  0.00  0.00    -0.106 S 
BRANCH  17  20
ATOM     18  S   UNL     1      37.173 -23.054 -11.630  0.00  0.00    +0.043 S 
ATOM     19  O   UNL     1      38.156 -21.994 -12.033  0.00  0.00    -0.256 OA
ATOM     20  C   UNL     1      36.330 -24.931 -13.383  0.00  0.00    +0.067 C 
ATOM     21  C   UNL     1      37.794 -25.233 -13.098  0.00  0.00    +0.026 C 
ATOM     22  C   UNL     1      36.162 -23.441 -13.117  0.00  0.00    +0.103 C 
ATOM     23  C   UNL     1      38.046 -24.661 -11.713  0.00  0.00    +0.093 C 
ENDBRANCH  17  20
ENDBRANCH   8  17
TORSDOF 6
ENDMDL
MODEL 8
REMARK VINA RESULT:      -7.1      1.239      1.662
REMARK  Name = 9950244
REMARK  6 active torsions:
REMARK  status: ('A' for Active; 'I' for Inactive)
REMARK    1  A    between atoms: C_4  and  C_13
REMARK    2  A    between atoms: C_7  and  C_10
REMARK    3  A    between atoms: C_8  and  S_17
REMARK    4  A    between atoms: C_10  and  O_11
REMARK    5  A    between atoms: C_13  and  O_15
REMARK    6  A    between atoms: S_17  and  C_20
REMARK                            x       y       z     vdW  Elec       q    Type
REMARK                         _______ _______ _______ _____ _____    ______ ____
ROOT
ATOM      1  S   UNL     1      34.246 -13.837 -22.498  0.00  0.00    -0.086 S 
ATOM      2  O   UNL     1      34.743 -16.742 -25.892  0.00  0.00    -0.274 OA
ATOM      3  N   UNL     1      33.441 -15.379 -24.466  0.00  0.00    -0.244 N 
ATOM      4  C   UNL     1      34.743 -16.545 -23.341  0.00  0.00    +0.133 C 
ATOM      5  C   UNL     1      33.666 -15.494 -23.017  0.00  0.00    +0.143 C 
ATOM      6  C   UNL     1      34.345 -16.339 -24.822  0.00  0.00    +0.235 C 
ATOM      7  C   UNL     1      33.434 -14.088 -24.936  0.00  0.00    +0.142 C 
ATOM      8  C   UNL     1      33.787 -13.147 -24.045  0.00  0.00    +0.072 C 
ENDROOT
BRANCH   7  10
ATOM      9  O   UNL     1      33.781 -13.205 -27.115  0.00  0.00    -0.244 OA
ATOM     10  C   UNL     1      33.103 -13.861 -26.344  0.00  0.00    +0.353 C 
BRANCH  10  11
ATOM     11  O   UNL     1      31.945 -14.486 -26.644  0.00  0.00    -0.476 OA
ATOM     12  H   UNL     1      31.869 -14.978 -27.437  0.00  0.00    +0.295 HD
ENDBRANCH  10  11
ENDBRANCH   7  10
BRANCH   4  13
ATOM     13  C   UNL     1      34.599 -17.966 -22.846  0.00  0.00    +0.122 C 
ATOM     14  C   UNL     1      35.868 -18.769 -23.102  0.00  0.00    +0.032 C 
BRANCH  13  15
ATOM     15  O   UNL     1      34.328 -17.954 -21.445  0.00  0.00    -0.384 OA
ATOM     16  H   UNL     1      33.419 -18.253 -21.289  0.00  0.00    +0.210 HD
ENDBRANCH  13  15
ENDBRANCH   4  13
BRANCH   8  17
ATOM     17  S   UNL     1      33.893 -11.452 -24.331  0.00  0.00    -0.106 S 
BRANCH  17  20
ATOM     18  S   UNL     1      31.563  -9.480 -21.230  0.00  0.00    +0.043 S 
ATOM     19  O   UNL     1      32.319  -9.447 -19.934  0.00  0.00    -0.256 OA
ATOM     20  C   UNL     1      32.475 -10.878 -23.356  0.00  0.00    +0.067 C 
ATOM     21  C   UNL     1      32.056 -11.904 -22.312  0.00  0.00    +0.026 C 
ATOM     22  C   UNL     1      32.810  -9.616 -22.574  0.00  0.00    +0.103 C 
ATOM     23  C   UNL     1      30.994 -11.202 -21.483  0.00  0.00    +0.093 C 
ENDBRANCH  17  20
ENDBRANCH   8  17
TORSDOF 6
ENDMDL
MODEL 9
REMARK VINA RESULT:      -7.0      2.855      7.392
REMARK  Name = 9950244
REMARK  6 active torsions:
REMARK  status: ('A' for Active; 'I' for Inactive)
REMARK    1  A    between atoms: C_4  and  C_13
REMARK    2  A    between atoms: C_7  and  C_10
REMARK    3  A    between atoms: C_8  and  S_17
REMARK    4  A    between atoms: C_10  and  O_11
REMARK    5  A    between atoms: C_13  and  O_15
REMARK    6  A    between atoms: S_17  and  C_20
REMARK                            x       y       z     vdW  Elec       q    Type
REMARK                         _______ _______ _______ _____ _____    ______ ____
ROOT
ATOM      1  S   UNL     1      31.473 -10.635 -21.893  0.00  0.00    -0.086 S 
ATOM      2  O   UNL     1      33.156  -7.454 -24.586  0.00  0.00    -0.274 OA
ATOM      3  N   UNL     1      33.356  -9.120 -22.923  0.00  0.00    -0.244 N 
ATOM      4  C   UNL     1      31.796  -7.829 -22.452  0.00  0.00    +0.133 C 
ATOM      5  C   UNL     1      32.418  -9.071 -21.789  0.00  0.00    +0.143 C 
ATOM      6  C   UNL     1      32.886  -7.995 -23.538  0.00  0.00    +0.235 C 
ATOM      7  C   UNL     1      33.464 -10.355 -23.512  0.00  0.00    +0.142 C 
ATOM      8  C   UNL     1      32.595 -11.282 -23.077  0.00  0.00    +0.072 C 
ENDROOT
BRANCH   7  10
ATOM      9  O   UNL     1      34.231 -11.064 -25.648  0.00  0.00    -0.244 OA
ATOM     10  C   UNL     1      34.457 -10.536 -24.574  0.00  0.00    +0.353 C 
BRANCH  10  11
ATOM     11  O   UNL     1      35.644 -10.031 -24.175  0.00  0.00    -0.476 OA
ATOM     12  H   UNL     1      36.229 -10.556 -23.666  0.00  0.00    +0.295 HD
ENDBRANCH  10  11
ENDBRANCH   7  10
BRANCH   4  13
ATOM     13  C   UNL     1      31.817  -6.493 -21.744  0.00  0.00    +0.122 C 
ATOM     14  C   UNL     1      30.595  -5.658 -22.109  0.00  0.00    +0.032 C 
BRANCH  13  15
ATOM     15  O   UNL     1      31.834  -6.706 -20.333  0.00  0.00    -0.384 OA
ATOM     16  H   UNL     1      30.959  -7.004 -20.040  0.00  0.00    +0.210 HD
ENDBRANCH  13  15
ENDBRANCH   4  13
BRANCH   8  17
ATOM     17  S   UNL     1      32.467 -12.908 -23.629  0.00  0.00    -0.106 S 
BRANCH  17  20
ATOM     18  S   UNL     1      34.690 -15.988 -21.508  0.00  0.00    +0.043 S 
ATOM     19  O   UNL     1      34.207 -17.356 -21.893  0.00  0.00    -0.256 OA
ATOM     20  C   UNL     1      33.401 -13.758 -22.328  0.00  0.00    +0.067 C 
ATOM     21  C   UNL     1      32.480 -14.447 -21.331  0.00  0.00    +0.026 C 
ATOM     22  C   UNL     1      34.278 -14.862 -22.902  0.00  0.00    +0.103 C 
ATOM     23  C   UNL     1      33.409 -15.244 -20.432  0.00  0.00    +0.093 C 
ENDBRANCH  17  20
ENDBRANCH   8  17
TORSDOF 6
ENDMDL
