MODEL 1
REMARK VINA RESULT:      -7.4      0.000      0.000
REMARK  Name = 15479177
REMARK  5 active torsions:
REMARK  status: ('A' for Active; 'I' for Inactive)
REMARK    1  A    between atoms: C_4  and  C_23
REMARK    2  A    between atoms: C_6  and  C_26
REMARK    3  A    between atoms: C_23  and  O_24
REMARK    4  A    between atoms: C_26  and  C_27
REMARK    5  A    between atoms: C_27  and  O_28
REMARK                            x       y       z     vdW  Elec       q    Type
REMARK                         _______ _______ _______ _____ _____    ______ ____
ROOT
ATOM      1  N   UNL     1      34.693 -18.396 -23.406  0.00  0.00    +0.389 N 
ATOM      2  N   UNL     1      33.992 -14.141 -23.321  0.00  0.00    -0.356 N 
ATOM      3  C   UNL     1      33.728 -17.890 -22.417  0.00  0.00    -0.042 C 
ATOM      4  C   UNL     1      33.978 -16.369 -22.130  0.00  0.00    +0.105 C 
ATOM      5  C   UNL     1      36.147 -17.557 -21.596  0.00  0.00    -0.020 C 
ATOM      6  C   UNL     1      33.973 -18.718 -21.113  0.00  0.00    -0.016 C 
ATOM      7  C   UNL     1      35.391 -16.216 -21.504  0.00  0.00    +0.012 C 
ATOM      8  C   UNL     1      35.450 -18.582 -20.688  0.00  0.00    -0.004 C 
ATOM      9  C   UNL     1      36.079 -18.055 -23.054  0.00  0.00    -0.077 C 
ATOM     10  C   UNL     1      33.832 -15.508 -23.369  0.00  0.00    +0.037 A 
ATOM     11  C   UNL     1      34.375 -18.239 -24.824  0.00  0.00    -0.072 C 
ATOM     12  C   UNL     1      33.560 -15.841 -24.688  0.00  0.00    -0.011 A 
ATOM     13  C   UNL     1      33.294 -17.218 -25.203  0.00  0.00    +0.005 C 
ATOM     14  C   UNL     1      33.561 -14.627 -25.449  0.00  0.00    +0.013 A 
ATOM     15  C   UNL     1      33.836 -13.585 -24.566  0.00  0.00    +0.056 A 
ATOM     16  C   UNL     1      33.352 -14.315 -26.810  0.00  0.00    +0.001 C 
ATOM     17  C   UNL     1      33.916 -12.247 -24.969  0.00  0.00    +0.017 C 
ATOM     18  C   UNL     1      33.428 -12.982 -27.230  0.00  0.00    +0.000 C 
ATOM     19  C   UNL     1      33.707 -11.965 -26.322  0.00  0.00    +0.001 C 
ATOM     20  H   UNL     1      34.593 -19.408 -23.320  0.00  0.00    -0.080 HD
ATOM     21  H   UNL     1      34.191 -13.630 -22.503  0.00  0.00    +0.166 HD
ENDROOT
BRANCH   4  23
ATOM     22  O   UNL     1      31.813 -16.382 -21.048  0.00  0.00    -0.250 OA
ATOM     23  C   UNL     1      32.920 -15.875 -21.169  0.00  0.00    +0.319 C 
BRANCH  23  24
ATOM     24  O   UNL     1      33.397 -14.799 -20.479  0.00  0.00    -0.444 OA
ATOM     25  C   UNL     1      32.495 -13.695 -20.363  0.00  0.00    +0.256 C 
ENDBRANCH  23  24
ENDBRANCH   4  23
BRANCH   6  26
ATOM     26  C   UNL     1      33.577 -20.189 -21.267  0.00  0.00    +0.030 C 
BRANCH  26  27
ATOM     27  C   UNL     1      32.811 -20.683 -20.057  0.00  0.00    +0.142 C 
BRANCH  27  28
ATOM     28  O   UNL     1      33.115 -22.058 -19.866  0.00  0.00    -0.351 OA
ATOM     29  C   UNL     1      34.380 -22.229 -19.239  0.00  0.00    +0.174 C 
ENDBRANCH  27  28
ENDBRANCH  26  27
ENDBRANCH   6  26
TORSDOF 5
ENDMDL
MODEL 2
REMARK VINA RESULT:      -6.7      2.370      6.935
REMARK  Name = 15479177
REMARK  5 active torsions:
REMARK  status: ('A' for Active; 'I' for Inactive)
REMARK    1  A    between atoms: C_4  and  C_23
REMARK    2  A    between atoms: C_6  and  C_26
REMARK    3  A    between atoms: C_23  and  O_24
REMARK    4  A    between atoms: C_26  and  C_27
REMARK    5  A    between atoms: C_27  and  O_28
REMARK                            x       y       z     vdW  Elec       q    Type
REMARK                         _______ _______ _______ _____ _____    ______ ____
ROOT
ATOM      1  N   UNL     1      32.651 -15.698 -21.122  0.00  0.00    +0.389 N 
ATOM      2  N   UNL     1      35.346 -19.059 -21.346  0.00  0.00    -0.356 N 
ATOM      3  C   UNL     1      33.169 -16.062 -22.451  0.00  0.00    -0.042 C 
ATOM      4  C   UNL     1      34.495 -16.889 -22.319  0.00  0.00    +0.105 C 
ATOM      5  C   UNL     1      34.907 -14.694 -21.130  0.00  0.00    -0.020 C 
ATOM      6  C   UNL     1      33.463 -14.711 -23.183  0.00  0.00    -0.016 C 
ATOM      7  C   UNL     1      35.567 -15.989 -21.646  0.00  0.00    +0.012 C 
ATOM      8  C   UNL     1      34.433 -13.865 -22.332  0.00  0.00    -0.004 C 
ATOM      9  C   UNL     1      33.682 -15.080 -20.275  0.00  0.00    -0.077 C 
ATOM     10  C   UNL     1      34.305 -18.182 -21.552  0.00  0.00    +0.037 A 
ATOM     11  C   UNL     1      31.797 -16.659 -20.428  0.00  0.00    -0.072 C 
ATOM     12  C   UNL     1      33.188 -18.720 -20.929  0.00  0.00    -0.011 A 
ATOM     13  C   UNL     1      31.822 -18.114 -20.912  0.00  0.00    +0.005 C 
ATOM     14  C   UNL     1      33.583 -19.960 -20.330  0.00  0.00    +0.013 A 
ATOM     15  C   UNL     1      34.937 -20.141 -20.608  0.00  0.00    +0.056 A 
ATOM     16  C   UNL     1      32.914 -20.950 -19.577  0.00  0.00    +0.001 C 
ATOM     17  C   UNL     1      35.660 -21.258 -20.172  0.00  0.00    +0.017 C 
ATOM     18  C   UNL     1      33.623 -22.073 -19.134  0.00  0.00    +0.000 C 
ATOM     19  C   UNL     1      34.976 -22.222 -19.427  0.00  0.00    +0.001 C 
ATOM     20  H   UNL     1      31.960 -14.980 -21.340  0.00  0.00    -0.080 HD
ATOM     21  H   UNL     1      36.261 -18.928 -21.684  0.00  0.00    +0.166 HD
ENDROOT
BRANCH   4  23
ATOM     22  O   UNL     1      35.602 -16.590 -24.451  0.00  0.00    -0.250 OA
ATOM     23  C   UNL     1      34.949 -17.303 -23.702  0.00  0.00    +0.319 C 
BRANCH  23  24
ATOM     24  O   UNL     1      34.518 -18.571 -23.962  0.00  0.00    -0.444 OA
ATOM     25  C   UNL     1      34.015 -18.791 -25.283  0.00  0.00    +0.256 C 
ENDBRANCH  23  24
ENDBRANCH   4  23
BRANCH   6  26
ATOM     26  C   UNL     1      32.187 -13.928 -23.507  0.00  0.00    +0.030 C 
BRANCH  26  27
ATOM     27  C   UNL     1      32.202 -12.557 -22.862  0.00  0.00    +0.142 C 
BRANCH  27  28
ATOM     28  O   UNL     1      31.574 -12.655 -21.591  0.00  0.00    -0.351 OA
ATOM     29  C   UNL     1      31.014 -11.412 -21.190  0.00  0.00    +0.174 C 
ENDBRANCH  27  28
ENDBRANCH  26  27
ENDBRANCH   6  26
TORSDOF 5
ENDMDL
MODEL 3
REMARK VINA RESULT:      -6.6      7.809     10.950
REMARK  Name = 15479177
REMARK  5 active torsions:
REMARK  status: ('A' for Active; 'I' for Inactive)
REMARK    1  A    between atoms: C_4  and  C_23
REMARK    2  A    between atoms: C_6  and  C_26
REMARK    3  A    between atoms: C_23  and  O_24
REMARK    4  A    between atoms: C_26  and  C_27
REMARK    5  A    between atoms: C_27  and  O_28
REMARK                            x       y       z     vdW  Elec       q    Type
REMARK                         _______ _______ _______ _____ _____    ______ ____
ROOT
ATOM      1  N   UNL     1      31.106  -6.300 -22.277  0.00  0.00    +0.389 N 
ATOM      2  N   UNL     1      32.778  -5.535 -26.179  0.00  0.00    -0.356 N 
ATOM      3  C   UNL     1      32.537  -6.588 -22.468  0.00  0.00    -0.042 C 
ATOM      4  C   UNL     1      32.861  -6.790 -23.988  0.00  0.00    +0.105 C 
ATOM      5  C   UNL     1      31.081  -8.493 -23.410  0.00  0.00    -0.020 C 
ATOM      6  C   UNL     1      32.816  -7.916 -21.689  0.00  0.00    -0.016 C 
ATOM      7  C   UNL     1      32.077  -8.032 -24.494  0.00  0.00    +0.012 C 
ATOM      8  C   UNL     1      31.870  -9.022 -22.203  0.00  0.00    -0.004 C 
ATOM      9  C   UNL     1      30.247  -7.274 -22.966  0.00  0.00    -0.077 C 
ATOM     10  C   UNL     1      32.544  -5.565 -24.822  0.00  0.00    +0.037 A 
ATOM     11  C   UNL     1      30.660  -4.913 -22.394  0.00  0.00    -0.072 C 
ATOM     12  C   UNL     1      31.990  -4.341 -24.476  0.00  0.00    -0.011 A 
ATOM     13  C   UNL     1      31.595  -3.921 -23.097  0.00  0.00    +0.005 C 
ATOM     14  C   UNL     1      31.891  -3.558 -25.672  0.00  0.00    +0.013 A 
ATOM     15  C   UNL     1      32.389  -4.334 -26.717  0.00  0.00    +0.056 A 
ATOM     16  C   UNL     1      31.424  -2.258 -25.965  0.00  0.00    +0.001 C 
ATOM     17  C   UNL     1      32.444  -3.882 -28.041  0.00  0.00    +0.017 C 
ATOM     18  C   UNL     1      31.473  -1.791 -27.283  0.00  0.00    +0.000 C 
ATOM     19  C   UNL     1      31.975  -2.592 -28.305  0.00  0.00    +0.001 C 
ATOM     20  H   UNL     1      30.982  -6.435 -21.273  0.00  0.00    -0.080 HD
ATOM     21  H   UNL     1      33.172  -6.275 -26.694  0.00  0.00    +0.166 HD
ENDROOT
BRANCH   4  23
ATOM     22  O   UNL     1      35.090  -6.265 -24.772  0.00  0.00    -0.250 OA
ATOM     23  C   UNL     1      34.350  -7.008 -24.143  0.00  0.00    +0.319 C 
BRANCH  23  24
ATOM     24  O   UNL     1      34.716  -8.143 -23.480  0.00  0.00    -0.444 OA
ATOM     25  C   UNL     1      35.022  -9.268 -24.309  0.00  0.00    +0.256 C 
ENDBRANCH  23  24
ENDBRANCH   4  23
BRANCH   6  26
ATOM     26  C   UNL     1      32.693  -7.746 -20.173  0.00  0.00    +0.030 C 
BRANCH  26  27
ATOM     27  C   UNL     1      31.645  -8.677 -19.597  0.00  0.00    +0.142 C 
BRANCH  27  28
ATOM     28  O   UNL     1      32.309  -9.765 -18.969  0.00  0.00    -0.351 OA
ATOM     29  C   UNL     1      31.576 -10.974 -19.109  0.00  0.00    +0.174 C 
ENDBRANCH  27  28
ENDBRANCH  26  27
ENDBRANCH   6  26
TORSDOF 5
ENDMDL
MODEL 4
REMARK VINA RESULT:      -6.5     10.301     12.670
REMARK  Name = 15479177
REMARK  5 active torsions:
REMARK  status: ('A' for Active; 'I' for Inactive)
REMARK    1  A    between atoms: C_4  and  C_23
REMARK    2  A    between atoms: C_6  and  C_26
REMARK    3  A    between atoms: C_23  and  O_24
REMARK    4  A    between atoms: C_26  and  C_27
REMARK    5  A    between atoms: C_27  and  O_28
REMARK                            x       y       z     vdW  Elec       q    Type
REMARK                         _______ _______ _______ _____ _____    ______ ____
ROOT
ATOM      1  N   UNL     1      37.516 -22.972 -14.338  0.00  0.00    +0.389 N 
ATOM      2  N   UNL     1      33.744 -25.022 -13.925  0.00  0.00    -0.356 N 
ATOM      3  C   UNL     1      37.532 -24.440 -14.429  0.00  0.00    -0.042 C 
ATOM      4  C   UNL     1      36.263 -25.050 -13.739  0.00  0.00    +0.105 C 
ATOM      5  C   UNL     1      37.439 -23.672 -11.972  0.00  0.00    -0.020 C 
ATOM      6  C   UNL     1      38.818 -24.905 -13.670  0.00  0.00    -0.016 C 
ATOM      7  C   UNL     1      36.308 -24.688 -12.229  0.00  0.00    +0.012 C 
ATOM      8  C   UNL     1      38.790 -24.357 -12.227  0.00  0.00    -0.004 C 
ATOM      9  C   UNL     1      37.277 -22.503 -12.965  0.00  0.00    -0.077 C 
ATOM     10  C   UNL     1      34.969 -24.583 -14.375  0.00  0.00    +0.037 A 
ATOM     11  C   UNL     1      36.793 -22.225 -15.365  0.00  0.00    -0.072 C 
ATOM     12  C   UNL     1      34.729 -23.697 -15.415  0.00  0.00    -0.011 A 
ATOM     13  C   UNL     1      35.772 -22.990 -16.217  0.00  0.00    +0.005 C 
ATOM     14  C   UNL     1      33.309 -23.607 -15.586  0.00  0.00    +0.013 A 
ATOM     15  C   UNL     1      32.724 -24.445 -14.639  0.00  0.00    +0.056 A 
ATOM     16  C   UNL     1      32.464 -22.890 -16.461  0.00  0.00    +0.001 C 
ATOM     17  C   UNL     1      31.338 -24.604 -14.516  0.00  0.00    +0.017 C 
ATOM     18  C   UNL     1      31.076 -23.039 -16.352  0.00  0.00    +0.000 C 
ATOM     19  C   UNL     1      30.524 -23.883 -15.393  0.00  0.00    +0.001 C 
ATOM     20  H   UNL     1      38.474 -22.721 -14.587  0.00  0.00    -0.080 HD
ATOM     21  H   UNL     1      33.617 -25.665 -13.191  0.00  0.00    +0.166 HD
ENDROOT
BRANCH   4  23
ATOM     22  O   UNL     1      36.658 -27.341 -13.065  0.00  0.00    -0.250 OA
ATOM     23  C   UNL     1      36.284 -26.552 -13.921  0.00  0.00    +0.319 C 
BRANCH  23  24
ATOM     24  O   UNL     1      35.826 -26.865 -15.167  0.00  0.00    -0.444 OA
ATOM     25  C   UNL     1      36.812 -27.363 -16.077  0.00  0.00    +0.256 C 
ENDBRANCH  23  24
ENDBRANCH   4  23
BRANCH   6  26
ATOM     26  C   UNL     1      40.106 -24.496 -14.389  0.00  0.00    +0.030 C 
BRANCH  26  27
ATOM     27  C   UNL     1      40.589 -25.591 -15.320  0.00  0.00    +0.142 C 
BRANCH  27  28
ATOM     28  O   UNL     1      40.364 -26.845 -14.690  0.00  0.00    -0.351 OA
ATOM     29  C   UNL     1      41.420 -27.176 -13.797  0.00  0.00    +0.174 C 
ENDBRANCH  27  28
ENDBRANCH  26  27
ENDBRANCH   6  26
TORSDOF 5
ENDMDL
MODEL 5
REMARK VINA RESULT:      -6.3      4.611      9.250
REMARK  Name = 15479177
REMARK  5 active torsions:
REMARK  status: ('A' for Active; 'I' for Inactive)
REMARK    1  A    between atoms: C_4  and  C_23
REMARK    2  A    between atoms: C_6  and  C_26
REMARK    3  A    between atoms: C_23  and  O_24
REMARK    4  A    between atoms: C_26  and  C_27
REMARK    5  A    between atoms: C_27  and  O_28
REMARK                            x       y       z     vdW  Elec       q    Type
REMARK                         _______ _______ _______ _____ _____    ______ ____
ROOT
ATOM      1  N   UNL     1      31.901  -9.029 -22.320  0.00  0.00    +0.389 N 
ATOM      2  N   UNL     1      34.311 -12.496 -23.203  0.00  0.00    -0.356 N 
ATOM      3  C   UNL     1      32.165  -9.326 -23.737  0.00  0.00    -0.042 C 
ATOM      4  C   UNL     1      33.441 -10.224 -23.884  0.00  0.00    +0.105 C 
ATOM      5  C   UNL     1      34.179  -8.140 -22.655  0.00  0.00    -0.020 C 
ATOM      6  C   UNL     1      32.412  -7.944 -24.427  0.00  0.00    -0.016 C 
ATOM      7  C   UNL     1      34.663  -9.427 -23.352  0.00  0.00    +0.012 C 
ATOM      8  C   UNL     1      33.561  -7.207 -23.707  0.00  0.00    -0.004 C 
ATOM      9  C   UNL     1      33.095  -8.523 -21.627  0.00  0.00    -0.077 C 
ATOM     10  C   UNL     1      33.305 -11.556 -23.174  0.00  0.00    +0.037 A 
ATOM     11  C   UNL     1      31.119  -9.993 -21.547  0.00  0.00    -0.072 C 
ATOM     12  C   UNL     1      32.278 -12.080 -22.401  0.00  0.00    -0.011 A 
ATOM     13  C   UNL     1      30.974 -11.411 -22.114  0.00  0.00    +0.005 C 
ATOM     14  C   UNL     1      32.693 -13.377 -21.954  0.00  0.00    +0.013 A 
ATOM     15  C   UNL     1      33.968 -13.605 -22.470  0.00  0.00    +0.056 A 
ATOM     16  C   UNL     1      32.102 -14.382 -21.158  0.00  0.00    +0.001 C 
ATOM     17  C   UNL     1      34.685 -14.783 -22.232  0.00  0.00    +0.017 C 
ATOM     18  C   UNL     1      32.807 -15.566 -20.910  0.00  0.00    +0.000 C 
ATOM     19  C   UNL     1      34.079 -15.761 -21.440  0.00  0.00    +0.001 C 
ATOM     20  H   UNL     1      31.227  -8.265 -22.372  0.00  0.00    -0.080 HD
ATOM     21  H   UNL     1      35.163 -12.388 -23.684  0.00  0.00    +0.166 HD
ENDROOT
BRANCH   4  23
ATOM     22  O   UNL     1      32.927 -11.353 -25.963  0.00  0.00    -0.250 OA
ATOM     23  C   UNL     1      33.630 -10.565 -25.346  0.00  0.00    +0.319 C 
BRANCH  23  24
ATOM     24  O   UNL     1      34.688  -9.862 -25.845  0.00  0.00    -0.444 OA
ATOM     25  C   UNL     1      35.645 -10.632 -26.579  0.00  0.00    +0.256 C 
ENDBRANCH  23  24
ENDBRANCH   4  23
BRANCH   6  26
ATOM     26  C   UNL     1      31.150  -7.079 -24.480  0.00  0.00    +0.030 C 
BRANCH  26  27
ATOM     27  C   UNL     1      31.460  -5.630 -24.161  0.00  0.00    +0.142 C 
BRANCH  27  28
ATOM     28  O   UNL     1      30.467  -5.147 -23.267  0.00  0.00    -0.351 OA
ATOM     29  C   UNL     1      30.758  -5.506 -21.923  0.00  0.00    +0.174 C 
ENDBRANCH  27  28
ENDBRANCH  26  27
ENDBRANCH   6  26
TORSDOF 5
ENDMDL
MODEL 6
REMARK VINA RESULT:      -6.3      2.169      7.022
REMARK  Name = 15479177
REMARK  5 active torsions:
REMARK  status: ('A' for Active; 'I' for Inactive)
REMARK    1  A    between atoms: C_4  and  C_23
REMARK    2  A    between atoms: C_6  and  C_26
REMARK    3  A    between atoms: C_23  and  O_24
REMARK    4  A    between atoms: C_26  and  C_27
REMARK    5  A    between atoms: C_27  and  O_28
REMARK                            x       y       z     vdW  Elec       q    Type
REMARK                         _______ _______ _______ _____ _____    ______ ____
ROOT
ATOM      1  N   UNL     1      32.496 -15.974 -21.098  0.00  0.00    +0.389 N 
ATOM      2  N   UNL     1      35.465 -19.097 -20.893  0.00  0.00    -0.356 N 
ATOM      3  C   UNL     1      33.266 -16.256 -22.320  0.00  0.00    -0.042 C 
ATOM      4  C   UNL     1      34.614 -16.976 -21.970  0.00  0.00    +0.105 C 
ATOM      5  C   UNL     1      34.625 -14.790 -20.695  0.00  0.00    -0.020 C 
ATOM      6  C   UNL     1      33.566 -14.865 -22.970  0.00  0.00    -0.016 C 
ATOM      7  C   UNL     1      35.472 -16.012 -21.105  0.00  0.00    +0.012 C 
ATOM      8  C   UNL     1      34.298 -13.968 -21.950  0.00  0.00    -0.004 C 
ATOM      9  C   UNL     1      33.308 -15.299 -20.074  0.00  0.00    -0.077 C 
ATOM     10  C   UNL     1      34.404 -18.302 -21.266  0.00  0.00    +0.037 A 
ATOM     11  C   UNL     1      31.619 -17.021 -20.578  0.00  0.00    -0.072 C 
ATOM     12  C   UNL     1      33.246 -18.947 -20.856  0.00  0.00    -0.011 A 
ATOM     13  C   UNL     1      31.851 -18.455 -21.071  0.00  0.00    +0.005 C 
ATOM     14  C   UNL     1      33.635 -20.168 -20.215  0.00  0.00    +0.013 A 
ATOM     15  C   UNL     1      35.027 -20.230 -20.253  0.00  0.00    +0.056 A 
ATOM     16  C   UNL     1      32.933 -21.230 -19.606  0.00  0.00    +0.001 C 
ATOM     17  C   UNL     1      35.756 -21.296 -19.713  0.00  0.00    +0.017 C 
ATOM     18  C   UNL     1      33.647 -22.303 -19.060  0.00  0.00    +0.000 C 
ATOM     19  C   UNL     1      35.038 -22.334 -19.114  0.00  0.00    +0.001 C 
ATOM     20  H   UNL     1      31.794 -15.309 -21.423  0.00  0.00    -0.080 HD
ATOM     21  H   UNL     1      36.410 -18.883 -21.063  0.00  0.00    +0.166 HD
ENDROOT
BRANCH   4  23
ATOM     22  O   UNL     1      36.061 -16.533 -23.859  0.00  0.00    -0.250 OA
ATOM     23  C   UNL     1      35.335 -17.312 -23.257  0.00  0.00    +0.319 C 
BRANCH  23  24
ATOM     24  O   UNL     1      35.045 -18.595 -23.619  0.00  0.00    -0.444 OA
ATOM     25  C   UNL     1      34.378 -18.742 -24.876  0.00  0.00    +0.256 C 
ENDBRANCH  23  24
ENDBRANCH   4  23
BRANCH   6  26
ATOM     26  C   UNL     1      32.304 -14.180 -23.502  0.00  0.00    +0.030 C 
BRANCH  26  27
ATOM     27  C   UNL     1      32.602 -13.362 -24.742  0.00  0.00    +0.142 C 
BRANCH  27  28
ATOM     28  O   UNL     1      32.840 -14.257 -25.821  0.00  0.00    -0.351 OA
ATOM     29  C   UNL     1      33.195 -13.559 -27.007  0.00  0.00    +0.174 C 
ENDBRANCH  27  28
ENDBRANCH  26  27
ENDBRANCH   6  26
TORSDOF 5
ENDMDL
MODEL 7
REMARK VINA RESULT:      -6.1      9.834     12.286
REMARK  Name = 15479177
REMARK  5 active torsions:
REMARK  status: ('A' for Active; 'I' for Inactive)
REMARK    1  A    between atoms: C_4  and  C_23
REMARK    2  A    between atoms: C_6  and  C_26
REMARK    3  A    between atoms: C_23  and  O_24
REMARK    4  A    between atoms: C_26  and  C_27
REMARK    5  A    between atoms: C_27  and  O_28
REMARK                            x       y       z     vdW  Elec       q    Type
REMARK                         _______ _______ _______ _____ _____    ______ ____
ROOT
ATOM      1  N   UNL     1      31.298 -23.693 -16.483  0.00  0.00    +0.389 N 
ATOM      2  N   UNL     1      34.004 -24.734 -13.289  0.00  0.00    -0.356 N 
ATOM      3  C   UNL     1      31.059 -23.078 -15.167  0.00  0.00    -0.042 C 
ATOM      4  C   UNL     1      31.728 -23.927 -14.032  0.00  0.00    +0.105 C 
ATOM      5  C   UNL     1      30.139 -25.483 -15.239  0.00  0.00    -0.020 C 
ATOM      6  C   UNL     1      29.507 -23.068 -14.972  0.00  0.00    -0.016 C 
ATOM      7  C   UNL     1      31.054 -25.326 -14.007  0.00  0.00    +0.012 C 
ATOM      8  C   UNL     1      28.962 -24.505 -15.111  0.00  0.00    -0.004 C 
ATOM      9  C   UNL     1      30.954 -25.123 -16.498  0.00  0.00    -0.077 C 
ATOM     10  C   UNL     1      33.230 -24.045 -14.196  0.00  0.00    +0.037 A 
ATOM     11  C   UNL     1      32.537 -23.364 -17.184  0.00  0.00    -0.072 C 
ATOM     12  C   UNL     1      34.082 -23.572 -15.184  0.00  0.00    -0.011 A 
ATOM     13  C   UNL     1      33.678 -22.749 -16.364  0.00  0.00    +0.005 C 
ATOM     14  C   UNL     1      35.409 -23.998 -14.850  0.00  0.00    +0.013 A 
ATOM     15  C   UNL     1      35.324 -24.723 -13.663  0.00  0.00    +0.056 A 
ATOM     16  C   UNL     1      36.678 -23.833 -15.446  0.00  0.00    +0.001 C 
ATOM     17  C   UNL     1      36.440 -25.295 -13.040  0.00  0.00    +0.017 C 
ATOM     18  C   UNL     1      37.803 -24.399 -14.836  0.00  0.00    +0.000 C 
ATOM     19  C   UNL     1      37.684 -25.119 -13.651  0.00  0.00    +0.001 C 
ATOM     20  H   UNL     1      30.628 -23.209 -17.082  0.00  0.00    -0.080 HD
ATOM     21  H   UNL     1      33.656 -25.175 -12.481  0.00  0.00    +0.166 HD
ENDROOT
BRANCH   4  23
ATOM     22  O   UNL     1      32.279 -22.370 -12.262  0.00  0.00    -0.250 OA
ATOM     23  C   UNL     1      31.522 -23.220 -12.710  0.00  0.00    +0.319 C 
BRANCH  23  24
ATOM     24  O   UNL     1      30.380 -23.678 -12.121  0.00  0.00    -0.444 OA
ATOM     25  C   UNL     1      30.089 -23.127 -10.833  0.00  0.00    +0.256 C 
ENDBRANCH  23  24
ENDBRANCH   4  23
BRANCH   6  26
ATOM     26  C   UNL     1      28.799 -22.115 -15.937  0.00  0.00    +0.030 C 
BRANCH  26  27
ATOM     27  C   UNL     1      27.765 -22.843 -16.773  0.00  0.00    +0.142 C 
BRANCH  27  28
ATOM     28  O   UNL     1      26.515 -22.188 -16.609  0.00  0.00    -0.351 OA
ATOM     29  C   UNL     1      26.208 -21.362 -17.724  0.00  0.00    +0.174 C 
ENDBRANCH  27  28
ENDBRANCH  26  27
ENDBRANCH   6  26
TORSDOF 5
ENDMDL
MODEL 8
REMARK VINA RESULT:      -5.9      8.551     11.934
REMARK  Name = 15479177
REMARK  5 active torsions:
REMARK  status: ('A' for Active; 'I' for Inactive)
REMARK    1  A    between atoms: C_4  and  C_23
REMARK    2  A    between atoms: C_6  and  C_26
REMARK    3  A    between atoms: C_23  and  O_24
REMARK    4  A    between atoms: C_26  and  C_27
REMARK    5  A    between atoms: C_27  and  O_28
REMARK                            x       y       z     vdW  Elec       q    Type
REMARK                         _______ _______ _______ _____ _____    ______ ____
ROOT
ATOM      1  N   UNL     1      36.005 -25.287 -13.203  0.00  0.00    +0.389 N 
ATOM      2  N   UNL     1      33.734 -23.472 -16.389  0.00  0.00    -0.356 N 
ATOM      3  C   UNL     1      36.635 -24.176 -13.933  0.00  0.00    -0.042 C 
ATOM      4  C   UNL     1      35.973 -23.997 -15.343  0.00  0.00    +0.105 C 
ATOM      5  C   UNL     1      36.830 -26.375 -15.259  0.00  0.00    -0.020 C 
ATOM      6  C   UNL     1      38.138 -24.571 -14.105  0.00  0.00    -0.016 C 
ATOM      7  C   UNL     1      36.229 -25.286 -16.170  0.00  0.00    +0.012 C 
ATOM      8  C   UNL     1      38.234 -25.936 -14.818  0.00  0.00    -0.004 C 
ATOM      9  C   UNL     1      35.935 -26.514 -14.011  0.00  0.00    -0.077 C 
ATOM     10  C   UNL     1      34.492 -23.686 -15.259  0.00  0.00    +0.037 A 
ATOM     11  C   UNL     1      34.799 -25.007 -12.426  0.00  0.00    -0.072 C 
ATOM     12  C   UNL     1      33.640 -23.576 -14.169  0.00  0.00    -0.011 A 
ATOM     13  C   UNL     1      34.037 -23.713 -12.735  0.00  0.00    +0.005 C 
ATOM     14  C   UNL     1      32.330 -23.289 -14.673  0.00  0.00    +0.013 A 
ATOM     15  C   UNL     1      32.422 -23.234 -16.062  0.00  0.00    +0.056 A 
ATOM     16  C   UNL     1      31.069 -23.070 -14.075  0.00  0.00    +0.001 C 
ATOM     17  C   UNL     1      31.323 -22.973 -16.888  0.00  0.00    +0.017 C 
ATOM     18  C   UNL     1      29.960 -22.808 -14.887  0.00  0.00    +0.000 C 
ATOM     19  C   UNL     1      30.086 -22.761 -16.273  0.00  0.00    +0.001 C 
ATOM     20  H   UNL     1      36.663 -25.457 -12.442  0.00  0.00    -0.080 HD
ATOM     21  H   UNL     1      34.086 -23.488 -17.309  0.00  0.00    +0.166 HD
ENDROOT
BRANCH   4  23
ATOM     22  O   UNL     1      37.336 -22.000 -15.466  0.00  0.00    -0.250 OA
ATOM     23  C   UNL     1      36.598 -22.800 -16.026  0.00  0.00    +0.319 C 
BRANCH  23  24
ATOM     24  O   UNL     1      36.211 -22.766 -17.333  0.00  0.00    -0.444 OA
ATOM     25  C   UNL     1      36.678 -21.642 -18.084  0.00  0.00    +0.256 C 
ENDBRANCH  23  24
ENDBRANCH   4  23
BRANCH   6  26
ATOM     26  C   UNL     1      38.897 -24.589 -12.775  0.00  0.00    +0.030 C 
BRANCH  26  27
ATOM     27  C   UNL     1      38.420 -23.487 -11.852  0.00  0.00    +0.142 C 
BRANCH  27  28
ATOM     28  O   UNL     1      37.577 -24.064 -10.864  0.00  0.00    -0.351 OA
ATOM     29  C   UNL     1      36.640 -23.121 -10.363  0.00  0.00    +0.174 C 
ENDBRANCH  27  28
ENDBRANCH  26  27
ENDBRANCH   6  26
TORSDOF 5
ENDMDL
MODEL 9
REMARK VINA RESULT:      -4.7      2.383      3.851
REMARK  Name = 15479177
REMARK  5 active torsions:
REMARK  status: ('A' for Active; 'I' for Inactive)
REMARK    1  A    between atoms: C_4  and  C_23
REMARK    2  A    between atoms: C_6  and  C_26
REMARK    3  A    between atoms: C_23  and  O_24
REMARK    4  A    between atoms: C_26  and  C_27
REMARK    5  A    between atoms: C_27  and  O_28
REMARK                            x       y       z     vdW  Elec       q    Type
REMARK                         _______ _______ _______ _____ _____    ______ ____
ROOT
ATOM      1  N   UNL     1      34.479 -17.526 -20.529  0.00  0.00    +0.389 N 
ATOM      2  N   UNL     1      33.842 -16.719 -24.718  0.00  0.00    -0.356 N 
ATOM      3  C   UNL     1      35.385 -18.178 -21.488  0.00  0.00    -0.042 C 
ATOM      4  C   UNL     1      34.727 -18.245 -22.910  0.00  0.00    +0.105 C 
ATOM      5  C   UNL     1      33.142 -19.437 -21.339  0.00  0.00    -0.020 C 
ATOM      6  C   UNL     1      35.615 -19.628 -20.947  0.00  0.00    -0.016 C 
ATOM      7  C   UNL     1      33.453 -19.128 -22.817  0.00  0.00    +0.012 C 
ATOM      8  C   UNL     1      34.254 -20.335 -20.775  0.00  0.00    -0.004 C 
ATOM      9  C   UNL     1      33.129 -18.107 -20.557  0.00  0.00    -0.077 C 
ATOM     10  C   UNL     1      34.405 -16.875 -23.471  0.00  0.00    +0.037 A 
ATOM     11  C   UNL     1      34.506 -16.068 -20.436  0.00  0.00    -0.072 C 
ATOM     12  C   UNL     1      34.555 -15.606 -22.929  0.00  0.00    -0.011 A 
ATOM     13  C   UNL     1      35.147 -15.292 -21.594  0.00  0.00    +0.005 C 
ATOM     14  C   UNL     1      34.061 -14.665 -23.890  0.00  0.00    +0.013 A 
ATOM     15  C   UNL     1      33.620 -15.393 -24.994  0.00  0.00    +0.056 A 
ATOM     16  C   UNL     1      33.947 -13.258 -23.925  0.00  0.00    +0.001 C 
ATOM     17  C   UNL     1      33.071 -14.791 -26.132  0.00  0.00    +0.017 C 
ATOM     18  C   UNL     1      33.399 -12.641 -25.056  0.00  0.00    +0.000 C 
ATOM     19  C   UNL     1      32.967 -13.397 -26.142  0.00  0.00    +0.001 C 
ATOM     20  H   UNL     1      34.898 -17.763 -19.629  0.00  0.00    -0.080 HD
ATOM     21  H   UNL     1      33.627 -17.459 -25.330  0.00  0.00    +0.166 HD
ENDROOT
BRANCH   4  23
ATOM     22  O   UNL     1      36.913 -18.986 -23.641  0.00  0.00    -0.250 OA
ATOM     23  C   UNL     1      35.720 -18.853 -23.877  0.00  0.00    +0.319 C 
BRANCH  23  24
ATOM     24  O   UNL     1      35.076 -19.216 -25.023  0.00  0.00    -0.444 OA
ATOM     25  C   UNL     1      35.063 -20.619 -25.302  0.00  0.00    +0.256 C 
ENDBRANCH  23  24
ENDBRANCH   4  23
BRANCH   6  26
ATOM     26  C   UNL     1      36.415 -19.648 -19.642  0.00  0.00    +0.030 C 
BRANCH  26  27
ATOM     27  C   UNL     1      36.462 -21.041 -19.045  0.00  0.00    +0.142 C 
BRANCH  27  28
ATOM     28  O   UNL     1      36.978 -20.944 -17.725  0.00  0.00    -0.351 OA
ATOM     29  C   UNL     1      36.730 -22.129 -16.981  0.00  0.00    +0.174 C 
ENDBRANCH  27  28
ENDBRANCH  26  27
ENDBRANCH   6  26
TORSDOF 5
ENDMDL
