MODEL 1
REMARK VINA RESULT:      -4.6      0.000      0.000
REMARK  Name = 642324
REMARK  3 active torsions:
REMARK  status: ('A' for Active; 'I' for Inactive)
REMARK    1  A    between atoms: C_1  and  N_3
REMARK    2  A    between atoms: C_1  and  C_7
REMARK    3  A    between atoms: C_7  and  C_8
REMARK                            x       y       z     vdW  Elec       q    Type
REMARK                         _______ _______ _______ _____ _____    ______ ____
ROOT
ATOM      1  C   UNL     1      35.550 -18.249 -22.844  0.00  0.00    -0.066 C 
ATOM      2  C   UNL     1      34.885 -19.056 -23.961  0.00  0.00    -0.024 C 
ENDROOT
BRANCH   1   3
ATOM      3  N   UNL     1      35.585 -16.841 -23.240  0.00  0.00    +0.382 N 
ATOM      4  H   UNL     1      35.333 -16.759 -24.224  0.00  0.00    -0.089 HD
ATOM      5  H   UNL     1      36.525 -16.472 -23.097  0.00  0.00    -0.089 HD
ATOM      6  H   UNL     1      34.922 -16.313 -22.673  0.00  0.00    -0.089 HD
ENDBRANCH   1   3
BRANCH   1   7
ATOM      7  C   UNL     1      34.786 -18.442 -21.521  0.00  0.00    -0.022 C 
BRANCH   7   8
ATOM      8  C   UNL     1      34.327 -19.882 -21.209  0.00  0.00    -0.002 C 
ATOM      9  C   UNL     1      32.908 -19.856 -20.634  0.00  0.00    -0.000 C 
ATOM     10  C   UNL     1      35.264 -20.598 -20.236  0.00  0.00    -0.000 C 
ENDBRANCH   7   8
ENDBRANCH   1   7
TORSDOF 3
ENDMDL
MODEL 2
REMARK VINA RESULT:      -4.6      1.037      2.012
REMARK  Name = 642324
REMARK  3 active torsions:
REMARK  status: ('A' for Active; 'I' for Inactive)
REMARK    1  A    between atoms: C_1  and  N_3
REMARK    2  A    between atoms: C_1  and  C_7
REMARK    3  A    between atoms: C_7  and  C_8
REMARK                            x       y       z     vdW  Elec       q    Type
REMARK                         _______ _______ _______ _____ _____    ______ ____
ROOT
ATOM      1  C   UNL     1      34.852 -17.885 -22.419  0.00  0.00    -0.066 C 
ATOM      2  C   UNL     1      34.957 -17.113 -21.102  0.00  0.00    -0.024 C 
ENDROOT
BRANCH   1   3
ATOM      3  N   UNL     1      36.144 -17.826 -23.101  0.00  0.00    +0.382 N 
ATOM      4  H   UNL     1      35.995 -17.760 -24.108  0.00  0.00    -0.089 HD
ATOM      5  H   UNL     1      36.678 -18.670 -22.891  0.00  0.00    -0.089 HD
ATOM      6  H   UNL     1      36.661 -17.008 -22.779  0.00  0.00    -0.089 HD
ENDBRANCH   1   3
BRANCH   1   7
ATOM      7  C   UNL     1      34.425 -19.340 -22.150  0.00  0.00    -0.022 C 
BRANCH   7   8
ATOM      8  C   UNL     1      34.324 -19.750 -20.666  0.00  0.00    -0.002 C 
ATOM      9  C   UNL     1      35.436 -20.750 -20.332  0.00  0.00    -0.000 C 
ATOM     10  C   UNL     1      32.965 -20.358 -20.317  0.00  0.00    -0.000 C 
ENDBRANCH   7   8
ENDBRANCH   1   7
TORSDOF 3
ENDMDL
MODEL 3
REMARK VINA RESULT:      -4.4      1.855      3.624
REMARK  Name = 642324
REMARK  3 active torsions:
REMARK  status: ('A' for Active; 'I' for Inactive)
REMARK    1  A    between atoms: C_1  and  N_3
REMARK    2  A    between atoms: C_1  and  C_7
REMARK    3  A    between atoms: C_7  and  C_8
REMARK                            x       y       z     vdW  Elec       q    Type
REMARK                         _______ _______ _______ _____ _____    ______ ____
ROOT
ATOM      1  C   UNL     1      34.563 -19.232 -21.130  0.00  0.00    -0.066 C 
ATOM      2  C   UNL     1      33.253 -19.900 -20.707  0.00  0.00    -0.024 C 
ENDROOT
BRANCH   1   3
ATOM      3  N   UNL     1      35.663 -19.845 -20.387  0.00  0.00    +0.382 N 
ATOM      4  H   UNL     1      35.637 -19.528 -19.418  0.00  0.00    -0.089 HD
ATOM      5  H   UNL     1      36.551 -19.574 -20.810  0.00  0.00    -0.089 HD
ATOM      6  H   UNL     1      35.568 -20.860 -20.416  0.00  0.00    -0.089 HD
ENDBRANCH   1   3
BRANCH   1   7
ATOM      7  C   UNL     1      34.765 -19.372 -22.650  0.00  0.00    -0.022 C 
BRANCH   7   8
ATOM      8  C   UNL     1      35.323 -18.128 -23.375  0.00  0.00    -0.002 C 
ATOM      9  C   UNL     1      35.115 -16.888 -22.500  0.00  0.00    -0.000 C 
ATOM     10  C   UNL     1      34.675 -17.908 -24.742  0.00  0.00    -0.000 C 
ENDBRANCH   7   8
ENDBRANCH   1   7
TORSDOF 3
ENDMDL
MODEL 4
REMARK VINA RESULT:      -4.4      1.828      2.307
REMARK  Name = 642324
REMARK  3 active torsions:
REMARK  status: ('A' for Active; 'I' for Inactive)
REMARK    1  A    between atoms: C_1  and  N_3
REMARK    2  A    between atoms: C_1  and  C_7
REMARK    3  A    between atoms: C_7  and  C_8
REMARK                            x       y       z     vdW  Elec       q    Type
REMARK                         _______ _______ _______ _____ _____    ______ ____
ROOT
ATOM      1  C   UNL     1      35.333 -19.538 -21.289  0.00  0.00    -0.066 C 
ATOM      2  C   UNL     1      34.675 -19.314 -22.652  0.00  0.00    -0.024 C 
ENDROOT
BRANCH   1   3
ATOM      3  N   UNL     1      35.720 -18.240 -20.736  0.00  0.00    +0.382 N 
ATOM      4  H   UNL     1      35.506 -17.506 -21.411  0.00  0.00    -0.089 HD
ATOM      5  H   UNL     1      36.721 -18.241 -20.539  0.00  0.00    -0.089 HD
ATOM      6  H   UNL     1      35.203 -18.071 -19.873  0.00  0.00    -0.089 HD
ENDBRANCH   1   3
BRANCH   1   7
ATOM      7  C   UNL     1      34.367 -20.283 -20.348  0.00  0.00    -0.022 C 
BRANCH   7   8
ATOM      8  C   UNL     1      34.884 -21.615 -19.766  0.00  0.00    -0.002 C 
ATOM      9  C   UNL     1      33.797 -22.253 -18.897  0.00  0.00    -0.000 C 
ATOM     10  C   UNL     1      36.162 -21.438 -18.945  0.00  0.00    -0.000 C 
ENDBRANCH   7   8
ENDBRANCH   1   7
TORSDOF 3
ENDMDL
MODEL 5
REMARK VINA RESULT:      -4.3      2.309      3.722
REMARK  Name = 642324
REMARK  3 active torsions:
REMARK  status: ('A' for Active; 'I' for Inactive)
REMARK    1  A    between atoms: C_1  and  N_3
REMARK    2  A    between atoms: C_1  and  C_7
REMARK    3  A    between atoms: C_7  and  C_8
REMARK                            x       y       z     vdW  Elec       q    Type
REMARK                         _______ _______ _______ _____ _____    ______ ____
ROOT
ATOM      1  C   UNL     1      33.879 -20.311 -20.735  0.00  0.00    -0.066 C 
ATOM      2  C   UNL     1      35.146 -20.798 -20.029  0.00  0.00    -0.024 C 
ENDROOT
BRANCH   1   3
ATOM      3  N   UNL     1      32.738 -20.509 -19.841  0.00  0.00    +0.382 N 
ATOM      4  H   UNL     1      32.808 -21.426 -19.400  0.00  0.00    -0.089 HD
ATOM      5  H   UNL     1      31.873 -20.456 -20.379  0.00  0.00    -0.089 HD
ATOM      6  H   UNL     1      32.738 -19.784 -19.124  0.00  0.00    -0.089 HD
ENDBRANCH   1   3
BRANCH   1   7
ATOM      7  C   UNL     1      34.028 -18.830 -21.134  0.00  0.00    -0.022 C 
BRANCH   7   8
ATOM      8  C   UNL     1      35.103 -18.523 -22.198  0.00  0.00    -0.002 C 
ATOM      9  C   UNL     1      35.203 -17.008 -22.404  0.00  0.00    -0.000 C 
ATOM     10  C   UNL     1      34.817 -19.207 -23.535  0.00  0.00    -0.000 C 
ENDBRANCH   7   8
ENDBRANCH   1   7
TORSDOF 3
ENDMDL
MODEL 6
REMARK VINA RESULT:      -4.2     10.603     11.697
REMARK  Name = 642324
REMARK  3 active torsions:
REMARK  status: ('A' for Active; 'I' for Inactive)
REMARK    1  A    between atoms: C_1  and  N_3
REMARK    2  A    between atoms: C_1  and  C_7
REMARK    3  A    between atoms: C_7  and  C_8
REMARK                            x       y       z     vdW  Elec       q    Type
REMARK                         _______ _______ _______ _____ _____    ______ ____
ROOT
ATOM      1  C   UNL     1      32.155  -8.340 -20.682  0.00  0.00    -0.066 C 
ATOM      2  C   UNL     1      31.852  -9.700 -20.051  0.00  0.00    -0.024 C 
ENDROOT
BRANCH   1   3
ATOM      3  N   UNL     1      33.050  -7.599 -19.793  0.00  0.00    +0.382 N 
ATOM      4  H   UNL     1      33.407  -6.777 -20.278  0.00  0.00    -0.089 HD
ATOM      5  H   UNL     1      33.830  -8.198 -19.520  0.00  0.00    -0.089 HD
ATOM      6  H   UNL     1      32.537  -7.308 -18.961  0.00  0.00    -0.089 HD
ENDBRANCH   1   3
BRANCH   1   7
ATOM      7  C   UNL     1      32.781  -8.528 -22.077  0.00  0.00    -0.022 C 
BRANCH   7   8
ATOM      8  C   UNL     1      33.510  -7.300 -22.662  0.00  0.00    -0.002 C 
ATOM      9  C   UNL     1      32.555  -6.517 -23.566  0.00  0.00    -0.000 C 
ATOM     10  C   UNL     1      34.765  -7.684 -23.447  0.00  0.00    -0.000 C 
ENDBRANCH   7   8
ENDBRANCH   1   7
TORSDOF 3
ENDMDL
MODEL 7
REMARK VINA RESULT:      -4.2      1.275      1.732
REMARK  Name = 642324
REMARK  3 active torsions:
REMARK  status: ('A' for Active; 'I' for Inactive)
REMARK    1  A    between atoms: C_1  and  N_3
REMARK    2  A    between atoms: C_1  and  C_7
REMARK    3  A    between atoms: C_7  and  C_8
REMARK                            x       y       z     vdW  Elec       q    Type
REMARK                         _______ _______ _______ _____ _____    ______ ____
ROOT
ATOM      1  C   UNL     1      34.590 -17.587 -21.743  0.00  0.00    -0.066 C 
ATOM      2  C   UNL     1      34.763 -16.302 -20.930  0.00  0.00    -0.024 C 
ENDROOT
BRANCH   1   3
ATOM      3  N   UNL     1      35.089 -17.355 -23.098  0.00  0.00    +0.382 N 
ATOM      4  H   UNL     1      35.986 -16.871 -23.052  0.00  0.00    -0.089 HD
ATOM      5  H   UNL     1      34.420 -16.782 -23.613  0.00  0.00    -0.089 HD
ATOM      6  H   UNL     1      35.209 -18.249 -23.574  0.00  0.00    -0.089 HD
ENDBRANCH   1   3
BRANCH   1   7
ATOM      7  C   UNL     1      35.334 -18.751 -21.063  0.00  0.00    -0.022 C 
BRANCH   7   8
ATOM      8  C   UNL     1      34.556 -20.080 -20.960  0.00  0.00    -0.002 C 
ATOM      9  C   UNL     1      33.075 -19.791 -20.702  0.00  0.00    -0.000 C 
ATOM     10  C   UNL     1      35.101 -20.994 -19.861  0.00  0.00    -0.000 C 
ENDBRANCH   7   8
ENDBRANCH   1   7
TORSDOF 3
ENDMDL
MODEL 8
REMARK VINA RESULT:      -4.2      2.609      3.883
REMARK  Name = 642324
REMARK  3 active torsions:
REMARK  status: ('A' for Active; 'I' for Inactive)
REMARK    1  A    between atoms: C_1  and  N_3
REMARK    2  A    between atoms: C_1  and  C_7
REMARK    3  A    between atoms: C_7  and  C_8
REMARK                            x       y       z     vdW  Elec       q    Type
REMARK                         _______ _______ _______ _____ _____    ______ ____
ROOT
ATOM      1  C   UNL     1      34.638 -20.829 -19.800  0.00  0.00    -0.066 C 
ATOM      2  C   UNL     1      33.134 -20.805 -20.079  0.00  0.00    -0.024 C 
ENDROOT
BRANCH   1   3
ATOM      3  N   UNL     1      35.058 -22.218 -19.615  0.00  0.00    +0.382 N 
ATOM      4  H   UNL     1      34.704 -22.564 -18.724  0.00  0.00    -0.089 HD
ATOM      5  H   UNL     1      36.077 -22.267 -19.618  0.00  0.00    -0.089 HD
ATOM      6  H   UNL     1      34.687 -22.789 -20.374  0.00  0.00    -0.089 HD
ENDBRANCH   1   3
BRANCH   1   7
ATOM      7  C   UNL     1      35.405 -20.160 -20.957  0.00  0.00    -0.022 C 
BRANCH   7   8
ATOM      8  C   UNL     1      34.687 -18.984 -21.652  0.00  0.00    -0.002 C 
ATOM      9  C   UNL     1      34.847 -19.109 -23.170  0.00  0.00    -0.000 C 
ATOM     10  C   UNL     1      35.209 -17.624 -21.189  0.00  0.00    -0.000 C 
ENDBRANCH   7   8
ENDBRANCH   1   7
TORSDOF 3
ENDMDL
MODEL 9
REMARK VINA RESULT:      -4.2      1.539      2.615
REMARK  Name = 642324
REMARK  3 active torsions:
REMARK  status: ('A' for Active; 'I' for Inactive)
REMARK    1  A    between atoms: C_1  and  N_3
REMARK    2  A    between atoms: C_1  and  C_7
REMARK    3  A    between atoms: C_7  and  C_8
REMARK                            x       y       z     vdW  Elec       q    Type
REMARK                         _______ _______ _______ _____ _____    ______ ____
ROOT
ATOM      1  C   UNL     1      34.563 -16.563 -21.940  0.00  0.00    -0.066 C 
ATOM      2  C   UNL     1      34.496 -15.660 -20.707  0.00  0.00    -0.024 C 
ENDROOT
BRANCH   1   3
ATOM      3  N   UNL     1      34.938 -15.749 -23.097  0.00  0.00    +0.382 N 
ATOM      4  H   UNL     1      34.805 -16.291 -23.951  0.00  0.00    -0.089 HD
ATOM      5  H   UNL     1      35.917 -15.475 -23.016  0.00  0.00    -0.089 HD
ATOM      6  H   UNL     1      34.352 -14.915 -23.129  0.00  0.00    -0.089 HD
ENDBRANCH   1   3
BRANCH   1   7
ATOM      7  C   UNL     1      35.570 -17.706 -21.709  0.00  0.00    -0.022 C 
BRANCH   7   8
ATOM      8  C   UNL     1      35.050 -19.131 -21.993  0.00  0.00    -0.002 C 
ATOM      9  C   UNL     1      34.781 -19.290 -23.493  0.00  0.00    -0.000 C 
ATOM     10  C   UNL     1      33.782 -19.459 -21.205  0.00  0.00    -0.000 C 
ENDBRANCH   7   8
ENDBRANCH   1   7
TORSDOF 3
ENDMDL
