MODEL 1
REMARK VINA RESULT:      -7.5      0.000      0.000
REMARK  Name = 61810
REMARK  6 active torsions:
REMARK  status: ('A' for Active; 'I' for Inactive)
REMARK    1  A    between atoms: C_1  and  N_3
REMARK    2  A    between atoms: C_1  and  C_10
REMARK    3  A    between atoms: N_3  and  C_6
REMARK    4  A    between atoms: C_6  and  C_7
REMARK    5  A    between atoms: C_7  and  C_9
REMARK    6  A    between atoms: C_10  and  C_11
REMARK                            x       y       z     vdW  Elec       q    Type
REMARK                         _______ _______ _______ _____ _____    ______ ____
ROOT
ATOM      1  C   UNL     1      34.855 -18.089 -23.133  0.00  0.00    -0.058 C 
ATOM      2  C   UNL     1      34.877 -19.056 -24.317  0.00  0.00    -0.023 C 
ENDROOT
BRANCH   1   3
ATOM      3  N   UNL     1      35.379 -16.797 -23.582  0.00  0.00    +0.386 N 
ATOM      4  H   UNL     1      35.199 -16.690 -24.581  0.00  0.00    -0.084 HD
ATOM      5  H   UNL     1      36.383 -16.767 -23.400  0.00  0.00    -0.084 HD
BRANCH   3   6
ATOM      6  C   UNL     1      34.741 -15.707 -22.863  0.00  0.00    -0.065 C 
BRANCH   6   7
ATOM      7  C   UNL     1      33.928 -14.832 -23.811  0.00  0.00    +0.082 C 
BRANCH   7   9
ATOM      8  N   UNL     1      33.626 -15.957 -26.170  0.00  0.00    -0.196 NA
ATOM      9  C   UNL     1      33.758 -15.461 -25.130  0.00  0.00    +0.071 C 
ENDBRANCH   7   9
ENDBRANCH   6   7
ENDBRANCH   3   6
ENDBRANCH   1   3
BRANCH   1  10
ATOM     10  C   UNL     1      35.688 -18.597 -21.942  0.00  0.00    +0.005 C 
BRANCH  10  11
ATOM     11  C   UNL     1      34.957 -19.588 -21.070  0.00  0.00    -0.024 C 
ATOM     12  C   UNL     1      33.576 -19.520 -20.974  0.00  0.00    -0.004 C 
ATOM     13  C   UNL     1      35.680 -20.550 -20.381  0.00  0.00    -0.004 C 
ATOM     14  C   UNL     1      32.901 -20.437 -20.170  0.00  0.00    -0.000 C 
ATOM     15  C   UNL     1      35.003 -21.466 -19.576  0.00  0.00    -0.000 C 
ATOM     16  C   UNL     1      33.614 -21.410 -19.470  0.00  0.00    -0.000 C 
ENDBRANCH  10  11
ENDBRANCH   1  10
TORSDOF 6
ENDMDL
MODEL 2
REMARK VINA RESULT:      -7.5      1.150      1.960
REMARK  Name = 61810
REMARK  6 active torsions:
REMARK  status: ('A' for Active; 'I' for Inactive)
REMARK    1  A    between atoms: C_1  and  N_3
REMARK    2  A    between atoms: C_1  and  C_10
REMARK    3  A    between atoms: N_3  and  C_6
REMARK    4  A    between atoms: C_6  and  C_7
REMARK    5  A    between atoms: C_7  and  C_9
REMARK    6  A    between atoms: C_10  and  C_11
REMARK                            x       y       z     vdW  Elec       q    Type
REMARK                         _______ _______ _______ _____ _____    ______ ____
ROOT
ATOM      1  C   UNL     1      35.271 -17.663 -21.580  0.00  0.00    -0.058 C 
ATOM      2  C   UNL     1      34.770 -16.368 -20.938  0.00  0.00    -0.023 C 
ENDROOT
BRANCH   1   3
ATOM      3  N   UNL     1      35.778 -17.348 -22.918  0.00  0.00    +0.386 N 
ATOM      4  H   UNL     1      36.795 -17.431 -22.919  0.00  0.00    -0.084 HD
ATOM      5  H   UNL     1      35.502 -16.395 -23.159  0.00  0.00    -0.084 HD
BRANCH   3   6
ATOM      6  C   UNL     1      35.224 -18.260 -23.904  0.00  0.00    -0.065 C 
BRANCH   6   7
ATOM      7  C   UNL     1      34.643 -17.494 -25.088  0.00  0.00    +0.082 C 
BRANCH   7   9
ATOM      8  N   UNL     1      33.698 -15.147 -24.369  0.00  0.00    -0.196 NA
ATOM      9  C   UNL     1      34.114 -16.182 -24.687  0.00  0.00    +0.071 C 
ENDBRANCH   7   9
ENDBRANCH   6   7
ENDBRANCH   3   6
ENDBRANCH   1   3
BRANCH   1  10
ATOM     10  C   UNL     1      34.169 -18.732 -21.686  0.00  0.00    +0.005 C 
BRANCH  10  11
ATOM     11  C   UNL     1      34.371 -19.904 -20.757  0.00  0.00    -0.024 C 
ATOM     12  C   UNL     1      33.267 -20.525 -20.195  0.00  0.00    -0.004 C 
ATOM     13  C   UNL     1      35.659 -20.339 -20.483  0.00  0.00    -0.004 C 
ATOM     14  C   UNL     1      33.454 -21.609 -19.338  0.00  0.00    -0.000 C 
ATOM     15  C   UNL     1      35.845 -21.423 -19.625  0.00  0.00    -0.000 C 
ATOM     16  C   UNL     1      34.743 -22.058 -19.052  0.00  0.00    -0.000 C 
ENDBRANCH  10  11
ENDBRANCH   1  10
TORSDOF 6
ENDMDL
MODEL 3
REMARK VINA RESULT:      -7.4      1.153      1.953
REMARK  Name = 61810
REMARK  6 active torsions:
REMARK  status: ('A' for Active; 'I' for Inactive)
REMARK    1  A    between atoms: C_1  and  N_3
REMARK    2  A    between atoms: C_1  and  C_10
REMARK    3  A    between atoms: N_3  and  C_6
REMARK    4  A    between atoms: C_6  and  C_7
REMARK    5  A    between atoms: C_7  and  C_9
REMARK    6  A    between atoms: C_10  and  C_11
REMARK                            x       y       z     vdW  Elec       q    Type
REMARK                         _______ _______ _______ _____ _____    ______ ____
ROOT
ATOM      1  C   UNL     1      34.995 -18.088 -22.865  0.00  0.00    -0.058 C 
ATOM      2  C   UNL     1      34.980 -18.957 -24.123  0.00  0.00    -0.023 C 
ENDROOT
BRANCH   1   3
ATOM      3  N   UNL     1      35.574 -16.787 -23.209  0.00  0.00    +0.386 N 
ATOM      4  H   UNL     1      36.307 -16.921 -23.908  0.00  0.00    -0.084 HD
ATOM      5  H   UNL     1      35.964 -16.367 -22.365  0.00  0.00    -0.084 HD
BRANCH   3   6
ATOM      6  C   UNL     1      34.558 -15.900 -23.748  0.00  0.00    -0.065 C 
BRANCH   6   7
ATOM      7  C   UNL     1      34.336 -14.704 -22.828  0.00  0.00    +0.082 C 
BRANCH   7   9
ATOM      8  N   UNL     1      34.767 -15.310 -20.305  0.00  0.00    -0.196 NA
ATOM      9  C   UNL     1      34.578 -15.043 -21.418  0.00  0.00    +0.071 C 
ENDBRANCH   7   9
ENDBRANCH   6   7
ENDBRANCH   3   6
ENDBRANCH   1   3
BRANCH   1  10
ATOM     10  C   UNL     1      35.802 -18.724 -21.719  0.00  0.00    +0.005 C 
BRANCH  10  11
ATOM     11  C   UNL     1      35.015 -19.722 -20.905  0.00  0.00    -0.024 C 
ATOM     12  C   UNL     1      33.635 -19.609 -20.840  0.00  0.00    -0.004 C 
ATOM     13  C   UNL     1      35.686 -20.735 -20.237  0.00  0.00    -0.004 C 
ATOM     14  C   UNL     1      32.908 -20.532 -20.089  0.00  0.00    -0.000 C 
ATOM     15  C   UNL     1      34.959 -21.658 -19.487  0.00  0.00    -0.000 C 
ATOM     16  C   UNL     1      33.569 -21.556 -19.412  0.00  0.00    -0.000 C 
ENDBRANCH  10  11
ENDBRANCH   1  10
TORSDOF 6
ENDMDL
MODEL 4
REMARK VINA RESULT:      -7.4      1.186      2.351
REMARK  Name = 61810
REMARK  6 active torsions:
REMARK  status: ('A' for Active; 'I' for Inactive)
REMARK    1  A    between atoms: C_1  and  N_3
REMARK    2  A    between atoms: C_1  and  C_10
REMARK    3  A    between atoms: N_3  and  C_6
REMARK    4  A    between atoms: C_6  and  C_7
REMARK    5  A    between atoms: C_7  and  C_9
REMARK    6  A    between atoms: C_10  and  C_11
REMARK                            x       y       z     vdW  Elec       q    Type
REMARK                         _______ _______ _______ _____ _____    ______ ____
ROOT
ATOM      1  C   UNL     1      35.008 -18.089 -22.810  0.00  0.00    -0.058 C 
ATOM      2  C   UNL     1      34.972 -18.909 -24.100  0.00  0.00    -0.023 C 
ENDROOT
BRANCH   1   3
ATOM      3  N   UNL     1      35.597 -16.781 -23.110  0.00  0.00    +0.386 N 
ATOM      4  H   UNL     1      36.382 -16.906 -23.750  0.00  0.00    -0.084 HD
ATOM      5  H   UNL     1      35.916 -16.356 -22.240  0.00  0.00    -0.084 HD
BRANCH   3   6
ATOM      6  C   UNL     1      34.614 -15.906 -23.727  0.00  0.00    -0.065 C 
BRANCH   6   7
ATOM      7  C   UNL     1      34.251 -14.755 -22.795  0.00  0.00    +0.082 C 
BRANCH   7   9
ATOM      8  N   UNL     1      34.786 -15.314 -20.281  0.00  0.00    -0.196 NA
ATOM      9  C   UNL     1      34.550 -15.069 -21.390  0.00  0.00    +0.071 C 
ENDBRANCH   7   9
ENDBRANCH   6   7
ENDBRANCH   3   6
ENDBRANCH   1   3
BRANCH   1  10
ATOM     10  C   UNL     1      35.822 -18.776 -21.698  0.00  0.00    +0.005 C 
BRANCH  10  11
ATOM     11  C   UNL     1      35.023 -19.767 -20.887  0.00  0.00    -0.024 C 
ATOM     12  C   UNL     1      35.679 -20.799 -20.236  0.00  0.00    -0.004 C 
ATOM     13  C   UNL     1      33.646 -19.627 -20.809  0.00  0.00    -0.004 C 
ATOM     14  C   UNL     1      34.941 -21.714 -19.486  0.00  0.00    -0.000 C 
ATOM     15  C   UNL     1      32.908 -20.543 -20.059  0.00  0.00    -0.000 C 
ATOM     16  C   UNL     1      33.555 -21.586 -19.397  0.00  0.00    -0.000 C 
ENDBRANCH  10  11
ENDBRANCH   1  10
TORSDOF 6
ENDMDL
MODEL 5
REMARK VINA RESULT:      -6.9      1.499      2.230
REMARK  Name = 61810
REMARK  6 active torsions:
REMARK  status: ('A' for Active; 'I' for Inactive)
REMARK    1  A    between atoms: C_1  and  N_3
REMARK    2  A    between atoms: C_1  and  C_10
REMARK    3  A    between atoms: N_3  and  C_6
REMARK    4  A    between atoms: C_6  and  C_7
REMARK    5  A    between atoms: C_7  and  C_9
REMARK    6  A    between atoms: C_10  and  C_11
REMARK                            x       y       z     vdW  Elec       q    Type
REMARK                         _______ _______ _______ _____ _____    ______ ____
ROOT
ATOM      1  C   UNL     1      35.409 -17.376 -22.145  0.00  0.00    -0.058 C 
ATOM      2  C   UNL     1      34.884 -16.680 -20.889  0.00  0.00    -0.023 C 
ENDROOT
BRANCH   1   3
ATOM      3  N   UNL     1      35.372 -16.418 -23.253  0.00  0.00    +0.386 N 
ATOM      4  H   UNL     1      34.922 -16.854 -24.059  0.00  0.00    -0.084 HD
ATOM      5  H   UNL     1      36.328 -16.147 -23.486  0.00  0.00    -0.084 HD
BRANCH   3   6
ATOM      6  C   UNL     1      34.627 -15.228 -22.877  0.00  0.00    -0.065 C 
BRANCH   6   7
ATOM      7  C   UNL     1      33.768 -14.735 -24.036  0.00  0.00    +0.082 C 
BRANCH   7   9
ATOM      8  N   UNL     1      33.701 -12.108 -24.161  0.00  0.00    -0.196 NA
ATOM      9  C   UNL     1      33.730 -13.266 -24.107  0.00  0.00    +0.071 C 
ENDBRANCH   7   9
ENDBRANCH   6   7
ENDBRANCH   3   6
ENDBRANCH   1   3
BRANCH   1  10
ATOM     10  C   UNL     1      34.586 -18.623 -22.516  0.00  0.00    +0.005 C 
BRANCH  10  11
ATOM     11  C   UNL     1      34.471 -19.628 -21.395  0.00  0.00    -0.024 C 
ATOM     12  C   UNL     1      35.619 -20.225 -20.898  0.00  0.00    -0.004 C 
ATOM     13  C   UNL     1      33.220 -19.935 -20.884  0.00  0.00    -0.004 C 
ATOM     14  C   UNL     1      35.512 -21.153 -19.862  0.00  0.00    -0.000 C 
ATOM     15  C   UNL     1      33.115 -20.863 -19.848  0.00  0.00    -0.000 C 
ATOM     16  C   UNL     1      34.261 -21.472 -19.337  0.00  0.00    -0.000 C 
ENDBRANCH  10  11
ENDBRANCH   1  10
TORSDOF 6
ENDMDL
MODEL 6
REMARK VINA RESULT:      -6.9      4.992      7.957
REMARK  Name = 61810
REMARK  6 active torsions:
REMARK  status: ('A' for Active; 'I' for Inactive)
REMARK    1  A    between atoms: C_1  and  N_3
REMARK    2  A    between atoms: C_1  and  C_10
REMARK    3  A    between atoms: N_3  and  C_6
REMARK    4  A    between atoms: C_6  and  C_7
REMARK    5  A    between atoms: C_7  and  C_9
REMARK    6  A    between atoms: C_10  and  C_11
REMARK                            x       y       z     vdW  Elec       q    Type
REMARK                         _______ _______ _______ _____ _____    ______ ____
ROOT
ATOM      1  C   UNL     1      33.068 -22.715 -17.147  0.00  0.00    -0.058 C 
ATOM      2  C   UNL     1      33.730 -23.532 -16.037  0.00  0.00    -0.023 C 
ENDROOT
BRANCH   1   3
ATOM      3  N   UNL     1      31.621 -22.939 -17.085  0.00  0.00    +0.386 N 
ATOM      4  H   UNL     1      31.326 -23.456 -17.915  0.00  0.00    -0.084 HD
ATOM      5  H   UNL     1      31.149 -22.036 -17.047  0.00  0.00    -0.084 HD
BRANCH   3   6
ATOM      6  C   UNL     1      31.271 -23.702 -15.899  0.00  0.00    -0.065 C 
BRANCH   6   7
ATOM      7  C   UNL     1      29.988 -23.169 -15.269  0.00  0.00    +0.082 C 
BRANCH   7   9
ATOM      8  N   UNL     1      28.385 -22.101 -17.060  0.00  0.00    -0.196 NA
ATOM      9  C   UNL     1      29.092 -22.571 -16.269  0.00  0.00    +0.071 C 
ENDBRANCH   7   9
ENDBRANCH   6   7
ENDBRANCH   3   6
ENDBRANCH   1   3
BRANCH   1  10
ATOM     10  C   UNL     1      33.588 -23.093 -18.546  0.00  0.00    +0.005 C 
BRANCH  10  11
ATOM     11  C   UNL     1      34.090 -21.914 -19.344  0.00  0.00    -0.024 C 
ATOM     12  C   UNL     1      33.178 -21.029 -19.897  0.00  0.00    -0.004 C 
ATOM     13  C   UNL     1      35.455 -21.738 -19.510  0.00  0.00    -0.004 C 
ATOM     14  C   UNL     1      33.642 -19.940 -20.633  0.00  0.00    -0.000 C 
ATOM     15  C   UNL     1      35.919 -20.648 -20.246  0.00  0.00    -0.000 C 
ATOM     16  C   UNL     1      35.012 -19.749 -20.808  0.00  0.00    -0.000 C 
ENDBRANCH  10  11
ENDBRANCH   1  10
TORSDOF 6
ENDMDL
MODEL 7
REMARK VINA RESULT:      -6.7      2.594      6.235
REMARK  Name = 61810
REMARK  6 active torsions:
REMARK  status: ('A' for Active; 'I' for Inactive)
REMARK    1  A    between atoms: C_1  and  N_3
REMARK    2  A    between atoms: C_1  and  C_10
REMARK    3  A    between atoms: N_3  and  C_6
REMARK    4  A    between atoms: C_6  and  C_7
REMARK    5  A    between atoms: C_7  and  C_9
REMARK    6  A    between atoms: C_10  and  C_11
REMARK                            x       y       z     vdW  Elec       q    Type
REMARK                         _______ _______ _______ _____ _____    ______ ____
ROOT
ATOM      1  C   UNL     1      35.169 -19.414 -21.269  0.00  0.00    -0.058 C 
ATOM      2  C   UNL     1      33.670 -19.487 -20.979  0.00  0.00    -0.023 C 
ENDROOT
BRANCH   1   3
ATOM      3  N   UNL     1      35.890 -19.936 -20.105  0.00  0.00    +0.386 N 
ATOM      4  H   UNL     1      35.416 -19.634 -19.253  0.00  0.00    -0.084 HD
ATOM      5  H   UNL     1      36.846 -19.578 -20.122  0.00  0.00    -0.084 HD
BRANCH   3   6
ATOM      6  C   UNL     1      35.934 -21.388 -20.138  0.00  0.00    -0.065 C 
BRANCH   6   7
ATOM      7  C   UNL     1      35.516 -21.976 -18.794  0.00  0.00    +0.082 C 
BRANCH   7   9
ATOM      8  N   UNL     1      32.934 -22.472 -18.699  0.00  0.00    -0.196 NA
ATOM      9  C   UNL     1      34.073 -22.254 -18.741  0.00  0.00    +0.071 C 
ENDBRANCH   7   9
ENDBRANCH   6   7
ENDBRANCH   3   6
ENDBRANCH   1   3
BRANCH   1  10
ATOM     10  C   UNL     1      35.643 -17.979 -21.566  0.00  0.00    +0.005 C 
BRANCH  10  11
ATOM     11  C   UNL     1      35.103 -17.420 -22.860  0.00  0.00    -0.024 C 
ATOM     12  C   UNL     1      35.079 -18.221 -23.990  0.00  0.00    -0.004 C 
ATOM     13  C   UNL     1      34.640 -16.113 -22.894  0.00  0.00    -0.004 C 
ATOM     14  C   UNL     1      34.579 -17.704 -25.185  0.00  0.00    -0.000 C 
ATOM     15  C   UNL     1      34.141 -15.597 -24.089  0.00  0.00    -0.000 C 
ATOM     16  C   UNL     1      34.111 -16.392 -25.235  0.00  0.00    -0.000 C 
ENDBRANCH  10  11
ENDBRANCH   1  10
TORSDOF 6
ENDMDL
MODEL 8
REMARK VINA RESULT:      -6.5      2.710      6.110
REMARK  Name = 61810
REMARK  6 active torsions:
REMARK  status: ('A' for Active; 'I' for Inactive)
REMARK    1  A    between atoms: C_1  and  N_3
REMARK    2  A    between atoms: C_1  and  C_10
REMARK    3  A    between atoms: N_3  and  C_6
REMARK    4  A    between atoms: C_6  and  C_7
REMARK    5  A    between atoms: C_7  and  C_9
REMARK    6  A    between atoms: C_10  and  C_11
REMARK                            x       y       z     vdW  Elec       q    Type
REMARK                         _______ _______ _______ _____ _____    ______ ____
ROOT
ATOM      1  C   UNL     1      34.675 -19.509 -21.358  0.00  0.00    -0.058 C 
ATOM      2  C   UNL     1      33.276 -19.559 -20.742  0.00  0.00    -0.023 C 
ENDROOT
BRANCH   1   3
ATOM      3  N   UNL     1      35.383 -20.739 -20.994  0.00  0.00    +0.386 N 
ATOM      4  H   UNL     1      35.752 -21.176 -21.840  0.00  0.00    -0.084 HD
ATOM      5  H   UNL     1      34.730 -21.370 -20.528  0.00  0.00    -0.084 HD
BRANCH   3   6
ATOM      6  C   UNL     1      36.482 -20.450 -20.088  0.00  0.00    -0.065 C 
BRANCH   6   7
ATOM      7  C   UNL     1      36.451 -21.381 -18.881  0.00  0.00    +0.082 C 
BRANCH   7   9
ATOM      8  N   UNL     1      34.230 -22.785 -18.779  0.00  0.00    -0.196 NA
ATOM      9  C   UNL     1      35.210 -22.167 -18.824  0.00  0.00    +0.071 C 
ENDBRANCH   7   9
ENDBRANCH   6   7
ENDBRANCH   3   6
ENDBRANCH   1   3
BRANCH   1  10
ATOM     10  C   UNL     1      35.485 -18.290 -20.883  0.00  0.00    +0.005 C 
BRANCH  10  11
ATOM     11  C   UNL     1      35.075 -16.996 -21.543  0.00  0.00    -0.024 C 
ATOM     12  C   UNL     1      34.620 -15.947 -20.759  0.00  0.00    -0.004 C 
ATOM     13  C   UNL     1      35.159 -16.880 -22.922  0.00  0.00    -0.004 C 
ATOM     14  C   UNL     1      34.242 -14.752 -21.369  0.00  0.00    -0.000 C 
ATOM     15  C   UNL     1      34.781 -15.684 -23.531  0.00  0.00    -0.000 C 
ATOM     16  C   UNL     1      34.322 -14.620 -22.755  0.00  0.00    -0.000 C 
ENDBRANCH  10  11
ENDBRANCH   1  10
TORSDOF 6
ENDMDL
MODEL 9
REMARK VINA RESULT:      -6.5      1.935      2.439
REMARK  Name = 61810
REMARK  6 active torsions:
REMARK  status: ('A' for Active; 'I' for Inactive)
REMARK    1  A    between atoms: C_1  and  N_3
REMARK    2  A    between atoms: C_1  and  C_10
REMARK    3  A    between atoms: N_3  and  C_6
REMARK    4  A    between atoms: C_6  and  C_7
REMARK    5  A    between atoms: C_7  and  C_9
REMARK    6  A    between atoms: C_10  and  C_11
REMARK                            x       y       z     vdW  Elec       q    Type
REMARK                         _______ _______ _______ _____ _____    ______ ____
ROOT
ATOM      1  C   UNL     1      34.942 -17.000 -21.698  0.00  0.00    -0.058 C 
ATOM      2  C   UNL     1      34.734 -16.072 -20.501  0.00  0.00    -0.023 C 
ENDROOT
BRANCH   1   3
ATOM      3  N   UNL     1      34.879 -16.196 -22.921  0.00  0.00    +0.386 N 
ATOM      4  H   UNL     1      34.166 -16.582 -23.540  0.00  0.00    -0.084 HD
ATOM      5  H   UNL     1      35.792 -16.219 -23.377  0.00  0.00    -0.084 HD
BRANCH   3   6
ATOM      6  C   UNL     1      34.546 -14.816 -22.611  0.00  0.00    -0.065 C 
BRANCH   6   7
ATOM      7  C   UNL     1      33.317 -14.364 -23.394  0.00  0.00    +0.082 C 
BRANCH   7   9
ATOM      8  N   UNL     1      31.847 -12.667 -22.024  0.00  0.00    -0.196 NA
ATOM      9  C   UNL     1      32.495 -13.416 -22.627  0.00  0.00    +0.071 C 
ENDBRANCH   7   9
ENDBRANCH   6   7
ENDBRANCH   3   6
ENDBRANCH   1   3
BRANCH   1  10
ATOM     10  C   UNL     1      33.889 -18.121 -21.765  0.00  0.00    +0.005 C 
BRANCH  10  11
ATOM     11  C   UNL     1      34.262 -19.350 -20.972  0.00  0.00    -0.024 C 
ATOM     12  C   UNL     1      33.261 -20.133 -20.419  0.00  0.00    -0.004 C 
ATOM     13  C   UNL     1      35.601 -19.674 -20.812  0.00  0.00    -0.004 C 
ATOM     14  C   UNL     1      33.606 -21.269 -19.688  0.00  0.00    -0.000 C 
ATOM     15  C   UNL     1      35.945 -20.811 -20.080  0.00  0.00    -0.000 C 
ATOM     16  C   UNL     1      34.948 -21.608 -19.518  0.00  0.00    -0.000 C 
ENDBRANCH  10  11
ENDBRANCH   1  10
TORSDOF 6
ENDMDL
