MODEL 1
REMARK VINA RESULT:     -10.5      0.000      0.000
REMARK  Name = 25011728
REMARK  4 active torsions:
REMARK  status: ('A' for Active; 'I' for Inactive)
REMARK    1  A    between atoms: N_1  and  C_15
REMARK    2  A    between atoms: N_2  and  C_22
REMARK    3  A    between atoms: C_21  and  S_27
REMARK    4  A    between atoms: S_27  and  N_30
REMARK                            x       y       z     vdW  Elec       q    Type
REMARK                         _______ _______ _______ _____ _____    ______ ____
ROOT
ATOM      1  N   UNL     1      34.781 -23.756 -14.838  0.00  0.00    -0.284 N 
ATOM      2  N   UNL     1      32.961 -22.020 -18.835  0.00  0.00    -0.247 N 
ATOM      3  N   UNL     1      33.886 -22.876 -16.856  0.00  0.00    -0.322 NA
ATOM      4  N   UNL     1      31.529 -23.079 -17.308  0.00  0.00    -0.170 NA
ATOM      5  C   UNL     1      33.681 -23.519 -15.688  0.00  0.00    +0.198 C 
ATOM      6  C   UNL     1      32.784 -22.692 -17.605  0.00  0.00    +0.150 C 
ATOM      7  C   UNL     1      32.445 -23.967 -15.267  0.00  0.00    +0.070 C 
ATOM      8  C   UNL     1      31.395 -23.716 -16.126  0.00  0.00    +0.116 C 
ATOM      9  H   UNL     1      34.543 -23.782 -13.883  0.00  0.00    +0.155 HD
ATOM     10  H   UNL     1      32.129 -21.908 -19.349  0.00  0.00    +0.165 HD
ENDROOT
BRANCH   1  15
ATOM     11 CL   UNL     1      36.321 -21.419 -16.052  0.00  0.00    -0.081 Cl
ATOM     12  O   UNL     1      36.109 -26.254 -14.241  0.00  0.00    -0.433 OA
ATOM     13  O   UNL     1      38.449 -26.665 -14.646  0.00  0.00    -0.435 OA
ATOM     14  C   UNL     1      36.738 -25.175 -14.783  0.00  0.00    +0.191 C 
ATOM     15  C   UNL     1      36.151 -23.964 -15.085  0.00  0.00    +0.098 C 
ATOM     16  C   UNL     1      38.074 -25.410 -15.014  0.00  0.00    +0.178 C 
ATOM     17  C   UNL     1      36.962 -22.970 -15.638  0.00  0.00    +0.074 C 
ATOM     18  C   UNL     1      38.896 -24.446 -15.560  0.00  0.00    +0.041 C 
ATOM     19  C   UNL     1      37.199 -27.194 -14.158  0.00  0.00    +0.429 C 
ATOM     20  C   UNL     1      38.327 -23.211 -15.875  0.00  0.00    +0.016 C 
ENDBRANCH   1  15
BRANCH   2  22
ATOM     21  C   UNL     1      35.079 -19.895 -21.004  0.00  0.00    +0.123 C 
ATOM     22  C   UNL     1      34.096 -21.481 -19.469  0.00  0.00    +0.059 C 
ATOM     23  C   UNL     1      33.955 -20.428 -20.373  0.00  0.00    +0.035 C 
ATOM     24  C   UNL     1      36.344 -20.414 -20.731  0.00  0.00    +0.020 C 
ATOM     25  C   UNL     1      35.361 -22.001 -19.197  0.00  0.00    +0.015 C 
ATOM     26  C   UNL     1      36.485 -21.467 -19.826  0.00  0.00    +0.003 C 
BRANCH  21  27
ATOM     27  S   UNL     1      34.904 -18.577 -22.136  0.00  0.00    +0.057 S 
ATOM     28  O   UNL     1      34.322 -19.101 -23.364  0.00  0.00    -0.153 OA
ATOM     29  O   UNL     1      34.266 -17.461 -21.452  0.00  0.00    -0.153 OA
BRANCH  27  30
ATOM     30  N   UNL     1      36.540 -18.179 -22.429  0.00  0.00    -0.203 NA
ATOM     31  H   UNL     1      36.597 -17.234 -22.807  0.00  0.00    +0.144 HD
ATOM     32  H   UNL     1      36.936 -18.839 -23.098  0.00  0.00    +0.144 HD
ENDBRANCH  27  30
ENDBRANCH  21  27
ENDBRANCH   2  22
TORSDOF 4
ENDMDL
MODEL 2
REMARK VINA RESULT:      -9.8      3.048      7.234
REMARK  Name = 25011728
REMARK  4 active torsions:
REMARK  status: ('A' for Active; 'I' for Inactive)
REMARK    1  A    between atoms: N_1  and  C_15
REMARK    2  A    between atoms: N_2  and  C_22
REMARK    3  A    between atoms: C_21  and  S_27
REMARK    4  A    between atoms: S_27  and  N_30
REMARK                            x       y       z     vdW  Elec       q    Type
REMARK                         _______ _______ _______ _____ _____    ______ ____
ROOT
ATOM      1  N   UNL     1      32.297 -22.647 -18.017  0.00  0.00    -0.284 N 
ATOM      2  N   UNL     1      33.136 -23.812 -13.518  0.00  0.00    -0.247 N 
ATOM      3  N   UNL     1      32.742 -23.234 -15.757  0.00  0.00    -0.322 NA
ATOM      4  N   UNL     1      30.926 -23.393 -14.182  0.00  0.00    -0.170 NA
ATOM      5  C   UNL     1      31.842 -22.903 -16.706  0.00  0.00    +0.198 C 
ATOM      6  C   UNL     1      32.223 -23.462 -14.536  0.00  0.00    +0.150 C 
ATOM      7  C   UNL     1      30.486 -22.798 -16.473  0.00  0.00    +0.070 C 
ATOM      8  C   UNL     1      30.081 -23.057 -15.180  0.00  0.00    +0.116 C 
ATOM      9  H   UNL     1      31.639 -22.869 -18.714  0.00  0.00    +0.155 HD
ATOM     10  H   UNL     1      32.713 -23.969 -12.643  0.00  0.00    +0.165 HD
ENDROOT
BRANCH   1  15
ATOM     11 CL   UNL     1      34.869 -23.817 -16.865  0.00  0.00    -0.081 Cl
ATOM     12  O   UNL     1      32.386 -20.590 -20.047  0.00  0.00    -0.433 OA
ATOM     13  O   UNL     1      34.425 -19.675 -20.949  0.00  0.00    -0.435 OA
ATOM     14  C   UNL     1      33.494 -21.152 -19.492  0.00  0.00    +0.191 C 
ATOM     15  C   UNL     1      33.506 -22.134 -18.524  0.00  0.00    +0.098 C 
ATOM     16  C   UNL     1      34.659 -20.630 -20.007  0.00  0.00    +0.178 C 
ATOM     17  C   UNL     1      34.748 -22.590 -18.076  0.00  0.00    +0.074 C 
ATOM     18  C   UNL     1      35.899 -21.061 -19.582  0.00  0.00    +0.041 C 
ATOM     19  C   UNL     1      32.983 -19.655 -20.968  0.00  0.00    +0.429 C 
ATOM     20  C   UNL     1      35.938 -22.055 -18.602  0.00  0.00    +0.016 C 
ENDBRANCH   1  15
BRANCH   2  22
ATOM     21  C   UNL     1      36.495 -25.239 -14.143  0.00  0.00    +0.123 C 
ATOM     22  C   UNL     1      34.534 -23.979 -13.508  0.00  0.00    +0.059 C 
ATOM     23  C   UNL     1      35.110 -25.073 -14.154  0.00  0.00    +0.035 C 
ATOM     24  C   UNL     1      37.304 -24.312 -13.487  0.00  0.00    +0.020 C 
ATOM     25  C   UNL     1      35.343 -23.052 -12.852  0.00  0.00    +0.015 C 
ATOM     26  C   UNL     1      36.727 -23.218 -12.841  0.00  0.00    +0.003 C 
BRANCH  21  27
ATOM     27  S   UNL     1      37.217 -26.609 -14.949  0.00  0.00    +0.057 S 
ATOM     28  O   UNL     1      37.499 -27.632 -13.953  0.00  0.00    -0.153 OA
ATOM     29  O   UNL     1      36.409 -26.938 -16.116  0.00  0.00    -0.153 OA
BRANCH  27  30
ATOM     30  N   UNL     1      38.695 -25.933 -15.478  0.00  0.00    -0.203 NA
ATOM     31  H   UNL     1      38.850 -25.042 -15.006  0.00  0.00    +0.144 HD
ATOM     32  H   UNL     1      38.659 -25.782 -16.487  0.00  0.00    +0.144 HD
ENDBRANCH  27  30
ENDBRANCH  21  27
ENDBRANCH   2  22
TORSDOF 4
ENDMDL
MODEL 3
REMARK VINA RESULT:      -9.7      1.983      2.223
REMARK  Name = 25011728
REMARK  4 active torsions:
REMARK  status: ('A' for Active; 'I' for Inactive)
REMARK    1  A    between atoms: N_1  and  C_15
REMARK    2  A    between atoms: N_2  and  C_22
REMARK    3  A    between atoms: C_21  and  S_27
REMARK    4  A    between atoms: S_27  and  N_30
REMARK                            x       y       z     vdW  Elec       q    Type
REMARK                         _______ _______ _______ _____ _____    ______ ____
ROOT
ATOM      1  N   UNL     1      34.098 -24.154 -13.760  0.00  0.00    -0.284 N 
ATOM      2  N   UNL     1      32.459 -22.639 -17.922  0.00  0.00    -0.247 N 
ATOM      3  N   UNL     1      33.295 -23.384 -15.860  0.00  0.00    -0.322 NA
ATOM      4  N   UNL     1      30.976 -23.688 -16.438  0.00  0.00    -0.170 NA
ATOM      5  C   UNL     1      33.042 -23.989 -14.681  0.00  0.00    +0.198 C 
ATOM      6  C   UNL     1      32.233 -23.269 -16.679  0.00  0.00    +0.150 C 
ATOM      7  C   UNL     1      31.799 -24.464 -14.314  0.00  0.00    +0.070 C 
ATOM      8  C   UNL     1      30.794 -24.284 -15.241  0.00  0.00    +0.116 C 
ATOM      9  H   UNL     1      33.806 -24.151 -12.820  0.00  0.00    +0.155 HD
ATOM     10  H   UNL     1      31.656 -22.577 -18.487  0.00  0.00    +0.165 HD
ENDROOT
BRANCH   1  15
ATOM     11 CL   UNL     1      35.010 -25.760 -16.188  0.00  0.00    -0.081 Cl
ATOM     12  O   UNL     1      36.024 -23.051 -11.906  0.00  0.00    -0.433 OA
ATOM     13  O   UNL     1      38.409 -23.312 -12.128  0.00  0.00    -0.435 OA
ATOM     14  C   UNL     1      36.364 -23.777 -13.006  0.00  0.00    +0.191 C 
ATOM     15  C   UNL     1      35.486 -24.322 -13.919  0.00  0.00    +0.098 C 
ATOM     16  C   UNL     1      37.726 -23.925 -13.133  0.00  0.00    +0.178 C 
ATOM     17  C   UNL     1      36.026 -25.038 -14.991  0.00  0.00    +0.074 C 
ATOM     18  C   UNL     1      38.285 -24.628 -14.181  0.00  0.00    +0.041 C 
ATOM     19  C   UNL     1      37.324 -22.761 -11.354  0.00  0.00    +0.429 C 
ATOM     20  C   UNL     1      37.418 -25.190 -15.120  0.00  0.00    +0.016 C 
ENDBRANCH   1  15
BRANCH   2  22
ATOM     21  C   UNL     1      34.629 -20.536 -20.062  0.00  0.00    +0.123 C 
ATOM     22  C   UNL     1      33.611 -22.085 -18.512  0.00  0.00    +0.059 C 
ATOM     23  C   UNL     1      33.488 -21.085 -19.476  0.00  0.00    +0.035 C 
ATOM     24  C   UNL     1      35.893 -20.989 -19.684  0.00  0.00    +0.020 C 
ATOM     25  C   UNL     1      34.875 -22.538 -18.135  0.00  0.00    +0.015 C 
ATOM     26  C   UNL     1      36.016 -21.990 -18.720  0.00  0.00    +0.003 C 
BRANCH  21  27
ATOM     27  S   UNL     1      34.476 -19.284 -21.269  0.00  0.00    +0.057 S 
ATOM     28  O   UNL     1      34.804 -19.855 -22.567  0.00  0.00    -0.153 OA
ATOM     29  O   UNL     1      33.199 -18.610 -21.077  0.00  0.00    -0.153 OA
BRANCH  27  30
ATOM     30  N   UNL     1      35.732 -18.225 -20.800  0.00  0.00    -0.203 NA
ATOM     31  H   UNL     1      36.219 -17.886 -21.630  0.00  0.00    +0.144 HD
ATOM     32  H   UNL     1      36.390 -18.721 -20.199  0.00  0.00    +0.144 HD
ENDBRANCH  27  30
ENDBRANCH  21  27
ENDBRANCH   2  22
TORSDOF 4
ENDMDL
MODEL 4
REMARK VINA RESULT:      -9.6      1.885      2.230
REMARK  Name = 25011728
REMARK  4 active torsions:
REMARK  status: ('A' for Active; 'I' for Inactive)
REMARK    1  A    between atoms: N_1  and  C_15
REMARK    2  A    between atoms: N_2  and  C_22
REMARK    3  A    between atoms: C_21  and  S_27
REMARK    4  A    between atoms: S_27  and  N_30
REMARK                            x       y       z     vdW  Elec       q    Type
REMARK                         _______ _______ _______ _____ _____    ______ ____
ROOT
ATOM      1  N   UNL     1      34.572 -24.582 -13.241  0.00  0.00    -0.284 N 
ATOM      2  N   UNL     1      32.942 -22.928 -17.353  0.00  0.00    -0.247 N 
ATOM      3  N   UNL     1      33.773 -23.742 -15.316  0.00  0.00    -0.322 NA
ATOM      4  N   UNL     1      31.453 -24.017 -15.904  0.00  0.00    -0.170 NA
ATOM      5  C   UNL     1      33.517 -24.383 -14.156  0.00  0.00    +0.198 C 
ATOM      6  C   UNL     1      32.712 -23.595 -16.130  0.00  0.00    +0.150 C 
ATOM      7  C   UNL     1      32.272 -24.864 -13.805  0.00  0.00    +0.070 C 
ATOM      8  C   UNL     1      31.268 -24.649 -14.726  0.00  0.00    +0.116 C 
ATOM      9  H   UNL     1      34.279 -24.607 -12.301  0.00  0.00    +0.155 HD
ATOM     10  H   UNL     1      32.138 -22.844 -17.916  0.00  0.00    +0.165 HD
ENDROOT
BRANCH   1  15
ATOM     11 CL   UNL     1      36.377 -22.862 -11.482  0.00  0.00    -0.081 Cl
ATOM     12  O   UNL     1      35.698 -26.452 -15.136  0.00  0.00    -0.433 OA
ATOM     13  O   UNL     1      38.064 -26.781 -15.461  0.00  0.00    -0.435 OA
ATOM     14  C   UNL     1      36.447 -25.657 -14.325  0.00  0.00    +0.191 C 
ATOM     15  C   UNL     1      35.959 -24.751 -13.405  0.00  0.00    +0.098 C 
ATOM     16  C   UNL     1      37.798 -25.844 -14.510  0.00  0.00    +0.178 C 
ATOM     17  C   UNL     1      36.887 -24.022 -12.658  0.00  0.00    +0.074 C 
ATOM     18  C   UNL     1      38.735 -25.136 -13.785  0.00  0.00    +0.041 C 
ATOM     19  C   UNL     1      36.729 -27.161 -15.854  0.00  0.00    +0.429 C 
ATOM     20  C   UNL     1      38.268 -24.213 -12.848  0.00  0.00    +0.016 C 
ENDBRANCH   1  15
BRANCH   2  22
ATOM     21  C   UNL     1      35.125 -20.920 -19.569  0.00  0.00    +0.123 C 
ATOM     22  C   UNL     1      34.096 -22.360 -17.925  0.00  0.00    +0.059 C 
ATOM     23  C   UNL     1      33.980 -21.481 -19.001  0.00  0.00    +0.035 C 
ATOM     24  C   UNL     1      36.383 -21.237 -19.060  0.00  0.00    +0.020 C 
ATOM     25  C   UNL     1      35.355 -22.678 -17.416  0.00  0.00    +0.015 C 
ATOM     26  C   UNL     1      36.498 -22.116 -17.983  0.00  0.00    +0.003 C 
BRANCH  21  27
ATOM     27  S   UNL     1      34.982 -19.820 -20.918  0.00  0.00    +0.057 S 
ATOM     28  O   UNL     1      35.671 -18.584 -20.578  0.00  0.00    -0.153 OA
ATOM     29  O   UNL     1      35.336 -20.535 -22.137  0.00  0.00    -0.153 OA
BRANCH  27  30
ATOM     30  N   UNL     1      33.297 -19.529 -20.923  0.00  0.00    -0.203 NA
ATOM     31  H   UNL     1      32.799 -20.416 -20.859  0.00  0.00    +0.144 HD
ATOM     32  H   UNL     1      33.037 -19.053 -21.786  0.00  0.00    +0.144 HD
ENDBRANCH  27  30
ENDBRANCH  21  27
ENDBRANCH   2  22
TORSDOF 4
ENDMDL
MODEL 5
REMARK VINA RESULT:      -9.6      8.100     12.795
REMARK  Name = 25011728
REMARK  4 active torsions:
REMARK  status: ('A' for Active; 'I' for Inactive)
REMARK    1  A    between atoms: N_1  and  C_15
REMARK    2  A    between atoms: N_2  and  C_22
REMARK    3  A    between atoms: C_21  and  S_27
REMARK    4  A    between atoms: S_27  and  N_30
REMARK                            x       y       z     vdW  Elec       q    Type
REMARK                         _______ _______ _______ _____ _____    ______ ____
ROOT
ATOM      1  N   UNL     1      32.458 -10.346 -23.400  0.00  0.00    -0.284 N 
ATOM      2  N   UNL     1      32.824 -14.218 -20.721  0.00  0.00    -0.247 N 
ATOM      3  N   UNL     1      32.655 -12.305 -22.068  0.00  0.00    -0.322 NA
ATOM      4  N   UNL     1      31.687 -12.354 -19.862  0.00  0.00    -0.170 NA
ATOM      5  C   UNL     1      32.201 -11.041 -22.199  0.00  0.00    +0.198 C 
ATOM      6  C   UNL     1      32.367 -12.893 -20.893  0.00  0.00    +0.150 C 
ATOM      7  C   UNL     1      31.493 -10.375 -21.219  0.00  0.00    +0.070 C 
ATOM      8  C   UNL     1      31.263 -11.089 -20.061  0.00  0.00    +0.116 C 
ATOM      9  H   UNL     1      31.766  -9.684 -23.628  0.00  0.00    +0.155 HD
ATOM     10  H   UNL     1      32.592 -14.607 -19.847  0.00  0.00    +0.165 HD
ENDROOT
BRANCH   1  15
ATOM     11 CL   UNL     1      34.528  -8.108 -23.291  0.00  0.00    -0.081 Cl
ATOM     12  O   UNL     1      32.680 -12.476 -25.343  0.00  0.00    -0.433 OA
ATOM     13  O   UNL     1      34.452 -12.636 -26.969  0.00  0.00    -0.435 OA
ATOM     14  C   UNL     1      33.567 -11.449 -25.243  0.00  0.00    +0.191 C 
ATOM     15  C   UNL     1      33.507 -10.412 -24.336  0.00  0.00    +0.098 C 
ATOM     16  C   UNL     1      34.580 -11.541 -26.171  0.00  0.00    +0.178 C 
ATOM     17  C   UNL     1      34.515  -9.447 -24.385  0.00  0.00    +0.074 C 
ATOM     18  C   UNL     1      35.587 -10.600 -26.242  0.00  0.00    +0.041 C 
ATOM     19  C   UNL     1      33.246 -13.223 -26.439  0.00  0.00    +0.429 C 
ATOM     20  C   UNL     1      35.549  -9.540 -25.334  0.00  0.00    +0.016 C 
ENDBRANCH   1  15
BRANCH   2  22
ATOM     21  C   UNL     1      34.429 -17.292 -22.021  0.00  0.00    +0.123 C 
ATOM     22  C   UNL     1      33.551 -15.090 -21.554  0.00  0.00    +0.059 C 
ATOM     23  C   UNL     1      33.707 -16.428 -21.195  0.00  0.00    +0.035 C 
ATOM     24  C   UNL     1      34.993 -16.817 -23.203  0.00  0.00    +0.020 C 
ATOM     25  C   UNL     1      34.116 -14.614 -22.737  0.00  0.00    +0.015 C 
ATOM     26  C   UNL     1      34.836 -15.477 -23.562  0.00  0.00    +0.003 C 
BRANCH  21  27
ATOM     27  S   UNL     1      34.626 -18.968 -21.572  0.00  0.00    +0.057 S 
ATOM     28  O   UNL     1      33.497 -19.356 -20.738  0.00  0.00    -0.153 OA
ATOM     29  O   UNL     1      34.938 -19.734 -22.770  0.00  0.00    -0.153 OA
BRANCH  27  30
ATOM     30  N   UNL     1      36.027 -18.880 -20.596  0.00  0.00    -0.203 NA
ATOM     31  H   UNL     1      35.758 -18.901 -19.613  0.00  0.00    +0.144 HD
ATOM     32  H   UNL     1      36.525 -18.012 -20.794  0.00  0.00    +0.144 HD
ENDBRANCH  27  30
ENDBRANCH  21  27
ENDBRANCH   2  22
TORSDOF 4
ENDMDL
MODEL 6
REMARK VINA RESULT:      -9.6      3.739      6.802
REMARK  Name = 25011728
REMARK  4 active torsions:
REMARK  status: ('A' for Active; 'I' for Inactive)
REMARK    1  A    between atoms: N_1  and  C_15
REMARK    2  A    between atoms: N_2  and  C_22
REMARK    3  A    between atoms: C_21  and  S_27
REMARK    4  A    between atoms: S_27  and  N_30
REMARK                            x       y       z     vdW  Elec       q    Type
REMARK                         _______ _______ _______ _____ _____    ______ ____
ROOT
ATOM      1  N   UNL     1      33.421 -23.257 -17.556  0.00  0.00    -0.284 N 
ATOM      2  N   UNL     1      34.198 -24.383 -13.036  0.00  0.00    -0.247 N 
ATOM      3  N   UNL     1      33.835 -23.820 -15.284  0.00  0.00    -0.322 NA
ATOM      4  N   UNL     1      31.996 -24.412 -13.844  0.00  0.00    -0.170 NA
ATOM      5  C   UNL     1      32.948 -23.651 -16.287  0.00  0.00    +0.198 C 
ATOM      6  C   UNL     1      33.299 -24.196 -14.108  0.00  0.00    +0.150 C 
ATOM      7  C   UNL     1      31.587 -23.841 -16.146  0.00  0.00    +0.070 C 
ATOM      8  C   UNL     1      31.165 -24.225 -14.891  0.00  0.00    +0.116 C 
ATOM      9  H   UNL     1      32.870 -23.587 -18.302  0.00  0.00    +0.155 HD
ATOM     10  H   UNL     1      33.763 -24.657 -12.197  0.00  0.00    +0.165 HD
ENDROOT
BRANCH   1  15
ATOM     11 CL   UNL     1      33.050 -21.575 -20.074  0.00  0.00    -0.081 Cl
ATOM     12  O   UNL     1      35.928 -23.235 -16.116  0.00  0.00    -0.433 OA
ATOM     13  O   UNL     1      37.848 -21.935 -16.775  0.00  0.00    -0.435 OA
ATOM     14  C   UNL     1      35.699 -22.510 -17.245  0.00  0.00    +0.191 C 
ATOM     15  C   UNL     1      34.523 -22.485 -17.966  0.00  0.00    +0.098 C 
ATOM     16  C   UNL     1      36.795 -21.767 -17.621  0.00  0.00    +0.178 C 
ATOM     17  C   UNL     1      34.477 -21.674 -19.103  0.00  0.00    +0.074 C 
ATOM     18  C   UNL     1      36.775 -20.960 -18.740  0.00  0.00    +0.041 C 
ATOM     19  C   UNL     1      37.291 -22.867 -15.825  0.00  0.00    +0.429 C 
ATOM     20  C   UNL     1      35.597 -20.916 -19.488  0.00  0.00    +0.016 C 
ENDBRANCH   1  15
BRANCH   2  22
ATOM     21  C   UNL     1      37.816 -25.050 -13.457  0.00  0.00    +0.123 C 
ATOM     22  C   UNL     1      35.596 -24.254 -12.933  0.00  0.00    +0.059 C 
ATOM     23  C   UNL     1      36.430 -25.178 -13.562  0.00  0.00    +0.035 C 
ATOM     24  C   UNL     1      38.367 -24.000 -12.724  0.00  0.00    +0.020 C 
ATOM     25  C   UNL     1      36.147 -23.204 -12.199  0.00  0.00    +0.015 C 
ATOM     26  C   UNL     1      37.532 -23.076 -12.095  0.00  0.00    +0.003 C 
BRANCH  21  27
ATOM     27  S   UNL     1      38.861 -26.207 -14.244  0.00  0.00    +0.057 S 
ATOM     28  O   UNL     1      40.054 -26.378 -13.427  0.00  0.00    -0.153 OA
ATOM     29  O   UNL     1      38.067 -27.369 -14.617  0.00  0.00    -0.153 OA
BRANCH  27  30
ATOM     30  N   UNL     1      39.283 -25.352 -15.663  0.00  0.00    -0.203 NA
ATOM     31  H   UNL     1      39.842 -25.953 -16.268  0.00  0.00    +0.144 HD
ATOM     32  H   UNL     1      39.823 -24.524 -15.413  0.00  0.00    +0.144 HD
ENDBRANCH  27  30
ENDBRANCH  21  27
ENDBRANCH   2  22
TORSDOF 4
ENDMDL
MODEL 7
REMARK VINA RESULT:      -9.5      1.964      2.427
REMARK  Name = 25011728
REMARK  4 active torsions:
REMARK  status: ('A' for Active; 'I' for Inactive)
REMARK    1  A    between atoms: N_1  and  C_15
REMARK    2  A    between atoms: N_2  and  C_22
REMARK    3  A    between atoms: C_21  and  S_27
REMARK    4  A    between atoms: S_27  and  N_30
REMARK                            x       y       z     vdW  Elec       q    Type
REMARK                         _______ _______ _______ _____ _____    ______ ____
ROOT
ATOM      1  N   UNL     1      34.577 -23.469 -14.127  0.00  0.00    -0.284 N 
ATOM      2  N   UNL     1      32.363 -22.466 -18.176  0.00  0.00    -0.247 N 
ATOM      3  N   UNL     1      33.483 -22.958 -16.174  0.00  0.00    -0.322 NA
ATOM      4  N   UNL     1      31.110 -23.321 -16.385  0.00  0.00    -0.170 NA
ATOM      5  C   UNL     1      33.403 -23.414 -14.906  0.00  0.00    +0.198 C 
ATOM      6  C   UNL     1      32.317 -22.939 -16.846  0.00  0.00    +0.150 C 
ATOM      7  C   UNL     1      32.228 -23.835 -14.316  0.00  0.00    +0.070 C 
ATOM      8  C   UNL     1      31.102 -23.765 -15.111  0.00  0.00    +0.116 C 
ATOM      9  H   UNL     1      34.416 -23.351 -13.163  0.00  0.00    +0.155 HD
ATOM     10  H   UNL     1      31.488 -22.470 -18.628  0.00  0.00    +0.165 HD
ENDROOT
BRANCH   1  15
ATOM     11 CL   UNL     1      36.042 -25.688 -12.631  0.00  0.00    -0.081 Cl
ATOM     12  O   UNL     1      35.942 -21.868 -16.110  0.00  0.00    -0.433 OA
ATOM     13  O   UNL     1      38.260 -22.152 -16.707  0.00  0.00    -0.435 OA
ATOM     14  C   UNL     1      36.538 -22.870 -15.407  0.00  0.00    +0.191 C 
ATOM     15  C   UNL     1      35.932 -23.662 -14.454  0.00  0.00    +0.098 C 
ATOM     16  C   UNL     1      37.861 -23.033 -15.749  0.00  0.00    +0.178 C 
ATOM     17  C   UNL     1      36.709 -24.646 -13.839  0.00  0.00    +0.074 C 
ATOM     18  C   UNL     1      38.651 -23.996 -15.155  0.00  0.00    +0.041 C 
ATOM     19  C   UNL     1      37.039 -21.417 -16.930  0.00  0.00    +0.429 C 
ATOM     20  C   UNL     1      38.062 -24.811 -14.187  0.00  0.00    +0.016 C 
ENDBRANCH   1  15
BRANCH   2  22
ATOM     21  C   UNL     1      34.322 -20.318 -20.469  0.00  0.00    +0.123 C 
ATOM     22  C   UNL     1      33.415 -21.993 -18.982  0.00  0.00    +0.059 C 
ATOM     23  C   UNL     1      33.279 -20.787 -19.669  0.00  0.00    +0.035 C 
ATOM     24  C   UNL     1      35.499 -21.056 -20.582  0.00  0.00    +0.020 C 
ATOM     25  C   UNL     1      34.593 -22.731 -19.096  0.00  0.00    +0.015 C 
ATOM     26  C   UNL     1      35.635 -22.263 -19.895  0.00  0.00    +0.003 C 
BRANCH  21  27
ATOM     27  S   UNL     1      34.152 -18.809 -21.330  0.00  0.00    +0.057 S 
ATOM     28  O   UNL     1      34.336 -19.067 -22.751  0.00  0.00    -0.153 OA
ATOM     29  O   UNL     1      32.941 -18.145 -20.866  0.00  0.00    -0.153 OA
BRANCH  27  30
ATOM     30  N   UNL     1      35.508 -17.948 -20.747  0.00  0.00    -0.203 NA
ATOM     31  H   UNL     1      36.357 -18.326 -21.166  0.00  0.00    +0.144 HD
ATOM     32  H   UNL     1      35.559 -18.040 -19.732  0.00  0.00    +0.144 HD
ENDBRANCH  27  30
ENDBRANCH  21  27
ENDBRANCH   2  22
TORSDOF 4
ENDMDL
MODEL 8
REMARK VINA RESULT:      -9.5      3.732      6.783
REMARK  Name = 25011728
REMARK  4 active torsions:
REMARK  status: ('A' for Active; 'I' for Inactive)
REMARK    1  A    between atoms: N_1  and  C_15
REMARK    2  A    between atoms: N_2  and  C_22
REMARK    3  A    between atoms: C_21  and  S_27
REMARK    4  A    between atoms: S_27  and  N_30
REMARK                            x       y       z     vdW  Elec       q    Type
REMARK                         _______ _______ _______ _____ _____    ______ ____
ROOT
ATOM      1  N   UNL     1      32.679 -22.401 -18.330  0.00  0.00    -0.284 N 
ATOM      2  N   UNL     1      33.270 -24.319 -14.056  0.00  0.00    -0.247 N 
ATOM      3  N   UNL     1      32.999 -23.368 -16.183  0.00  0.00    -0.322 NA
ATOM      4  N   UNL     1      31.112 -23.680 -14.718  0.00  0.00    -0.170 NA
ATOM      5  C   UNL     1      32.157 -22.840 -17.096  0.00  0.00    +0.198 C 
ATOM      6  C   UNL     1      32.419 -23.761 -15.034  0.00  0.00    +0.150 C 
ATOM      7  C   UNL     1      30.798 -22.702 -16.895  0.00  0.00    +0.070 C 
ATOM      8  C   UNL     1      30.327 -23.143 -15.676  0.00  0.00    +0.116 C 
ATOM      9  H   UNL     1      32.041 -22.473 -19.076  0.00  0.00    +0.155 HD
ATOM     10  H   UNL     1      32.802 -24.592 -13.233  0.00  0.00    +0.165 HD
ENDROOT
BRANCH   1  15
ATOM     11 CL   UNL     1      32.739 -20.663 -20.837  0.00  0.00    -0.081 Cl
ATOM     12  O   UNL     1      35.096 -22.923 -16.832  0.00  0.00    -0.433 OA
ATOM     13  O   UNL     1      37.265 -22.058 -17.431  0.00  0.00    -0.435 OA
ATOM     14  C   UNL     1      35.055 -22.159 -17.958  0.00  0.00    +0.191 C 
ATOM     15  C   UNL     1      33.931 -21.879 -18.706  0.00  0.00    +0.098 C 
ATOM     16  C   UNL     1      36.294 -21.665 -18.300  0.00  0.00    +0.178 C 
ATOM     17  C   UNL     1      34.087 -21.070 -19.834  0.00  0.00    +0.074 C 
ATOM     18  C   UNL     1      36.475 -20.864 -19.409  0.00  0.00    +0.041 C 
ATOM     19  C   UNL     1      36.499 -22.856 -16.505  0.00  0.00    +0.429 C 
ATOM     20  C   UNL     1      35.352 -20.566 -20.184  0.00  0.00    +0.016 C 
ENDBRANCH   1  15
BRANCH   2  22
ATOM     21  C   UNL     1      36.838 -24.116 -13.087  0.00  0.00    +0.123 C 
ATOM     22  C   UNL     1      34.656 -24.560 -14.026  0.00  0.00    +0.059 C 
ATOM     23  C   UNL     1      35.463 -23.878 -13.116  0.00  0.00    +0.035 C 
ATOM     24  C   UNL     1      37.405 -25.035 -13.969  0.00  0.00    +0.020 C 
ATOM     25  C   UNL     1      35.223 -25.479 -14.908  0.00  0.00    +0.015 C 
ATOM     26  C   UNL     1      36.597 -25.717 -14.879  0.00  0.00    +0.003 C 
BRANCH  21  27
ATOM     27  S   UNL     1      37.849 -23.261 -11.949  0.00  0.00    +0.057 S 
ATOM     28  O   UNL     1      39.110 -23.978 -11.827  0.00  0.00    -0.153 OA
ATOM     29  O   UNL     1      37.851 -21.848 -12.302  0.00  0.00    -0.153 OA
BRANCH  27  30
ATOM     30  N   UNL     1      36.958 -23.466 -10.505  0.00  0.00    -0.203 NA
ATOM     31  H   UNL     1      37.374 -22.899  -9.766  0.00  0.00    +0.144 HD
ATOM     32  H   UNL     1      36.974 -24.448 -10.231  0.00  0.00    +0.144 HD
ENDBRANCH  27  30
ENDBRANCH  21  27
ENDBRANCH   2  22
TORSDOF 4
ENDMDL
MODEL 9
REMARK VINA RESULT:      -9.1      3.244      7.397
REMARK  Name = 25011728
REMARK  4 active torsions:
REMARK  status: ('A' for Active; 'I' for Inactive)
REMARK    1  A    between atoms: N_1  and  C_15
REMARK    2  A    between atoms: N_2  and  C_22
REMARK    3  A    between atoms: C_21  and  S_27
REMARK    4  A    between atoms: S_27  and  N_30
REMARK                            x       y       z     vdW  Elec       q    Type
REMARK                         _______ _______ _______ _____ _____    ______ ____
ROOT
ATOM      1  N   UNL     1      32.228 -22.523 -18.129  0.00  0.00    -0.284 N 
ATOM      2  N   UNL     1      33.129 -24.106 -13.772  0.00  0.00    -0.247 N 
ATOM      3  N   UNL     1      32.704 -23.322 -15.942  0.00  0.00    -0.322 NA
ATOM      4  N   UNL     1      30.928 -23.514 -14.326  0.00  0.00    -0.170 NA
ATOM      5  C   UNL     1      31.797 -22.864 -16.830  0.00  0.00    +0.198 C 
ATOM      6  C   UNL     1      32.209 -23.623 -14.727  0.00  0.00    +0.150 C 
ATOM      7  C   UNL     1      30.456 -22.706 -16.543  0.00  0.00    +0.070 C 
ATOM      8  C   UNL     1      30.075 -23.051 -15.263  0.00  0.00    +0.116 C 
ATOM      9  H   UNL     1      31.538 -22.651 -18.820  0.00  0.00    +0.155 HD
ATOM     10  H   UNL     1      32.723 -24.313 -12.900  0.00  0.00    +0.165 HD
ENDROOT
BRANCH   1  15
ATOM     11 CL   UNL     1      34.769 -23.828 -17.055  0.00  0.00    -0.081 Cl
ATOM     12  O   UNL     1      32.368 -20.397 -20.084  0.00  0.00    -0.433 OA
ATOM     13  O   UNL     1      34.428 -19.523 -20.977  0.00  0.00    -0.435 OA
ATOM     14  C   UNL     1      33.462 -21.019 -19.564  0.00  0.00    +0.191 C 
ATOM     15  C   UNL     1      33.449 -22.036 -18.633  0.00  0.00    +0.098 C 
ATOM     16  C   UNL     1      34.638 -20.520 -20.075  0.00  0.00    +0.178 C 
ATOM     17  C   UNL     1      34.679 -22.552 -18.218  0.00  0.00    +0.074 C 
ATOM     18  C   UNL     1      35.867 -21.011 -19.681  0.00  0.00    +0.041 C 
ATOM     19  C   UNL     1      32.988 -19.450 -20.977  0.00  0.00    +0.429 C 
ATOM     20  C   UNL     1      35.881 -22.042 -18.740  0.00  0.00    +0.016 C 
ENDBRANCH   1  15
BRANCH   2  22
ATOM     21  C   UNL     1      36.748 -23.908 -13.012  0.00  0.00    +0.123 C 
ATOM     22  C   UNL     1      34.515 -24.349 -13.823  0.00  0.00    +0.059 C 
ATOM     23  C   UNL     1      35.374 -23.669 -12.960  0.00  0.00    +0.035 C 
ATOM     24  C   UNL     1      37.262 -24.826 -13.927  0.00  0.00    +0.020 C 
ATOM     25  C   UNL     1      35.029 -25.266 -14.739  0.00  0.00    +0.015 C 
ATOM     26  C   UNL     1      36.402 -25.505 -14.791  0.00  0.00    +0.003 C 
BRANCH  21  27
ATOM     27  S   UNL     1      37.825 -23.058 -11.932  0.00  0.00    +0.057 S 
ATOM     28  O   UNL     1      39.010 -23.877 -11.726  0.00  0.00    -0.153 OA
ATOM     29  O   UNL     1      37.965 -21.687 -12.405  0.00  0.00    -0.153 OA
BRANCH  27  30
ATOM     30  N   UNL     1      36.902 -23.050 -10.493  0.00  0.00    -0.203 NA
ATOM     31  H   UNL     1      37.167 -23.848  -9.916  0.00  0.00    +0.144 HD
ATOM     32  H   UNL     1      35.911 -23.111 -10.724  0.00  0.00    +0.144 HD
ENDBRANCH  27  30
ENDBRANCH  21  27
ENDBRANCH   2  22
TORSDOF 4
ENDMDL
