MODEL 1
REMARK VINA RESULT:      -9.3      0.000      0.000
REMARK  Name = 77254
REMARK  3 active torsions:
REMARK  status: ('A' for Active; 'I' for Inactive)
REMARK    1  A    between atoms: N_2  and  C_15
REMARK    2  A    between atoms: C_3  and  C_6
REMARK    3  A    between atoms: C_7  and  O_12
REMARK                            x       y       z     vdW  Elec       q    Type
REMARK                         _______ _______ _______ _____ _____    ______ ____
ROOT
ATOM      1  O   UNL     1      34.969 -16.095 -20.060  0.00  0.00    -0.270 OA
ATOM      2  N   UNL     1      33.857 -17.498 -21.575  0.00  0.00    -0.280 N 
ATOM      3  C   UNL     1      34.307 -16.262 -21.095  0.00  0.00    +0.252 C 
ATOM      4  H   UNL     1      33.340 -17.470 -22.413  0.00  0.00    +0.155 HD
ENDROOT
BRANCH   3   6
ATOM      5 BR   UNL     1      31.393 -11.836 -21.381  0.00  0.00    -0.049 Br
ATOM      6  C   UNL     1      33.926 -15.098 -21.885  0.00  0.00    +0.088 C 
ATOM      7  C   UNL     1      34.462 -14.890 -23.156  0.00  0.00    +0.138 C 
ATOM      8  C   UNL     1      33.012 -14.188 -21.355  0.00  0.00    +0.014 C 
ATOM      9  C   UNL     1      34.085 -13.770 -23.897  0.00  0.00    +0.037 C 
ATOM     10  C   UNL     1      32.633 -13.069 -22.096  0.00  0.00    +0.035 C 
ATOM     11  C   UNL     1      33.170 -12.860 -23.367  0.00  0.00    +0.010 C 
BRANCH   7  12
ATOM     12  O   UNL     1      35.355 -15.769 -23.691  0.00  0.00    -0.505 OA
ATOM     13  H   UNL     1      35.095 -16.332 -24.394  0.00  0.00    +0.292 HD
ENDBRANCH   7  12
ENDBRANCH   3   6
BRANCH   2  15
ATOM     14 CL   UNL     1      34.651 -22.859 -19.229  0.00  0.00    -0.082 Cl
ATOM     15  C   UNL     1      34.048 -18.784 -21.013  0.00  0.00    +0.051 C 
ATOM     16  C   UNL     1      32.949 -19.491 -20.556  0.00  0.00    +0.016 C 
ATOM     17  C   UNL     1      35.328 -19.305 -20.934  0.00  0.00    +0.016 C 
ATOM     18  C   UNL     1      33.137 -20.758 -20.001  0.00  0.00    +0.013 C 
ATOM     19  C   UNL     1      35.515 -20.570 -20.380  0.00  0.00    +0.013 C 
ATOM     20  C   UNL     1      34.419 -21.297 -19.913  0.00  0.00    +0.058 C 
ENDBRANCH   2  15
TORSDOF 3
ENDMDL
MODEL 2
REMARK VINA RESULT:      -9.2      2.200      2.740
REMARK  Name = 77254
REMARK  3 active torsions:
REMARK  status: ('A' for Active; 'I' for Inactive)
REMARK    1  A    between atoms: N_2  and  C_15
REMARK    2  A    between atoms: C_3  and  C_6
REMARK    3  A    between atoms: C_7  and  O_12
REMARK                            x       y       z     vdW  Elec       q    Type
REMARK                         _______ _______ _______ _____ _____    ______ ____
ROOT
ATOM      1  O   UNL     1      35.680 -17.859 -20.685  0.00  0.00    -0.270 OA
ATOM      2  N   UNL     1      34.271 -19.563 -21.468  0.00  0.00    -0.280 N 
ATOM      3  C   UNL     1      34.940 -18.336 -21.559  0.00  0.00    +0.252 C 
ATOM      4  H   UNL     1      33.718 -19.807 -22.245  0.00  0.00    +0.155 HD
ENDROOT
BRANCH   3   6
ATOM      5 BR   UNL     1      33.756 -13.632 -23.710  0.00  0.00    -0.049 Br
ATOM      6  C   UNL     1      34.706 -17.574 -22.778  0.00  0.00    +0.088 C 
ATOM      7  C   UNL     1      34.781 -18.186 -24.030  0.00  0.00    +0.138 C 
ATOM      8  C   UNL     1      34.401 -16.217 -22.682  0.00  0.00    +0.014 C 
ATOM      9  C   UNL     1      34.553 -17.440 -25.186  0.00  0.00    +0.037 C 
ATOM     10  C   UNL     1      34.171 -15.471 -23.838  0.00  0.00    +0.035 C 
ATOM     11  C   UNL     1      34.247 -16.082 -25.090  0.00  0.00    +0.010 C 
BRANCH   7  12
ATOM     12  O   UNL     1      35.076 -19.512 -24.144  0.00  0.00    -0.505 OA
ATOM     13  H   UNL     1      35.384 -19.990 -23.399  0.00  0.00    +0.292 HD
ENDBRANCH   7  12
ENDBRANCH   3   6
BRANCH   2  15
ATOM     14 CL   UNL     1      34.330 -23.461 -17.032  0.00  0.00    -0.082 Cl
ATOM     15  C   UNL     1      34.285 -20.498 -20.404  0.00  0.00    +0.051 C 
ATOM     16  C   UNL     1      33.084 -20.928 -19.866  0.00  0.00    +0.016 C 
ATOM     17  C   UNL     1      35.499 -20.962 -19.928  0.00  0.00    +0.016 C 
ATOM     18  C   UNL     1      33.098 -21.848 -18.818  0.00  0.00    +0.013 C 
ATOM     19  C   UNL     1      35.513 -21.882 -18.880  0.00  0.00    +0.013 C 
ATOM     20  C   UNL     1      34.312 -22.325 -18.325  0.00  0.00    +0.058 C 
ENDBRANCH   2  15
TORSDOF 3
ENDMDL
MODEL 3
REMARK VINA RESULT:      -9.1      4.287      7.087
REMARK  Name = 77254
REMARK  3 active torsions:
REMARK  status: ('A' for Active; 'I' for Inactive)
REMARK    1  A    between atoms: N_2  and  C_15
REMARK    2  A    between atoms: C_3  and  C_6
REMARK    3  A    between atoms: C_7  and  O_12
REMARK                            x       y       z     vdW  Elec       q    Type
REMARK                         _______ _______ _______ _____ _____    ______ ____
ROOT
ATOM      1  O   UNL     1      34.657 -14.888 -20.631  0.00  0.00    -0.270 OA
ATOM      2  N   UNL     1      33.319 -14.729 -22.550  0.00  0.00    -0.280 N 
ATOM      3  C   UNL     1      34.137 -15.401 -21.633  0.00  0.00    +0.252 C 
ATOM      4  H   UNL     1      32.979 -15.272 -23.298  0.00  0.00    +0.155 HD
ENDROOT
BRANCH   3   6
ATOM      5 BR   UNL     1      33.320 -20.459 -20.253  0.00  0.00    -0.049 Br
ATOM      6  C   UNL     1      34.397 -16.804 -21.924  0.00  0.00    +0.088 C 
ATOM      7  C   UNL     1      35.198 -17.174 -23.005  0.00  0.00    +0.138 C 
ATOM      8  C   UNL     1      33.837 -17.783 -21.103  0.00  0.00    +0.014 C 
ATOM      9  C   UNL     1      35.438 -18.523 -23.266  0.00  0.00    +0.037 C 
ATOM     10  C   UNL     1      34.077 -19.132 -21.364  0.00  0.00    +0.035 C 
ATOM     11  C   UNL     1      34.877 -19.502 -22.445  0.00  0.00    +0.010 C 
BRANCH   7  12
ATOM     12  O   UNL     1      35.757 -16.232 -23.817  0.00  0.00    -0.505 OA
ATOM     13  H   UNL     1      35.278 -15.457 -24.034  0.00  0.00    +0.292 HD
ENDBRANCH   7  12
ENDBRANCH   3   6
BRANCH   2  15
ATOM     14 CL   UNL     1      31.643  -9.066 -22.519  0.00  0.00    -0.082 Cl
ATOM     15  C   UNL     1      32.916 -13.371 -22.543  0.00  0.00    +0.051 C 
ATOM     16  C   UNL     1      33.435 -12.508 -23.493  0.00  0.00    +0.016 C 
ATOM     17  C   UNL     1      32.014 -12.938 -21.587  0.00  0.00    +0.016 C 
ATOM     18  C   UNL     1      33.039 -11.170 -23.485  0.00  0.00    +0.013 C 
ATOM     19  C   UNL     1      31.619 -11.601 -21.579  0.00  0.00    +0.013 C 
ATOM     20  C   UNL     1      32.132 -10.717 -22.528  0.00  0.00    +0.058 C 
ENDBRANCH   2  15
TORSDOF 3
ENDMDL
MODEL 4
REMARK VINA RESULT:      -8.9      4.974      7.866
REMARK  Name = 77254
REMARK  3 active torsions:
REMARK  status: ('A' for Active; 'I' for Inactive)
REMARK    1  A    between atoms: N_2  and  C_15
REMARK    2  A    between atoms: C_3  and  C_6
REMARK    3  A    between atoms: C_7  and  O_12
REMARK                            x       y       z     vdW  Elec       q    Type
REMARK                         _______ _______ _______ _____ _____    ______ ____
ROOT
ATOM      1  O   UNL     1      36.701 -21.267 -20.428  0.00  0.00    -0.270 OA
ATOM      2  N   UNL     1      34.706 -20.043 -20.264  0.00  0.00    -0.280 N 
ATOM      3  C   UNL     1      35.627 -21.018 -19.858  0.00  0.00    +0.252 C 
ATOM      4  H   UNL     1      33.897 -19.963 -19.709  0.00  0.00    +0.155 HD
ENDROOT
BRANCH   3   6
ATOM      5 BR   UNL     1      37.091 -22.946 -15.136  0.00  0.00    -0.049 Br
ATOM      6  C   UNL     1      35.251 -21.799 -18.687  0.00  0.00    +0.088 C 
ATOM      7  C   UNL     1      33.985 -22.377 -18.590  0.00  0.00    +0.138 C 
ATOM      8  C   UNL     1      36.177 -21.968 -17.659  0.00  0.00    +0.014 C 
ATOM      9  C   UNL     1      33.645 -23.122 -17.461  0.00  0.00    +0.037 C 
ATOM     10  C   UNL     1      35.838 -22.714 -16.531  0.00  0.00    +0.035 C 
ATOM     11  C   UNL     1      34.571 -23.292 -16.431  0.00  0.00    +0.010 C 
BRANCH   7  12
ATOM     12  O   UNL     1      33.068 -22.225 -19.586  0.00  0.00    -0.505 OA
ATOM     13  H   UNL     1      32.276 -21.751 -19.425  0.00  0.00    +0.292 HD
ENDBRANCH   7  12
ENDBRANCH   3   6
BRANCH   2  15
ATOM     14 CL   UNL     1      35.043 -16.360 -24.867  0.00  0.00    -0.082 Cl
ATOM     15  C   UNL     1      34.787 -19.160 -21.367  0.00  0.00    +0.051 C 
ATOM     16  C   UNL     1      34.639 -19.664 -22.648  0.00  0.00    +0.016 C 
ATOM     17  C   UNL     1      35.011 -17.813 -21.141  0.00  0.00    +0.016 C 
ATOM     18  C   UNL     1      34.719 -18.793 -23.736  0.00  0.00    +0.013 C 
ATOM     19  C   UNL     1      35.091 -16.943 -22.227  0.00  0.00    +0.013 C 
ATOM     20  C   UNL     1      34.945 -17.433 -23.526  0.00  0.00    +0.058 C 
ENDBRANCH   2  15
TORSDOF 3
ENDMDL
MODEL 5
REMARK VINA RESULT:      -8.8      4.177      7.117
REMARK  Name = 77254
REMARK  3 active torsions:
REMARK  status: ('A' for Active; 'I' for Inactive)
REMARK    1  A    between atoms: N_2  and  C_15
REMARK    2  A    between atoms: C_3  and  C_6
REMARK    3  A    between atoms: C_7  and  O_12
REMARK                            x       y       z     vdW  Elec       q    Type
REMARK                         _______ _______ _______ _____ _____    ______ ____
ROOT
ATOM      1  O   UNL     1      34.052 -19.340 -22.475  0.00  0.00    -0.270 OA
ATOM      2  N   UNL     1      34.607 -17.681 -20.913  0.00  0.00    -0.280 N 
ATOM      3  C   UNL     1      34.522 -19.000 -21.380  0.00  0.00    +0.252 C 
ATOM      4  H   UNL     1      35.007 -17.569 -20.020  0.00  0.00    +0.155 HD
ENDROOT
BRANCH   3   6
ATOM      5 BR   UNL     1      33.296 -22.965 -18.074  0.00  0.00    -0.049 Br
ATOM      6  C   UNL     1      35.011 -20.028 -20.470  0.00  0.00    +0.088 C 
ATOM      7  C   UNL     1      36.377 -20.188 -20.239  0.00  0.00    +0.138 C 
ATOM      8  C   UNL     1      34.092 -20.855 -19.826  0.00  0.00    +0.014 C 
ATOM      9  C   UNL     1      36.825 -21.177 -19.363  0.00  0.00    +0.037 C 
ATOM     10  C   UNL     1      34.539 -21.844 -18.949  0.00  0.00    +0.035 C 
ATOM     11  C   UNL     1      35.906 -22.005 -18.718  0.00  0.00    +0.010 C 
BRANCH   7  12
ATOM     12  O   UNL     1      37.290 -19.387 -20.857  0.00  0.00    -0.505 OA
ATOM     13  H   UNL     1      38.164 -19.695 -20.999  0.00  0.00    +0.292 HD
ENDBRANCH   7  12
ENDBRANCH   3   6
BRANCH   2  15
ATOM     14 CL   UNL     1      32.885 -12.713 -23.602  0.00  0.00    -0.082 Cl
ATOM     15  C   UNL     1      34.194 -16.490 -21.558  0.00  0.00    +0.051 C 
ATOM     16  C   UNL     1      34.871 -16.064 -22.687  0.00  0.00    +0.016 C 
ATOM     17  C   UNL     1      33.122 -15.780 -21.044  0.00  0.00    +0.016 C 
ATOM     18  C   UNL     1      34.464 -14.890 -23.322  0.00  0.00    +0.013 C 
ATOM     19  C   UNL     1      32.716 -14.607 -21.679  0.00  0.00    +0.013 C 
ATOM     20  C   UNL     1      33.387 -14.162 -22.818  0.00  0.00    +0.058 C 
ENDBRANCH   2  15
TORSDOF 3
ENDMDL
MODEL 6
REMARK VINA RESULT:      -8.7      1.584      1.892
REMARK  Name = 77254
REMARK  3 active torsions:
REMARK  status: ('A' for Active; 'I' for Inactive)
REMARK    1  A    between atoms: N_2  and  C_15
REMARK    2  A    between atoms: C_3  and  C_6
REMARK    3  A    between atoms: C_7  and  O_12
REMARK                            x       y       z     vdW  Elec       q    Type
REMARK                         _______ _______ _______ _____ _____    ______ ____
ROOT
ATOM      1  O   UNL     1      35.764 -18.007 -23.472  0.00  0.00    -0.270 OA
ATOM      2  N   UNL     1      33.903 -18.037 -22.045  0.00  0.00    -0.280 N 
ATOM      3  C   UNL     1      34.677 -17.538 -23.100  0.00  0.00    +0.252 C 
ATOM      4  H   UNL     1      33.061 -17.557 -21.868  0.00  0.00    +0.155 HD
ENDROOT
BRANCH   3   6
ATOM      5 BR   UNL     1      32.412 -12.765 -22.604  0.00  0.00    -0.049 Br
ATOM      6  C   UNL     1      34.148 -16.361 -23.775  0.00  0.00    +0.088 C 
ATOM      7  C   UNL     1      34.153 -16.272 -25.167  0.00  0.00    +0.138 C 
ATOM      8  C   UNL     1      33.630 -15.316 -23.010  0.00  0.00    +0.014 C 
ATOM      9  C   UNL     1      33.641 -15.137 -25.795  0.00  0.00    +0.037 C 
ATOM     10  C   UNL     1      33.116 -14.181 -23.638  0.00  0.00    +0.035 C 
ATOM     11  C   UNL     1      33.122 -14.091 -25.030  0.00  0.00    +0.010 C 
BRANCH   7  12
ATOM     12  O   UNL     1      34.653 -17.283 -25.932  0.00  0.00    -0.505 OA
ATOM     13  H   UNL     1      35.232 -17.915 -25.553  0.00  0.00    +0.292 HD
ENDBRANCH   7  12
ENDBRANCH   3   6
BRANCH   2  15
ATOM     14 CL   UNL     1      35.021 -22.642 -18.520  0.00  0.00    -0.082 Cl
ATOM     15  C   UNL     1      34.171 -19.141 -21.200  0.00  0.00    +0.051 C 
ATOM     16  C   UNL     1      33.113 -19.852 -20.660  0.00  0.00    +0.016 C 
ATOM     17  C   UNL     1      35.485 -19.486 -20.934  0.00  0.00    +0.016 C 
ATOM     18  C   UNL     1      33.377 -20.939 -19.827  0.00  0.00    +0.013 C 
ATOM     19  C   UNL     1      35.749 -20.572 -20.101  0.00  0.00    +0.013 C 
ATOM     20  C   UNL     1      34.695 -21.300 -19.548  0.00  0.00    +0.058 C 
ENDBRANCH   2  15
TORSDOF 3
ENDMDL
MODEL 7
REMARK VINA RESULT:      -8.6      5.362      8.047
REMARK  Name = 77254
REMARK  3 active torsions:
REMARK  status: ('A' for Active; 'I' for Inactive)
REMARK    1  A    between atoms: N_2  and  C_15
REMARK    2  A    between atoms: C_3  and  C_6
REMARK    3  A    between atoms: C_7  and  O_12
REMARK                            x       y       z     vdW  Elec       q    Type
REMARK                         _______ _______ _______ _____ _____    ______ ____
ROOT
ATOM      1  O   UNL     1      32.354 -13.682 -25.131  0.00  0.00    -0.270 OA
ATOM      2  N   UNL     1      34.068 -12.886 -23.741  0.00  0.00    -0.280 N 
ATOM      3  C   UNL     1      33.363 -13.878 -24.436  0.00  0.00    +0.252 C 
ATOM      4  H   UNL     1      34.851 -13.196 -23.231  0.00  0.00    +0.155 HD
ENDROOT
BRANCH   3   6
ATOM      5 BR   UNL     1      35.239 -17.596 -21.148  0.00  0.00    -0.049 Br
ATOM      6  C   UNL     1      33.866 -15.237 -24.288  0.00  0.00    +0.088 C 
ATOM      7  C   UNL     1      33.977 -16.082 -25.392  0.00  0.00    +0.138 C 
ATOM      8  C   UNL     1      34.242 -15.687 -23.023  0.00  0.00    +0.014 C 
ATOM      9  C   UNL     1      34.463 -17.380 -25.230  0.00  0.00    +0.037 C 
ATOM     10  C   UNL     1      34.729 -16.984 -22.861  0.00  0.00    +0.035 C 
ATOM     11  C   UNL     1      34.839 -17.831 -23.965  0.00  0.00    +0.010 C 
BRANCH   7  12
ATOM     12  O   UNL     1      33.618 -15.659 -26.637  0.00  0.00    -0.505 OA
ATOM     13  H   UNL     1      33.575 -14.743 -26.826  0.00  0.00    +0.292 HD
ENDBRANCH   7  12
ENDBRANCH   3   6
BRANCH   2  15
ATOM     14 CL   UNL     1      32.956  -7.093 -23.473  0.00  0.00    -0.082 Cl
ATOM     15  C   UNL     1      33.802 -11.497 -23.677  0.00  0.00    +0.051 C 
ATOM     16  C   UNL     1      32.688 -11.054 -22.984  0.00  0.00    +0.016 C 
ATOM     17  C   UNL     1      34.661 -10.613 -24.307  0.00  0.00    +0.016 C 
ATOM     18  C   UNL     1      32.425  -9.685 -22.921  0.00  0.00    +0.013 C 
ATOM     19  C   UNL     1      34.399  -9.246 -24.244  0.00  0.00    +0.013 C 
ATOM     20  C   UNL     1      33.280  -8.781 -23.551  0.00  0.00    +0.058 C 
ENDBRANCH   2  15
TORSDOF 3
ENDMDL
MODEL 8
REMARK VINA RESULT:      -8.6      1.753      2.545
REMARK  Name = 77254
REMARK  3 active torsions:
REMARK  status: ('A' for Active; 'I' for Inactive)
REMARK    1  A    between atoms: N_2  and  C_15
REMARK    2  A    between atoms: C_3  and  C_6
REMARK    3  A    between atoms: C_7  and  O_12
REMARK                            x       y       z     vdW  Elec       q    Type
REMARK                         _______ _______ _______ _____ _____    ______ ____
ROOT
ATOM      1  O   UNL     1      35.268 -18.099 -23.505  0.00  0.00    -0.270 OA
ATOM      2  N   UNL     1      33.976 -17.818 -21.567  0.00  0.00    -0.280 N 
ATOM      3  C   UNL     1      34.549 -17.399 -22.775  0.00  0.00    +0.252 C 
ATOM      4  H   UNL     1      33.428 -17.147 -21.098  0.00  0.00    +0.155 HD
ENDROOT
BRANCH   3   6
ATOM      5 BR   UNL     1      33.026 -14.069 -26.615  0.00  0.00    -0.049 Br
ATOM      6  C   UNL     1      34.280 -16.021 -23.161  0.00  0.00    +0.088 C 
ATOM      7  C   UNL     1      34.444 -14.978 -22.250  0.00  0.00    +0.138 C 
ATOM      8  C   UNL     1      33.858 -15.751 -24.462  0.00  0.00    +0.014 C 
ATOM      9  C   UNL     1      34.183 -13.664 -22.638  0.00  0.00    +0.037 C 
ATOM     10  C   UNL     1      33.598 -14.437 -24.852  0.00  0.00    +0.035 C 
ATOM     11  C   UNL     1      33.760 -13.393 -23.940  0.00  0.00    +0.010 C 
BRANCH   7  12
ATOM     12  O   UNL     1      34.859 -15.221 -20.974  0.00  0.00    -0.505 OA
ATOM     13  H   UNL     1      35.453 -15.925 -20.801  0.00  0.00    +0.292 HD
ENDBRANCH   7  12
ENDBRANCH   3   6
BRANCH   2  15
ATOM     14 CL   UNL     1      34.420 -23.078 -18.919  0.00  0.00    -0.082 Cl
ATOM     15  C   UNL     1      34.082 -19.079 -20.932  0.00  0.00    +0.051 C 
ATOM     16  C   UNL     1      35.338 -19.613 -20.695  0.00  0.00    +0.016 C 
ATOM     17  C   UNL     1      32.929 -19.749 -20.561  0.00  0.00    +0.016 C 
ATOM     18  C   UNL     1      35.443 -20.856 -20.070  0.00  0.00    +0.013 C 
ATOM     19  C   UNL     1      33.034 -20.991 -19.936  0.00  0.00    +0.013 C 
ATOM     20  C   UNL     1      34.291 -21.545 -19.691  0.00  0.00    +0.058 C 
ENDBRANCH   2  15
TORSDOF 3
ENDMDL
MODEL 9
REMARK VINA RESULT:      -8.5      5.730      8.624
REMARK  Name = 77254
REMARK  3 active torsions:
REMARK  status: ('A' for Active; 'I' for Inactive)
REMARK    1  A    between atoms: N_2  and  C_15
REMARK    2  A    between atoms: C_3  and  C_6
REMARK    3  A    between atoms: C_7  and  O_12
REMARK                            x       y       z     vdW  Elec       q    Type
REMARK                         _______ _______ _______ _____ _____    ______ ____
ROOT
ATOM      1  O   UNL     1      33.926 -23.676 -19.301  0.00  0.00    -0.270 OA
ATOM      2  N   UNL     1      33.709 -21.417 -18.710  0.00  0.00    -0.280 N 
ATOM      3  C   UNL     1      33.638 -22.796 -18.476  0.00  0.00    +0.252 C 
ATOM      4  H   UNL     1      33.447 -20.841 -17.955  0.00  0.00    +0.155 HD
ENDROOT
BRANCH   3   6
ATOM      5 BR   UNL     1      29.468 -23.441 -15.258  0.00  0.00    -0.049 Br
ATOM      6  C   UNL     1      33.162 -23.193 -17.158  0.00  0.00    +0.088 C 
ATOM      7  C   UNL     1      34.054 -23.619 -16.173  0.00  0.00    +0.138 C 
ATOM      8  C   UNL     1      31.795 -23.140 -16.886  0.00  0.00    +0.014 C 
ATOM      9  C   UNL     1      33.578 -23.994 -14.917  0.00  0.00    +0.037 C 
ATOM     10  C   UNL     1      31.319 -23.514 -15.629  0.00  0.00    +0.035 C 
ATOM     11  C   UNL     1      32.211 -23.941 -14.644  0.00  0.00    +0.010 C 
BRANCH   7  12
ATOM     12  O   UNL     1      35.393 -23.676 -16.419  0.00  0.00    -0.505 OA
ATOM     13  H   UNL     1      35.964 -23.026 -16.058  0.00  0.00    +0.292 HD
ENDBRANCH   7  12
ENDBRANCH   3   6
BRANCH   2  15
ATOM     14 CL   UNL     1      35.366 -18.605 -23.631  0.00  0.00    -0.082 Cl
ATOM     15  C   UNL     1      34.107 -20.742 -19.890  0.00  0.00    +0.051 C 
ATOM     16  C   UNL     1      33.140 -20.175 -20.702  0.00  0.00    +0.016 C 
ATOM     17  C   UNL     1      35.453 -20.665 -20.203  0.00  0.00    +0.016 C 
ATOM     18  C   UNL     1      33.532 -19.511 -21.865  0.00  0.00    +0.013 C 
ATOM     19  C   UNL     1      35.844 -20.001 -21.365  0.00  0.00    +0.013 C 
ATOM     20  C   UNL     1      34.883 -19.424 -22.197  0.00  0.00    +0.058 C 
ENDBRANCH   2  15
TORSDOF 3
ENDMDL
