MODEL 1
REMARK VINA RESULT:     -13.5      0.000      0.000
REMARK  Name = 24812717
REMARK  2 active torsions:
REMARK  status: ('A' for Active; 'I' for Inactive)
REMARK    1  A    between atoms: N_2  and  C_31
REMARK    2  A    between atoms: C_4  and  C_12
REMARK                            x       y       z     vdW  Elec       q    Type
REMARK                         _______ _______ _______ _____ _____    ______ ____
ROOT
ATOM      1  O   UNL     1      33.895 -15.235 -21.731  0.00  0.00    -0.269 OA
ATOM      2  N   UNL     1      33.529 -14.467 -23.928  0.00  0.00    -0.233 N 
ATOM      3  C   UNL     1      33.899 -15.421 -22.950  0.00  0.00    +0.256 C 
ATOM      4  C   UNL     1      34.281 -16.802 -23.448  0.00  0.00    +0.050 C 
ATOM      5  C   UNL     1      33.450 -14.845 -25.263  0.00  0.00    +0.072 C 
ATOM      6  C   UNL     1      34.192 -17.092 -24.762  0.00  0.00    -0.016 C 
ATOM      7  C   UNL     1      33.750 -16.075 -25.686  0.00  0.00    +0.012 C 
ATOM      8  C   UNL     1      34.528 -18.412 -25.403  0.00  0.00    +0.031 C 
ENDROOT
BRANCH   4  12
ATOM      9  N   UNL     1      36.015 -20.625 -19.678  0.00  0.00    -0.338 NA
ATOM     10  N   UNL     1      33.753 -21.400 -19.375  0.00  0.00    -0.170 NA
ATOM     11  N   UNL     1      35.525 -22.369 -18.186  0.00  0.00    -0.293 N 
ATOM     12  C   UNL     1      34.727 -17.802 -22.462  0.00  0.00    +0.004 C 
ATOM     13  C   UNL     1      33.804 -18.650 -21.857  0.00  0.00    +0.004 C 
ATOM     14  C   UNL     1      36.073 -17.906 -22.130  0.00  0.00    +0.003 C 
ATOM     15  C   UNL     1      34.235 -19.603 -20.918  0.00  0.00    +0.051 C 
ATOM     16  C   UNL     1      35.592 -19.717 -20.575  0.00  0.00    +0.146 C 
ATOM     17  C   UNL     1      36.494 -18.856 -21.195  0.00  0.00    +0.033 C 
ATOM     18  C   UNL     1      33.364 -20.480 -20.277  0.00  0.00    +0.114 C 
ATOM     19  C   UNL     1      35.073 -21.417 -19.127  0.00  0.00    +0.141 C 
ATOM     20  H   UNL     1      36.483 -22.426 -17.966  0.00  0.00    +0.155 HD
ATOM     21  H   UNL     1      34.882 -22.975 -17.752  0.00  0.00    +0.155 HD
ENDBRANCH   4  12
BRANCH   2  31
ATOM     22  N   UNL     1      34.193  -9.572 -24.106  0.00  0.00    -0.333 N 
ATOM     23  C   UNL     1      32.395  -9.045 -22.560  0.00  0.00    +0.038 C 
ATOM     24  C   UNL     1      33.683  -8.503 -23.255  0.00  0.00    +0.091 C 
ATOM     25  C   UNL     1      32.566 -10.530 -22.762  0.00  0.00    -0.008 C 
ATOM     26  C   UNL     1      33.621 -10.758 -23.652  0.00  0.00    +0.042 C 
ATOM     27  C   UNL     1      32.358  -8.651 -21.081  0.00  0.00    +0.006 C 
ATOM     28  C   UNL     1      31.134  -8.548 -23.280  0.00  0.00    +0.006 C 
ATOM     29  C   UNL     1      31.833 -11.582 -22.234  0.00  0.00    -0.002 C 
ATOM     30  C   UNL     1      33.937 -12.042 -24.060  0.00  0.00    +0.029 C 
ATOM     31  C   UNL     1      33.210 -13.109 -23.529  0.00  0.00    +0.060 C 
ATOM     32  C   UNL     1      32.167 -12.881 -22.619  0.00  0.00    +0.015 C 
ATOM     33  H   UNL     1      34.821  -9.474 -24.859  0.00  0.00    +0.147 HD
ENDBRANCH   2  31
TORSDOF 2
ENDMDL
MODEL 2
REMARK VINA RESULT:     -12.6      1.078      1.647
REMARK  Name = 24812717
REMARK  2 active torsions:
REMARK  status: ('A' for Active; 'I' for Inactive)
REMARK    1  A    between atoms: N_2  and  C_31
REMARK    2  A    between atoms: C_4  and  C_12
REMARK                            x       y       z     vdW  Elec       q    Type
REMARK                         _______ _______ _______ _____ _____    ______ ____
ROOT
ATOM      1  O   UNL     1      33.895 -15.674 -21.689  0.00  0.00    -0.269 OA
ATOM      2  N   UNL     1      33.636 -15.005 -23.933  0.00  0.00    -0.233 N 
ATOM      3  C   UNL     1      33.981 -15.906 -22.897  0.00  0.00    +0.256 C 
ATOM      4  C   UNL     1      34.444 -17.288 -23.315  0.00  0.00    +0.050 C 
ATOM      5  C   UNL     1      33.654 -15.436 -25.254  0.00  0.00    +0.072 C 
ATOM      6  C   UNL     1      34.447 -17.631 -24.619  0.00  0.00    -0.016 C 
ATOM      7  C   UNL     1      34.024 -16.669 -25.609  0.00  0.00    +0.012 C 
ATOM      8  C   UNL     1      34.870 -18.961 -25.185  0.00  0.00    +0.031 C 
ENDROOT
BRANCH   4  12
ATOM      9  N   UNL     1      36.084 -20.894 -19.297  0.00  0.00    -0.338 NA
ATOM     10  N   UNL     1      33.828 -21.709 -19.062  0.00  0.00    -0.170 NA
ATOM     11  N   UNL     1      35.563 -22.580 -17.750  0.00  0.00    -0.293 N 
ATOM     12  C   UNL     1      34.865 -18.232 -22.264  0.00  0.00    +0.004 C 
ATOM     13  C   UNL     1      33.933 -19.073 -21.663  0.00  0.00    +0.004 C 
ATOM     14  C   UNL     1      36.197 -18.288 -21.868  0.00  0.00    +0.003 C 
ATOM     15  C   UNL     1      34.342 -19.972 -20.662  0.00  0.00    +0.051 C 
ATOM     16  C   UNL     1      35.683 -20.038 -20.253  0.00  0.00    +0.146 C 
ATOM     17  C   UNL     1      36.594 -19.185 -20.872  0.00  0.00    +0.033 C 
ATOM     18  C   UNL     1      33.462 -20.839 -20.022  0.00  0.00    +0.114 C 
ATOM     19  C   UNL     1      35.135 -21.683 -18.754  0.00  0.00    +0.141 C 
ATOM     20  H   UNL     1      36.511 -22.604 -17.484  0.00  0.00    +0.155 HD
ATOM     21  H   UNL     1      34.915 -23.181 -17.318  0.00  0.00    +0.155 HD
ENDBRANCH   4  12
BRANCH   2  31
ATOM     22  N   UNL     1      30.916 -11.696 -21.467  0.00  0.00    -0.333 N 
ATOM     23  C   UNL     1      31.983  -9.748 -22.453  0.00  0.00    +0.038 C 
ATOM     24  C   UNL     1      30.736 -10.262 -21.666  0.00  0.00    +0.091 C 
ATOM     25  C   UNL     1      32.527 -11.045 -23.000  0.00  0.00    -0.008 C 
ATOM     26  C   UNL     1      31.862 -12.117 -22.398  0.00  0.00    +0.042 C 
ATOM     27  C   UNL     1      31.574  -8.768 -23.555  0.00  0.00    +0.006 C 
ATOM     28  C   UNL     1      32.999  -9.098 -21.504  0.00  0.00    +0.006 C 
ATOM     29  C   UNL     1      33.542 -11.255 -23.921  0.00  0.00    -0.002 C 
ATOM     30  C   UNL     1      32.227 -13.423 -22.678  0.00  0.00    +0.029 C 
ATOM     31  C   UNL     1      33.243 -13.647 -23.609  0.00  0.00    +0.060 C 
ATOM     32  C   UNL     1      33.895 -12.570 -24.229  0.00  0.00    +0.015 C 
ATOM     33  H   UNL     1      30.456 -12.258 -20.802  0.00  0.00    +0.147 HD
ENDBRANCH   2  31
TORSDOF 2
ENDMDL
MODEL 3
REMARK VINA RESULT:     -12.1      1.251      9.270
REMARK  Name = 24812717
REMARK  2 active torsions:
REMARK  status: ('A' for Active; 'I' for Inactive)
REMARK    1  A    between atoms: N_2  and  C_31
REMARK    2  A    between atoms: C_4  and  C_12
REMARK                            x       y       z     vdW  Elec       q    Type
REMARK                         _______ _______ _______ _____ _____    ______ ____
ROOT
ATOM      1  O   UNL     1      34.292 -15.289 -21.807  0.00  0.00    -0.269 OA
ATOM      2  N   UNL     1      34.432 -17.019 -23.400  0.00  0.00    -0.233 N 
ATOM      3  C   UNL     1      34.126 -15.711 -22.953  0.00  0.00    +0.256 C 
ATOM      4  C   UNL     1      33.599 -14.737 -23.990  0.00  0.00    +0.050 C 
ATOM      5  C   UNL     1      34.321 -17.328 -24.750  0.00  0.00    +0.072 C 
ATOM      6  C   UNL     1      33.507 -15.113 -25.281  0.00  0.00    -0.016 C 
ATOM      7  C   UNL     1      33.895 -16.451 -25.662  0.00  0.00    +0.012 C 
ATOM      8  C   UNL     1      33.012 -14.262 -26.420  0.00  0.00    +0.031 C 
ENDROOT
BRANCH   4  12
ATOM      9  N   UNL     1      32.110  -9.570 -22.281  0.00  0.00    -0.338 NA
ATOM     10  N   UNL     1      33.856  -8.588 -23.623  0.00  0.00    -0.170 NA
ATOM     11  N   UNL     1      32.434  -7.246 -22.331  0.00  0.00    -0.293 N 
ATOM     12  C   UNL     1      33.216 -13.384 -23.547  0.00  0.00    +0.004 C 
ATOM     13  C   UNL     1      33.910 -12.272 -24.013  0.00  0.00    +0.004 C 
ATOM     14  C   UNL     1      32.158 -13.212 -22.661  0.00  0.00    +0.003 C 
ATOM     15  C   UNL     1      33.540 -10.984 -23.587  0.00  0.00    +0.051 C 
ATOM     16  C   UNL     1      32.473 -10.797 -22.694  0.00  0.00    +0.146 C 
ATOM     17  C   UNL     1      31.796 -11.928 -22.244  0.00  0.00    +0.033 C 
ATOM     18  C   UNL     1      34.192  -9.831 -24.015  0.00  0.00    +0.114 C 
ATOM     19  C   UNL     1      32.821  -8.532 -22.768  0.00  0.00    +0.141 C 
ATOM     20  H   UNL     1      31.682  -7.146 -21.703  0.00  0.00    +0.155 HD
ATOM     21  H   UNL     1      32.916  -6.451 -22.653  0.00  0.00    +0.155 HD
ENDBRANCH   4  12
BRANCH   2  31
ATOM     22  N   UNL     1      33.653 -20.785 -20.294  0.00  0.00    -0.333 N 
ATOM     23  C   UNL     1      35.991 -21.078 -19.705  0.00  0.00    +0.038 C 
ATOM     24  C   UNL     1      34.520 -21.400 -19.296  0.00  0.00    +0.091 C 
ATOM     25  C   UNL     1      35.776 -19.930 -20.661  0.00  0.00    -0.008 C 
ATOM     26  C   UNL     1      34.411 -19.815 -20.945  0.00  0.00    +0.042 C 
ATOM     27  C   UNL     1      36.828 -20.681 -18.487  0.00  0.00    +0.006 C 
ATOM     28  C   UNL     1      36.631 -22.268 -20.433  0.00  0.00    +0.006 C 
ATOM     29  C   UNL     1      36.706 -19.087 -21.251  0.00  0.00    -0.002 C 
ATOM     30  C   UNL     1      33.956 -18.878 -21.857  0.00  0.00    +0.029 C 
ATOM     31  C   UNL     1      34.883 -18.020 -22.452  0.00  0.00    +0.060 C 
ATOM     32  C   UNL     1      36.249 -18.121 -22.149  0.00  0.00    +0.015 C 
ATOM     33  H   UNL     1      32.711 -21.012 -20.474  0.00  0.00    +0.147 HD
ENDBRANCH   2  31
TORSDOF 2
ENDMDL
MODEL 4
REMARK VINA RESULT:     -11.5      1.005      1.703
REMARK  Name = 24812717
REMARK  2 active torsions:
REMARK  status: ('A' for Active; 'I' for Inactive)
REMARK    1  A    between atoms: N_2  and  C_31
REMARK    2  A    between atoms: C_4  and  C_12
REMARK                            x       y       z     vdW  Elec       q    Type
REMARK                         _______ _______ _______ _____ _____    ______ ____
ROOT
ATOM      1  O   UNL     1      33.254 -16.206 -21.292  0.00  0.00    -0.269 OA
ATOM      2  N   UNL     1      33.697 -15.386 -23.455  0.00  0.00    -0.233 N 
ATOM      3  C   UNL     1      33.671 -16.372 -22.440  0.00  0.00    +0.256 C 
ATOM      4  C   UNL     1      34.151 -17.760 -22.818  0.00  0.00    +0.050 C 
ATOM      5  C   UNL     1      34.070 -15.738 -24.747  0.00  0.00    +0.072 C 
ATOM      6  C   UNL     1      34.510 -18.024 -24.090  0.00  0.00    -0.016 C 
ATOM      7  C   UNL     1      34.451 -16.974 -25.079  0.00  0.00    +0.012 C 
ATOM      8  C   UNL     1      34.997 -19.348 -24.618  0.00  0.00    +0.031 C 
ENDROOT
BRANCH   4  12
ATOM      9  N   UNL     1      34.277 -21.722 -18.804  0.00  0.00    -0.338 NA
ATOM     10  N   UNL     1      36.677 -21.552 -18.665  0.00  0.00    -0.170 NA
ATOM     11  N   UNL     1      35.499 -23.051 -17.303  0.00  0.00    -0.293 N 
ATOM     12  C   UNL     1      34.191 -18.795 -21.770  0.00  0.00    +0.004 C 
ATOM     13  C   UNL     1      35.407 -19.186 -21.218  0.00  0.00    +0.004 C 
ATOM     14  C   UNL     1      33.014 -19.387 -21.325  0.00  0.00    +0.003 C 
ATOM     15  C   UNL     1      35.439 -20.173 -20.217  0.00  0.00    +0.051 C 
ATOM     16  C   UNL     1      34.257 -20.778 -19.760  0.00  0.00    +0.146 C 
ATOM     17  C   UNL     1      33.055 -20.367 -20.330  0.00  0.00    +0.033 C 
ATOM     18  C   UNL     1      36.621 -20.609 -19.624  0.00  0.00    +0.114 C 
ATOM     19  C   UNL     1      35.486 -22.058 -18.308  0.00  0.00    +0.141 C 
ATOM     20  H   UNL     1      34.653 -23.457 -17.002  0.00  0.00    +0.155 HD
ATOM     21  H   UNL     1      36.352 -23.336 -16.904  0.00  0.00    +0.155 HD
ENDBRANCH   4  12
BRANCH   2  31
ATOM     22  N   UNL     1      33.934 -10.498 -24.152  0.00  0.00    -0.333 N 
ATOM     23  C   UNL     1      32.269  -9.950 -22.470  0.00  0.00    +0.038 C 
ATOM     24  C   UNL     1      33.430  -9.389 -23.350  0.00  0.00    +0.091 C 
ATOM     25  C   UNL     1      32.539 -11.432 -22.554  0.00  0.00    -0.008 C 
ATOM     26  C   UNL     1      33.512 -11.671 -23.530  0.00  0.00    +0.042 C 
ATOM     27  C   UNL     1      32.353  -9.415 -21.039  0.00  0.00    +0.006 C 
ATOM     28  C   UNL     1      30.903  -9.619 -23.089  0.00  0.00    +0.006 C 
ATOM     29  C   UNL     1      31.954 -12.476 -21.854  0.00  0.00    -0.002 C 
ATOM     30  C   UNL     1      33.889 -12.963 -23.852  0.00  0.00    +0.029 C 
ATOM     31  C   UNL     1      33.310 -14.022 -23.149  0.00  0.00    +0.060 C 
ATOM     32  C   UNL     1      32.351 -13.780 -22.154  0.00  0.00    +0.015 C 
ATOM     33  H   UNL     1      34.471 -10.431 -24.975  0.00  0.00    +0.147 HD
ENDBRANCH   2  31
TORSDOF 2
ENDMDL
MODEL 5
REMARK VINA RESULT:     -11.2      1.485      9.303
REMARK  Name = 24812717
REMARK  2 active torsions:
REMARK  status: ('A' for Active; 'I' for Inactive)
REMARK    1  A    between atoms: N_2  and  C_31
REMARK    2  A    between atoms: C_4  and  C_12
REMARK                            x       y       z     vdW  Elec       q    Type
REMARK                         _______ _______ _______ _____ _____    ______ ____
ROOT
ATOM      1  O   UNL     1      33.804 -16.149 -21.378  0.00  0.00    -0.269 OA
ATOM      2  N   UNL     1      34.273 -17.830 -22.961  0.00  0.00    -0.233 N 
ATOM      3  C   UNL     1      33.914 -16.525 -22.547  0.00  0.00    +0.256 C 
ATOM      4  C   UNL     1      33.699 -15.493 -23.639  0.00  0.00    +0.050 C 
ATOM      5  C   UNL     1      34.491 -18.089 -24.308  0.00  0.00    +0.072 C 
ATOM      6  C   UNL     1      33.918 -15.822 -24.928  0.00  0.00    -0.016 C 
ATOM      7  C   UNL     1      34.339 -17.163 -25.258  0.00  0.00    +0.012 C 
ATOM      8  C   UNL     1      33.755 -14.912 -26.115  0.00  0.00    +0.031 C 
ENDROOT
BRANCH   4  12
ATOM      9  N   UNL     1      32.030 -10.322 -22.119  0.00  0.00    -0.338 NA
ATOM     10  N   UNL     1      33.521  -9.331 -23.734  0.00  0.00    -0.170 NA
ATOM     11  N   UNL     1      32.165  -7.993 -22.370  0.00  0.00    -0.293 N 
ATOM     12  C   UNL     1      33.269 -14.139 -23.246  0.00  0.00    +0.004 C 
ATOM     13  C   UNL     1      33.813 -13.022 -23.871  0.00  0.00    +0.004 C 
ATOM     14  C   UNL     1      32.314 -13.971 -22.249  0.00  0.00    +0.003 C 
ATOM     15  C   UNL     1      33.398 -11.733 -23.493  0.00  0.00    +0.051 C 
ATOM     16  C   UNL     1      32.434 -11.550 -22.488  0.00  0.00    +0.146 C 
ATOM     17  C   UNL     1      31.906 -12.686 -21.880  0.00  0.00    +0.033 C 
ATOM     18  C   UNL     1      33.902 -10.575 -24.078  0.00  0.00    +0.114 C 
ATOM     19  C   UNL     1      32.595  -9.280 -22.762  0.00  0.00    +0.141 C 
ATOM     20  H   UNL     1      31.487  -7.895 -21.662  0.00  0.00    +0.155 HD
ATOM     21  H   UNL     1      32.541  -7.194 -22.805  0.00  0.00    +0.155 HD
ENDBRANCH   4  12
BRANCH   2  31
ATOM     22  N   UNL     1      32.534 -20.918 -19.514  0.00  0.00    -0.333 N 
ATOM     23  C   UNL     1      34.665 -22.004 -19.090  0.00  0.00    +0.038 C 
ATOM     24  C   UNL     1      33.225 -21.757 -18.542  0.00  0.00    +0.091 C 
ATOM     25  C   UNL     1      34.773 -20.901 -20.114  0.00  0.00    -0.008 C 
ATOM     26  C   UNL     1      33.516 -20.316 -20.298  0.00  0.00    +0.042 C 
ATOM     27  C   UNL     1      35.708 -21.879 -17.977  0.00  0.00    +0.006 C 
ATOM     28  C   UNL     1      34.765 -23.377 -19.769  0.00  0.00    +0.006 C 
ATOM     29  C   UNL     1      35.875 -20.477 -20.840  0.00  0.00    -0.002 C 
ATOM     30  C   UNL     1      33.330 -19.321 -21.242  0.00  0.00    +0.029 C 
ATOM     31  C   UNL     1      34.435 -18.882 -21.975  0.00  0.00    +0.060 C 
ATOM     32  C   UNL     1      35.700 -19.453 -21.773  0.00  0.00    +0.015 C 
ATOM     33  H   UNL     1      31.560 -20.799 -19.600  0.00  0.00    +0.147 HD
ENDBRANCH   2  31
TORSDOF 2
ENDMDL
