MODEL 1
REMARK VINA RESULT:      -7.6      0.000      0.000
REMARK  Name = 6323178
REMARK  8 active torsions:
REMARK  status: ('A' for Active; 'I' for Inactive)
REMARK    1  A    between atoms: C_1  and  C_2
REMARK    2  A    between atoms: C_1  and  C_10
REMARK    3  A    between atoms: C_1  and  C_11
REMARK    4  A    between atoms: C_3  and  O_7
REMARK    5  A    between atoms: C_11  and  C_12
REMARK    6  A    between atoms: C_12  and  C_13
REMARK    7  A    between atoms: C_13  and  C_14
REMARK    8  A    between atoms: C_14  and  C_17
REMARK                            x       y       z     vdW  Elec       q    Type
REMARK                         _______ _______ _______ _____ _____    ______ ____
ROOT
ATOM      1  C   UNL     1      34.310 -18.451 -21.828  0.00  0.00    +0.067 C 
ENDROOT
BRANCH   1   2
ATOM      2  C   UNL     1      34.260 -19.375 -20.619  0.00  0.00    +0.034 C 
ATOM      3  C   UNL     1      35.416 -20.370 -20.572  0.00  0.00    +0.111 C 
ATOM      4  C   UNL     1      33.040 -20.292 -20.614  0.00  0.00    +0.003 C 
ATOM      5  C   UNL     1      34.946 -21.396 -19.547  0.00  0.00    +0.029 C 
ATOM      6  C   UNL     1      33.425 -21.451 -19.695  0.00  0.00    +0.003 C 
BRANCH   3   7
ATOM      7  O   UNL     1      36.616 -19.742 -20.164  0.00  0.00    -0.384 OA
ATOM      8  H   UNL     1      37.099 -19.428 -20.945  0.00  0.00    +0.210 HD
ENDBRANCH   3   7
ENDBRANCH   1   2
BRANCH   1  10
ATOM      9  O   UNL     1      34.607 -19.032 -24.153  0.00  0.00    -0.288 OA
ATOM     10  C   UNL     1      34.923 -19.215 -22.982  0.00  0.00    +0.207 C 
ENDBRANCH   1  10
BRANCH   1  11
ATOM     11  C   UNL     1      35.136 -17.195 -21.522  0.00  0.00    +0.008 C 
BRANCH  11  12
ATOM     12  C   UNL     1      34.418 -15.908 -21.943  0.00  0.00    +0.001 C 
BRANCH  12  13
ATOM     13  C   UNL     1      34.795 -15.505 -23.372  0.00  0.00    +0.008 C 
BRANCH  13  14
ATOM     14  C   UNL     1      33.613 -14.935 -24.157  0.00  0.00    +0.060 C 
BRANCH  14  17
ATOM     15  N   UNL     1      32.585 -15.001 -26.403  0.00  0.00    -0.346 N 
ATOM     16  N   UNL     1      34.314 -16.510 -25.849  0.00  0.00    -0.289 NA
ATOM     17  C   UNL     1      33.513 -15.534 -25.547  0.00  0.00    +0.093 C 
ATOM     18  H   UNL     1      32.491 -15.363 -27.314  0.00  0.00    +0.143 HD
ATOM     19  H   UNL     1      32.014 -14.256 -26.109  0.00  0.00    +0.143 HD
ATOM     20  H   UNL     1      34.274 -16.920 -26.743  0.00  0.00    +0.188 HD
ENDBRANCH  14  17
ENDBRANCH  13  14
ENDBRANCH  12  13
ENDBRANCH  11  12
ENDBRANCH   1  11
TORSDOF 8
ENDMDL
MODEL 2
REMARK VINA RESULT:      -7.5      1.457      2.085
REMARK  Name = 6323178
REMARK  8 active torsions:
REMARK  status: ('A' for Active; 'I' for Inactive)
REMARK    1  A    between atoms: C_1  and  C_2
REMARK    2  A    between atoms: C_1  and  C_10
REMARK    3  A    between atoms: C_1  and  C_11
REMARK    4  A    between atoms: C_3  and  O_7
REMARK    5  A    between atoms: C_11  and  C_12
REMARK    6  A    between atoms: C_12  and  C_13
REMARK    7  A    between atoms: C_13  and  C_14
REMARK    8  A    between atoms: C_14  and  C_17
REMARK                            x       y       z     vdW  Elec       q    Type
REMARK                         _______ _______ _______ _____ _____    ______ ____
ROOT
ATOM      1  C   UNL     1      35.160 -18.970 -21.620  0.00  0.00    +0.067 C 
ENDROOT
BRANCH   1   2
ATOM      2  C   UNL     1      34.686 -19.750 -20.402  0.00  0.00    +0.034 C 
ATOM      3  C   UNL     1      35.568 -20.953 -20.076  0.00  0.00    +0.111 C 
ATOM      4  C   UNL     1      33.316 -20.393 -20.596  0.00  0.00    +0.003 C 
ATOM      5  C   UNL     1      34.704 -21.764 -19.117  0.00  0.00    +0.029 C 
ATOM      6  C   UNL     1      33.262 -21.519 -19.562  0.00  0.00    +0.003 C 
BRANCH   3   7
ATOM      7  O   UNL     1      36.780 -20.549 -19.468  0.00  0.00    -0.384 OA
ATOM      8  H   UNL     1      36.673 -19.661 -19.092  0.00  0.00    +0.210 HD
ENDBRANCH   3   7
ENDBRANCH   1   2
BRANCH   1  10
ATOM      9  O   UNL     1      34.361 -16.691 -21.660  0.00  0.00    -0.288 OA
ATOM     10  C   UNL     1      35.190 -17.501 -21.257  0.00  0.00    +0.207 C 
ENDBRANCH   1  10
BRANCH   1  11
ATOM     11  C   UNL     1      34.229 -19.204 -22.816  0.00  0.00    +0.008 C 
BRANCH  11  12
ATOM     12  C   UNL     1      34.979 -19.188 -24.152  0.00  0.00    +0.001 C 
BRANCH  12  13
ATOM     13  C   UNL     1      34.297 -18.258 -25.160  0.00  0.00    +0.008 C 
BRANCH  13  14
ATOM     14  C   UNL     1      34.885 -16.847 -25.155  0.00  0.00    +0.060 C 
BRANCH  14  17
ATOM     15  N   UNL     1      33.446 -15.106 -24.152  0.00  0.00    -0.346 N 
ATOM     16  N   UNL     1      33.307 -15.569 -26.461  0.00  0.00    -0.289 NA
ATOM     17  C   UNL     1      33.812 -15.783 -25.285  0.00  0.00    +0.093 C 
ATOM     18  H   UNL     1      32.753 -14.408 -24.197  0.00  0.00    +0.143 HD
ATOM     19  H   UNL     1      33.877 -15.317 -23.292  0.00  0.00    +0.143 HD
ATOM     20  H   UNL     1      32.609 -14.885 -26.580  0.00  0.00    +0.188 HD
ENDBRANCH  14  17
ENDBRANCH  13  14
ENDBRANCH  12  13
ENDBRANCH  11  12
ENDBRANCH   1  11
TORSDOF 8
ENDMDL
MODEL 3
REMARK VINA RESULT:      -7.4      2.396      3.976
REMARK  Name = 6323178
REMARK  8 active torsions:
REMARK  status: ('A' for Active; 'I' for Inactive)
REMARK    1  A    between atoms: C_1  and  C_2
REMARK    2  A    between atoms: C_1  and  C_10
REMARK    3  A    between atoms: C_1  and  C_11
REMARK    4  A    between atoms: C_3  and  O_7
REMARK    5  A    between atoms: C_11  and  C_12
REMARK    6  A    between atoms: C_12  and  C_13
REMARK    7  A    between atoms: C_13  and  C_14
REMARK    8  A    between atoms: C_14  and  C_17
REMARK                            x       y       z     vdW  Elec       q    Type
REMARK                         _______ _______ _______ _____ _____    ______ ____
ROOT
ATOM      1  C   UNL     1      35.560 -17.851 -21.530  0.00  0.00    +0.067 C 
ENDROOT
BRANCH   1   2
ATOM      2  C   UNL     1      35.540 -18.061 -23.037  0.00  0.00    +0.034 C 
ATOM      3  C   UNL     1      34.819 -16.946 -23.791  0.00  0.00    +0.111 C 
ATOM      4  C   UNL     1      34.758 -19.300 -23.461  0.00  0.00    +0.003 C 
ATOM      5  C   UNL     1      34.590 -17.556 -25.170  0.00  0.00    +0.029 C 
ATOM      6  C   UNL     1      34.395 -19.052 -24.925  0.00  0.00    +0.003 C 
BRANCH   3   7
ATOM      7  O   UNL     1      35.616 -15.780 -23.866  0.00  0.00    -0.384 OA
ATOM      8  H   UNL     1      36.253 -15.869 -24.593  0.00  0.00    +0.210 HD
ENDBRANCH   3   7
ENDBRANCH   1   2
BRANCH   1  10
ATOM      9  O   UNL     1      36.652 -19.517 -20.164  0.00  0.00    -0.288 OA
ATOM     10  C   UNL     1      35.695 -19.204 -20.866  0.00  0.00    +0.207 C 
ENDBRANCH   1  10
BRANCH   1  11
ATOM     11  C   UNL     1      34.280 -17.151 -21.057  0.00  0.00    +0.008 C 
BRANCH  11  12
ATOM     12  C   UNL     1      34.559 -15.775 -20.443  0.00  0.00    +0.001 C 
BRANCH  12  13
ATOM     13  C   UNL     1      33.335 -14.861 -20.550  0.00  0.00    +0.008 C 
BRANCH  13  14
ATOM     14  C   UNL     1      32.718 -14.862 -21.949  0.00  0.00    +0.060 C 
BRANCH  14  17
ATOM     15  N   UNL     1      31.822 -12.631 -22.522  0.00  0.00    -0.346 N 
ATOM     16  N   UNL     1      33.961 -13.277 -23.281  0.00  0.00    -0.289 NA
ATOM     17  C   UNL     1      32.861 -13.516 -22.635  0.00  0.00    +0.093 C 
ATOM     18  H   UNL     1      31.878 -11.748 -22.953  0.00  0.00    +0.143 HD
ATOM     19  H   UNL     1      31.019 -12.878 -22.009  0.00  0.00    +0.143 HD
ATOM     20  H   UNL     1      34.085 -12.413 -23.737  0.00  0.00    +0.188 HD
ENDBRANCH  14  17
ENDBRANCH  13  14
ENDBRANCH  12  13
ENDBRANCH  11  12
ENDBRANCH   1  11
TORSDOF 8
ENDMDL
MODEL 4
REMARK VINA RESULT:      -7.4      3.584      6.069
REMARK  Name = 6323178
REMARK  8 active torsions:
REMARK  status: ('A' for Active; 'I' for Inactive)
REMARK    1  A    between atoms: C_1  and  C_2
REMARK    2  A    between atoms: C_1  and  C_10
REMARK    3  A    between atoms: C_1  and  C_11
REMARK    4  A    between atoms: C_3  and  O_7
REMARK    5  A    between atoms: C_11  and  C_12
REMARK    6  A    between atoms: C_12  and  C_13
REMARK    7  A    between atoms: C_13  and  C_14
REMARK    8  A    between atoms: C_14  and  C_17
REMARK                            x       y       z     vdW  Elec       q    Type
REMARK                         _______ _______ _______ _____ _____    ______ ____
ROOT
ATOM      1  C   UNL     1      34.797 -15.903 -23.833  0.00  0.00    +0.067 C 
ENDROOT
BRANCH   1   2
ATOM      2  C   UNL     1      33.556 -15.164 -23.354  0.00  0.00    +0.034 C 
ATOM      3  C   UNL     1      33.662 -13.648 -23.502  0.00  0.00    +0.111 C 
ATOM      4  C   UNL     1      33.297 -15.328 -21.860  0.00  0.00    +0.003 C 
ATOM      5  C   UNL     1      32.524 -13.136 -22.627  0.00  0.00    +0.029 C 
ATOM      6  C   UNL     1      32.404 -14.145 -21.485  0.00  0.00    +0.003 C 
BRANCH   3   7
ATOM      7  O   UNL     1      33.497 -13.252 -24.851  0.00  0.00    -0.384 OA
ATOM      8  H   UNL     1      33.320 -14.034 -25.398  0.00  0.00    +0.210 HD
ENDBRANCH   3   7
ENDBRANCH   1   2
BRANCH   1  10
ATOM      9  O   UNL     1      34.013 -16.018 -26.114  0.00  0.00    -0.288 OA
ATOM     10  C   UNL     1      34.460 -16.602 -25.132  0.00  0.00    +0.207 C 
ENDBRANCH   1  10
BRANCH   1  11
ATOM     11  C   UNL     1      35.266 -16.920 -22.786  0.00  0.00    +0.008 C 
BRANCH  11  12
ATOM     12  C   UNL     1      35.562 -18.294 -23.398  0.00  0.00    +0.001 C 
BRANCH  12  13
ATOM     13  C   UNL     1      34.718 -19.389 -22.740  0.00  0.00    +0.008 C 
BRANCH  13  14
ATOM     14  C   UNL     1      34.162 -18.968 -21.379  0.00  0.00    +0.060 C 
BRANCH  14  17
ATOM     15  N   UNL     1      35.103 -20.656 -19.838  0.00  0.00    -0.346 N 
ATOM     16  N   UNL     1      32.784 -20.615 -20.274  0.00  0.00    -0.289 NA
ATOM     17  C   UNL     1      33.984 -20.152 -20.447  0.00  0.00    +0.093 C 
ATOM     18  H   UNL     1      35.027 -21.424 -19.226  0.00  0.00    +0.143 HD
ATOM     19  H   UNL     1      35.983 -20.250 -20.011  0.00  0.00    +0.143 HD
ATOM     20  H   UNL     1      32.635 -21.382 -19.675  0.00  0.00    +0.188 HD
ENDBRANCH  14  17
ENDBRANCH  13  14
ENDBRANCH  12  13
ENDBRANCH  11  12
ENDBRANCH   1  11
TORSDOF 8
ENDMDL
MODEL 5
REMARK VINA RESULT:      -7.3      3.703      6.037
REMARK  Name = 6323178
REMARK  8 active torsions:
REMARK  status: ('A' for Active; 'I' for Inactive)
REMARK    1  A    between atoms: C_1  and  C_2
REMARK    2  A    between atoms: C_1  and  C_10
REMARK    3  A    between atoms: C_1  and  C_11
REMARK    4  A    between atoms: C_3  and  O_7
REMARK    5  A    between atoms: C_11  and  C_12
REMARK    6  A    between atoms: C_12  and  C_13
REMARK    7  A    between atoms: C_13  and  C_14
REMARK    8  A    between atoms: C_14  and  C_17
REMARK                            x       y       z     vdW  Elec       q    Type
REMARK                         _______ _______ _______ _____ _____    ______ ____
ROOT
ATOM      1  C   UNL     1      35.291 -17.026 -23.388  0.00  0.00    +0.067 C 
ENDROOT
BRANCH   1   2
ATOM      2  C   UNL     1      34.257 -16.204 -22.633  0.00  0.00    +0.034 C 
ATOM      3  C   UNL     1      34.195 -14.748 -23.087  0.00  0.00    +0.111 C 
ATOM      4  C   UNL     1      34.567 -16.068 -21.145  0.00  0.00    +0.003 C 
ATOM      5  C   UNL     1      33.417 -14.069 -21.966  0.00  0.00    +0.029 C 
ATOM      6  C   UNL     1      33.789 -14.832 -20.694  0.00  0.00    +0.003 C 
BRANCH   3   7
ATOM      7  O   UNL     1      33.528 -14.627 -24.329  0.00  0.00    -0.384 OA
ATOM      8  H   UNL     1      33.433 -15.504 -24.732  0.00  0.00    +0.210 HD
ENDBRANCH   3   7
ENDBRANCH   1   2
BRANCH   1  10
ATOM      9  O   UNL     1      34.818 -16.938 -25.755  0.00  0.00    -0.288 OA
ATOM     10  C   UNL     1      34.662 -17.506 -24.678  0.00  0.00    +0.207 C 
ENDBRANCH   1  10
BRANCH   1  11
ATOM     11  C   UNL     1      35.760 -18.220 -22.548  0.00  0.00    +0.008 C 
BRANCH  11  12
ATOM     12  C   UNL     1      34.778 -19.396 -22.603  0.00  0.00    +0.001 C 
BRANCH  12  13
ATOM     13  C   UNL     1      34.165 -19.672 -21.227  0.00  0.00    +0.008 C 
BRANCH  13  14
ATOM     14  C   UNL     1      35.082 -20.501 -20.328  0.00  0.00    +0.060 C 
BRANCH  14  17
ATOM     15  N   UNL     1      32.970 -21.671 -19.796  0.00  0.00    -0.346 N 
ATOM     16  N   UNL     1      34.991 -22.362 -18.792  0.00  0.00    -0.289 NA
ATOM     17  C   UNL     1      34.321 -21.581 -19.582  0.00  0.00    +0.093 C 
ATOM     18  H   UNL     1      32.443 -22.359 -19.330  0.00  0.00    +0.143 HD
ATOM     19  H   UNL     1      32.528 -21.047 -20.416  0.00  0.00    +0.143 HD
ATOM     20  H   UNL     1      34.527 -23.073 -18.294  0.00  0.00    +0.188 HD
ENDBRANCH  14  17
ENDBRANCH  13  14
ENDBRANCH  12  13
ENDBRANCH  11  12
ENDBRANCH   1  11
TORSDOF 8
ENDMDL
MODEL 6
REMARK VINA RESULT:      -7.2      1.759      2.261
REMARK  Name = 6323178
REMARK  8 active torsions:
REMARK  status: ('A' for Active; 'I' for Inactive)
REMARK    1  A    between atoms: C_1  and  C_2
REMARK    2  A    between atoms: C_1  and  C_10
REMARK    3  A    between atoms: C_1  and  C_11
REMARK    4  A    between atoms: C_3  and  O_7
REMARK    5  A    between atoms: C_11  and  C_12
REMARK    6  A    between atoms: C_12  and  C_13
REMARK    7  A    between atoms: C_13  and  C_14
REMARK    8  A    between atoms: C_14  and  C_17
REMARK                            x       y       z     vdW  Elec       q    Type
REMARK                         _______ _______ _______ _____ _____    ______ ____
ROOT
ATOM      1  C   UNL     1      34.610 -18.423 -21.926  0.00  0.00    +0.067 C 
ENDROOT
BRANCH   1   2
ATOM      2  C   UNL     1      34.639 -19.835 -21.359  0.00  0.00    +0.034 C 
ATOM      3  C   UNL     1      33.525 -20.103 -20.350  0.00  0.00    +0.111 C 
ATOM      4  C   UNL     1      35.895 -20.130 -20.544  0.00  0.00    +0.003 C 
ATOM      5  C   UNL     1      33.987 -21.381 -19.659  0.00  0.00    +0.029 C 
ATOM      6  C   UNL     1      35.513 -21.310 -19.650  0.00  0.00    +0.003 C 
BRANCH   3   7
ATOM      7  O   UNL     1      32.280 -20.284 -20.998  0.00  0.00    -0.384 OA
ATOM      8  H   UNL     1      32.337 -21.041 -21.602  0.00  0.00    +0.210 HD
ENDBRANCH   3   7
ENDBRANCH   1   2
BRANCH   1  10
ATOM      9  O   UNL     1      35.001 -17.685 -24.192  0.00  0.00    -0.288 OA
ATOM     10  C   UNL     1      35.301 -18.440 -23.272  0.00  0.00    +0.207 C 
ENDBRANCH   1  10
BRANCH   1  11
ATOM     11  C   UNL     1      35.310 -17.439 -20.980  0.00  0.00    +0.008 C 
BRANCH  11  12
ATOM     12  C   UNL     1      34.751 -16.016 -21.099  0.00  0.00    +0.001 C 
BRANCH  12  13
ATOM     13  C   UNL     1      33.259 -16.035 -21.443  0.00  0.00    +0.008 C 
BRANCH  13  14
ATOM     14  C   UNL     1      32.776 -14.716 -22.049  0.00  0.00    +0.060 C 
BRANCH  14  17
ATOM     15  N   UNL     1      33.462 -15.253 -24.362  0.00  0.00    -0.346 N 
ATOM     16  N   UNL     1      34.182 -13.246 -23.350  0.00  0.00    -0.289 NA
ATOM     17  C   UNL     1      33.528 -14.366 -23.320  0.00  0.00    +0.093 C 
ATOM     18  H   UNL     1      33.937 -15.060 -25.203  0.00  0.00    +0.143 HD
ATOM     19  H   UNL     1      32.941 -16.082 -24.270  0.00  0.00    +0.143 HD
ATOM     20  H   UNL     1      34.679 -12.989 -24.160  0.00  0.00    +0.188 HD
ENDBRANCH  14  17
ENDBRANCH  13  14
ENDBRANCH  12  13
ENDBRANCH  11  12
ENDBRANCH   1  11
TORSDOF 8
ENDMDL
MODEL 7
REMARK VINA RESULT:      -7.2      3.410      5.629
REMARK  Name = 6323178
REMARK  8 active torsions:
REMARK  status: ('A' for Active; 'I' for Inactive)
REMARK    1  A    between atoms: C_1  and  C_2
REMARK    2  A    between atoms: C_1  and  C_10
REMARK    3  A    between atoms: C_1  and  C_11
REMARK    4  A    between atoms: C_3  and  O_7
REMARK    5  A    between atoms: C_11  and  C_12
REMARK    6  A    between atoms: C_12  and  C_13
REMARK    7  A    between atoms: C_13  and  C_14
REMARK    8  A    between atoms: C_14  and  C_17
REMARK                            x       y       z     vdW  Elec       q    Type
REMARK                         _______ _______ _______ _____ _____    ______ ____
ROOT
ATOM      1  C   UNL     1      35.034 -16.426 -23.302  0.00  0.00    +0.067 C 
ENDROOT
BRANCH   1   2
ATOM      2  C   UNL     1      34.422 -15.350 -22.417  0.00  0.00    +0.034 C 
ATOM      3  C   UNL     1      33.966 -15.874 -21.058  0.00  0.00    +0.111 C 
ATOM      4  C   UNL     1      33.136 -14.761 -22.988  0.00  0.00    +0.003 C 
ATOM      5  C   UNL     1      33.067 -14.756 -20.541  0.00  0.00    +0.029 C 
ATOM      6  C   UNL     1      32.417 -14.150 -21.785  0.00  0.00    +0.003 C 
BRANCH   3   7
ATOM      7  O   UNL     1      35.067 -16.093 -20.197  0.00  0.00    -0.384 OA
ATOM      8  H   UNL     1      34.759 -16.513 -19.378  0.00  0.00    +0.210 HD
ENDBRANCH   3   7
ENDBRANCH   1   2
BRANCH   1  10
ATOM      9  O   UNL     1      34.921 -16.865 -25.674  0.00  0.00    -0.288 OA
ATOM     10  C   UNL     1      34.488 -16.252 -24.702  0.00  0.00    +0.207 C 
ENDBRANCH   1  10
BRANCH   1  11
ATOM     11  C   UNL     1      34.702 -17.825 -22.770  0.00  0.00    +0.008 C 
BRANCH  11  12
ATOM     12  C   UNL     1      35.957 -18.612 -22.373  0.00  0.00    +0.001 C 
BRANCH  12  13
ATOM     13  C   UNL     1      35.723 -19.419 -21.093  0.00  0.00    +0.008 C 
BRANCH  13  14
ATOM     14  C   UNL     1      34.245 -19.727 -20.850  0.00  0.00    +0.060 C 
BRANCH  14  17
ATOM     15  N   UNL     1      32.790 -21.457 -19.852  0.00  0.00    -0.346 N 
ATOM     16  N   UNL     1      35.102 -21.442 -19.382  0.00  0.00    -0.289 NA
ATOM     17  C   UNL     1      34.056 -20.947 -19.969  0.00  0.00    +0.093 C 
ATOM     18  H   UNL     1      32.628 -22.248 -19.289  0.00  0.00    +0.143 HD
ATOM     19  H   UNL     1      32.042 -21.033 -20.332  0.00  0.00    +0.143 HD
ATOM     20  H   UNL     1      35.013 -22.233 -18.804  0.00  0.00    +0.188 HD
ENDBRANCH  14  17
ENDBRANCH  13  14
ENDBRANCH  12  13
ENDBRANCH  11  12
ENDBRANCH   1  11
TORSDOF 8
ENDMDL
MODEL 8
REMARK VINA RESULT:      -7.1      8.756     10.742
REMARK  Name = 6323178
REMARK  8 active torsions:
REMARK  status: ('A' for Active; 'I' for Inactive)
REMARK    1  A    between atoms: C_1  and  C_2
REMARK    2  A    between atoms: C_1  and  C_10
REMARK    3  A    between atoms: C_1  and  C_11
REMARK    4  A    between atoms: C_3  and  O_7
REMARK    5  A    between atoms: C_11  and  C_12
REMARK    6  A    between atoms: C_12  and  C_13
REMARK    7  A    between atoms: C_13  and  C_14
REMARK    8  A    between atoms: C_14  and  C_17
REMARK                            x       y       z     vdW  Elec       q    Type
REMARK                         _______ _______ _______ _____ _____    ______ ____
ROOT
ATOM      1  C   UNL     1      32.168 -22.971 -15.899  0.00  0.00    +0.067 C 
ENDROOT
BRANCH   1   2
ATOM      2  C   UNL     1      30.908 -23.821 -15.971  0.00  0.00    +0.034 C 
ATOM      3  C   UNL     1      29.622 -22.999 -15.942  0.00  0.00    +0.111 C 
ATOM      4  C   UNL     1      30.733 -24.741 -14.766  0.00  0.00    +0.003 C 
ATOM      5  C   UNL     1      28.553 -24.041 -15.631  0.00  0.00    +0.029 C 
ATOM      6  C   UNL     1      29.242 -25.076 -14.741  0.00  0.00    +0.003 C 
BRANCH   3   7
ATOM      7  O   UNL     1      29.388 -22.372 -17.189  0.00  0.00    -0.384 OA
ATOM      8  H   UNL     1      28.613 -21.792 -17.119  0.00  0.00    +0.210 HD
ENDBRANCH   3   7
ENDBRANCH   1   2
BRANCH   1  10
ATOM      9  O   UNL     1      32.437 -22.540 -18.260  0.00  0.00    -0.288 OA
ATOM     10  C   UNL     1      32.872 -23.056 -17.235  0.00  0.00    +0.207 C 
ENDBRANCH   1  10
BRANCH   1  11
ATOM     11  C   UNL     1      33.093 -23.458 -14.776  0.00  0.00    +0.008 C 
BRANCH  11  12
ATOM     12  C   UNL     1      34.553 -23.568 -15.230  0.00  0.00    +0.001 C 
BRANCH  12  13
ATOM     13  C   UNL     1      35.112 -24.969 -14.961  0.00  0.00    +0.008 C 
BRANCH  13  14
ATOM     14  C   UNL     1      36.638 -25.019 -15.032  0.00  0.00    +0.060 C 
BRANCH  14  17
ATOM     15  N   UNL     1      38.020 -26.875 -14.163  0.00  0.00    -0.346 N 
ATOM     16  N   UNL     1      36.746 -27.169 -16.128  0.00  0.00    -0.289 NA
ATOM     17  C   UNL     1      37.155 -26.442 -15.134  0.00  0.00    +0.093 C 
ATOM     18  H   UNL     1      38.377 -27.792 -14.195  0.00  0.00    +0.143 HD
ATOM     19  H   UNL     1      38.284 -26.270 -13.433  0.00  0.00    +0.143 HD
ATOM     20  H   UNL     1      37.063 -28.096 -16.222  0.00  0.00    +0.188 HD
ENDBRANCH  14  17
ENDBRANCH  13  14
ENDBRANCH  12  13
ENDBRANCH  11  12
ENDBRANCH   1  11
TORSDOF 8
ENDMDL
MODEL 9
REMARK VINA RESULT:      -7.0      1.228      1.477
REMARK  Name = 6323178
REMARK  8 active torsions:
REMARK  status: ('A' for Active; 'I' for Inactive)
REMARK    1  A    between atoms: C_1  and  C_2
REMARK    2  A    between atoms: C_1  and  C_10
REMARK    3  A    between atoms: C_1  and  C_11
REMARK    4  A    between atoms: C_3  and  O_7
REMARK    5  A    between atoms: C_11  and  C_12
REMARK    6  A    between atoms: C_12  and  C_13
REMARK    7  A    between atoms: C_13  and  C_14
REMARK    8  A    between atoms: C_14  and  C_17
REMARK                            x       y       z     vdW  Elec       q    Type
REMARK                         _______ _______ _______ _____ _____    ______ ____
ROOT
ATOM      1  C   UNL     1      34.331 -18.382 -21.981  0.00  0.00    +0.067 C 
ENDROOT
BRANCH   1   2
ATOM      2  C   UNL     1      34.253 -19.272 -20.749  0.00  0.00    +0.034 C 
ATOM      3  C   UNL     1      35.404 -20.270 -20.653  0.00  0.00    +0.111 C 
ATOM      4  C   UNL     1      33.030 -20.183 -20.742  0.00  0.00    +0.003 C 
ATOM      5  C   UNL     1      34.910 -21.266 -19.609  0.00  0.00    +0.029 C 
ATOM      6  C   UNL     1      33.392 -21.318 -19.784  0.00  0.00    +0.003 C 
BRANCH   3   7
ATOM      7  O   UNL     1      36.599 -19.636 -20.239  0.00  0.00    -0.384 OA
ATOM      8  H   UNL     1      36.711 -19.749 -19.282  0.00  0.00    +0.210 HD
ENDBRANCH   3   7
ENDBRANCH   1   2
BRANCH   1  10
ATOM      9  O   UNL     1      34.663 -19.291 -24.193  0.00  0.00    -0.288 OA
ATOM     10  C   UNL     1      35.092 -19.127 -23.055  0.00  0.00    +0.207 C 
ENDBRANCH   1  10
BRANCH   1  11
ATOM     11  C   UNL     1      35.029 -17.056 -21.655  0.00  0.00    +0.008 C 
BRANCH  11  12
ATOM     12  C   UNL     1      34.872 -16.022 -22.776  0.00  0.00    +0.001 C 
BRANCH  12  13
ATOM     13  C   UNL     1      34.382 -14.679 -22.226  0.00  0.00    +0.008 C 
BRANCH  13  14
ATOM     14  C   UNL     1      33.100 -14.195 -22.905  0.00  0.00    +0.060 C 
BRANCH  14  17
ATOM     15  N   UNL     1      34.092 -12.300 -24.144  0.00  0.00    -0.346 N 
ATOM     16  N   UNL     1      32.953 -14.008 -25.309  0.00  0.00    -0.289 NA
ATOM     17  C   UNL     1      33.386 -13.472 -24.209  0.00  0.00    +0.093 C 
ATOM     18  H   UNL     1      34.297 -11.802 -24.969  0.00  0.00    +0.143 HD
ATOM     19  H   UNL     1      34.395 -11.955 -23.273  0.00  0.00    +0.143 HD
ATOM     20  H   UNL     1      33.122 -13.564 -26.171  0.00  0.00    +0.188 HD
ENDBRANCH  14  17
ENDBRANCH  13  14
ENDBRANCH  12  13
ENDBRANCH  11  12
ENDBRANCH   1  11
TORSDOF 8
ENDMDL
