MODEL 1
REMARK VINA RESULT:      -9.8      0.000      0.000
REMARK  Name = 46937169
REMARK  8 active torsions:
REMARK  status: ('A' for Active; 'I' for Inactive)
REMARK    1  A    between atoms: C_2  and  C_23
REMARK    2  A    between atoms: C_6  and  O_11
REMARK    3  A    between atoms: C_8  and  N_13
REMARK    4  A    between atoms: N_13  and  N_15
REMARK    5  A    between atoms: N_15  and  C_17
REMARK    6  A    between atoms: C_23  and  CA_24
REMARK    7  A    between atoms: CA_24  and  N_25
REMARK    8  A    between atoms: CA_24  and  C_30
REMARK                            x       y       z     vdW  Elec       q    Type
REMARK                         _______ _______ _______ _____ _____    ______ ____
ROOT
ATOM      1  N   UNL     1      36.666 -19.927 -20.248  0.00  0.00    -0.309 N 
ATOM      2  C   UNL     1      35.155 -18.749 -21.369  0.00  0.00    -0.008 C 
ATOM      3  C   UNL     1      34.482 -19.801 -20.688  0.00  0.00    +0.014 C 
ATOM      4  C   UNL     1      35.453 -20.526 -19.991  0.00  0.00    +0.083 C 
ATOM      5  C   UNL     1      36.495 -18.852 -21.079  0.00  0.00    +0.058 C 
ATOM      6  C   UNL     1      35.144 -21.641 -19.205  0.00  0.00    +0.161 C 
ATOM      7  C   UNL     1      33.137 -20.209 -20.596  0.00  0.00    +0.002 C 
ATOM      8  C   UNL     1      33.802 -22.027 -19.129  0.00  0.00    +0.096 C 
ATOM      9  C   UNL     1      32.813 -21.323 -19.813  0.00  0.00    +0.019 C 
ATOM     10  H   UNL     1      37.531 -20.228 -19.885  0.00  0.00    +0.152 HD
ENDROOT
BRANCH   6  11
ATOM     11  O   UNL     1      36.117 -22.330 -18.535  0.00  0.00    -0.503 OA
ATOM     12  H   UNL     1      37.020 -22.147 -18.704  0.00  0.00    +0.292 HD
ENDBRANCH   6  11
BRANCH   8  13
ATOM     13  N   UNL     1      33.431 -23.146 -18.349  0.00  0.00    -0.263 N 
ATOM     14  H   UNL     1      33.041 -23.919 -18.817  0.00  0.00    +0.170 HD
BRANCH  13  15
ATOM     15  N   UNL     1      33.571 -23.234 -17.021  0.00  0.00    -0.265 N 
ATOM     16  H   UNL     1      34.487 -23.301 -16.664  0.00  0.00    +0.170 HD
BRANCH  15  17
ATOM     17  C   UNL     1      32.515 -23.239 -16.095  0.00  0.00    +0.061 C 
ATOM     18  C   UNL     1      32.772 -23.482 -14.745  0.00  0.00    +0.016 C 
ATOM     19  C   UNL     1      31.210 -23.000 -16.525  0.00  0.00    +0.016 C 
ATOM     20  C   UNL     1      31.723 -23.487 -13.826  0.00  0.00    +0.001 C 
ATOM     21  C   UNL     1      30.161 -23.004 -15.605  0.00  0.00    +0.001 C 
ATOM     22  C   UNL     1      30.417 -23.248 -14.256  0.00  0.00    +0.000 C 
ENDBRANCH  15  17
ENDBRANCH  13  15
ENDBRANCH   8  13
BRANCH   2  23
ATOM     23  C   UNL     1      34.536 -17.726 -22.236  0.00  0.00    +0.013 C 
BRANCH  23  24
ATOM     24  CA  UNL     1      35.262 -17.505 -23.586  0.00  0.00    +0.005 C 
BRANCH  24  25
ATOM     25  N   UNL     1      35.311 -16.084 -23.924  0.00  0.00    +0.387 N 
ATOM     26  H1  UNL     1      35.136 -15.965 -24.921  0.00  0.00    -0.089 HD
ATOM     27  H2  UNL     1      36.233 -15.711 -23.694  0.00  0.00    -0.089 HD
ATOM     28  H3  UNL     1      34.599 -15.584 -23.392  0.00  0.00    -0.089 HD
ENDBRANCH  24  25
BRANCH  24  30
ATOM     29  O   UNL     1      34.038 -17.687 -25.690  0.00  0.00    -0.291 OA
ATOM     30  C   UNL     1      34.535 -18.226 -24.706  0.00  0.00    +0.185 C 
ENDBRANCH  24  30
ENDBRANCH  23  24
ENDBRANCH   2  23
TORSDOF 8
ENDMDL
MODEL 2
REMARK VINA RESULT:      -9.7      3.919      6.902
REMARK  Name = 46937169
REMARK  8 active torsions:
REMARK  status: ('A' for Active; 'I' for Inactive)
REMARK    1  A    between atoms: C_2  and  C_23
REMARK    2  A    between atoms: C_6  and  O_11
REMARK    3  A    between atoms: C_8  and  N_13
REMARK    4  A    between atoms: N_13  and  N_15
REMARK    5  A    between atoms: N_15  and  C_17
REMARK    6  A    between atoms: C_23  and  CA_24
REMARK    7  A    between atoms: CA_24  and  N_25
REMARK    8  A    between atoms: CA_24  and  C_30
REMARK                            x       y       z     vdW  Elec       q    Type
REMARK                         _______ _______ _______ _____ _____    ______ ____
ROOT
ATOM      1  N   UNL     1      33.443 -14.928 -25.787  0.00  0.00    -0.309 N 
ATOM      2  C   UNL     1      33.362 -13.392 -24.187  0.00  0.00    -0.008 C 
ATOM      3  C   UNL     1      33.941 -14.571 -23.642  0.00  0.00    +0.014 C 
ATOM      4  C   UNL     1      33.981 -15.520 -24.667  0.00  0.00    +0.083 C 
ATOM      5  C   UNL     1      33.067 -13.642 -25.507  0.00  0.00    +0.058 C 
ATOM      6  C   UNL     1      34.494 -16.808 -24.483  0.00  0.00    +0.161 C 
ATOM      7  C   UNL     1      34.438 -14.925 -22.371  0.00  0.00    +0.002 C 
ATOM      8  C   UNL     1      34.981 -17.136 -23.214  0.00  0.00    +0.096 C 
ATOM      9  C   UNL     1      34.954 -16.210 -22.174  0.00  0.00    +0.019 C 
ATOM     10  H   UNL     1      33.345 -15.366 -26.664  0.00  0.00    +0.152 HD
ENDROOT
BRANCH   6  11
ATOM     11  O   UNL     1      34.519 -17.715 -25.507  0.00  0.00    -0.503 OA
ATOM     12  H   UNL     1      33.943 -17.613 -26.237  0.00  0.00    +0.292 HD
ENDBRANCH   6  11
BRANCH   8  13
ATOM     13  N   UNL     1      35.512 -18.424 -22.972  0.00  0.00    -0.263 N 
ATOM     14  H   UNL     1      35.627 -19.023 -23.745  0.00  0.00    +0.170 HD
BRANCH  13  15
ATOM     15  N   UNL     1      35.870 -18.891 -21.770  0.00  0.00    -0.265 N 
ATOM     16  H   UNL     1      36.743 -18.606 -21.414  0.00  0.00    +0.170 HD
BRANCH  15  17
ATOM     17  C   UNL     1      35.099 -19.756 -20.975  0.00  0.00    +0.061 C 
ATOM     18  C   UNL     1      35.721 -20.760 -20.232  0.00  0.00    +0.016 C 
ATOM     19  C   UNL     1      33.713 -19.611 -20.930  0.00  0.00    +0.016 C 
ATOM     20  C   UNL     1      34.955 -21.619 -19.443  0.00  0.00    +0.001 C 
ATOM     21  C   UNL     1      32.948 -20.469 -20.141  0.00  0.00    +0.001 C 
ATOM     22  C   UNL     1      33.568 -21.474 -19.398  0.00  0.00    +0.000 C 
ENDBRANCH  15  17
ENDBRANCH  13  15
ENDBRANCH   8  13
BRANCH   2  23
ATOM     23  C   UNL     1      33.115 -12.122 -23.473  0.00  0.00    +0.013 C 
BRANCH  23  24
ATOM     24  CA  UNL     1      33.519 -10.853 -24.262  0.00  0.00    +0.005 C 
BRANCH  24  25
ATOM     25  N   UNL     1      34.970 -10.786 -24.432  0.00  0.00    +0.387 N 
ATOM     26  H1  UNL     1      35.329  -9.956 -23.960  0.00  0.00    -0.089 HD
ATOM     27  H2  UNL     1      35.194 -10.736 -25.426  0.00  0.00    -0.089 HD
ATOM     28  H3  UNL     1      35.398 -11.618 -24.027  0.00  0.00    -0.089 HD
ENDBRANCH  24  25
BRANCH  24  30
ATOM     29  O   UNL     1      31.913  -9.256 -23.352  0.00  0.00    -0.291 OA
ATOM     30  C   UNL     1      33.077  -9.603 -23.524  0.00  0.00    +0.185 C 
ENDBRANCH  24  30
ENDBRANCH  23  24
ENDBRANCH   2  23
TORSDOF 8
ENDMDL
MODEL 3
REMARK VINA RESULT:      -9.6      4.568      7.061
REMARK  Name = 46937169
REMARK  8 active torsions:
REMARK  status: ('A' for Active; 'I' for Inactive)
REMARK    1  A    between atoms: C_2  and  C_23
REMARK    2  A    between atoms: C_6  and  O_11
REMARK    3  A    between atoms: C_8  and  N_13
REMARK    4  A    between atoms: N_13  and  N_15
REMARK    5  A    between atoms: N_15  and  C_17
REMARK    6  A    between atoms: C_23  and  CA_24
REMARK    7  A    between atoms: CA_24  and  N_25
REMARK    8  A    between atoms: CA_24  and  C_30
REMARK                            x       y       z     vdW  Elec       q    Type
REMARK                         _______ _______ _______ _____ _____    ______ ____
ROOT
ATOM      1  N   UNL     1      33.996 -13.620 -23.937  0.00  0.00    -0.309 N 
ATOM      2  C   UNL     1      32.512 -12.750 -22.535  0.00  0.00    -0.008 C 
ATOM      3  C   UNL     1      33.069 -13.910 -21.929  0.00  0.00    +0.014 C 
ATOM      4  C   UNL     1      33.998 -14.437 -22.830  0.00  0.00    +0.083 C 
ATOM      5  C   UNL     1      33.101 -12.597 -23.768  0.00  0.00    +0.058 C 
ATOM      6  C   UNL     1      34.743 -15.590 -22.559  0.00  0.00    +0.161 C 
ATOM      7  C   UNL     1      32.873 -14.566 -20.697  0.00  0.00    +0.002 C 
ATOM      8  C   UNL     1      34.531 -16.223 -21.330  0.00  0.00    +0.096 C 
ATOM      9  C   UNL     1      33.611 -15.720 -20.413  0.00  0.00    +0.019 C 
ATOM     10  H   UNL     1      34.557 -13.751 -24.736  0.00  0.00    +0.152 HD
ENDROOT
BRANCH   6  11
ATOM     11  O   UNL     1      35.645 -16.081 -23.462  0.00  0.00    -0.503 OA
ATOM     12  H   UNL     1      36.539 -16.202 -23.212  0.00  0.00    +0.292 HD
ENDBRANCH   6  11
BRANCH   8  13
ATOM     13  N   UNL     1      35.256 -17.392 -21.003  0.00  0.00    -0.263 N 
ATOM     14  H   UNL     1      35.995 -17.304 -20.358  0.00  0.00    +0.170 HD
BRANCH  13  15
ATOM     15  N   UNL     1      35.014 -18.609 -21.503  0.00  0.00    -0.265 N 
ATOM     16  H   UNL     1      35.041 -18.711 -22.482  0.00  0.00    +0.170 HD
BRANCH  15  17
ATOM     17  C   UNL     1      34.725 -19.754 -20.741  0.00  0.00    +0.061 C 
ATOM     18  C   UNL     1      33.400 -20.098 -20.475  0.00  0.00    +0.016 C 
ATOM     19  C   UNL     1      35.764 -20.545 -20.252  0.00  0.00    +0.016 C 
ATOM     20  C   UNL     1      33.113 -21.234 -19.719  0.00  0.00    +0.001 C 
ATOM     21  C   UNL     1      35.477 -21.682 -19.496  0.00  0.00    +0.001 C 
ATOM     22  C   UNL     1      34.152 -22.027 -19.229  0.00  0.00    +0.000 C 
ENDBRANCH  15  17
ENDBRANCH  13  15
ENDBRANCH   8  13
BRANCH   2  23
ATOM     23  C   UNL     1      31.482 -11.864 -21.954  0.00  0.00    +0.013 C 
BRANCH  23  24
ATOM     24  CA  UNL     1      31.948 -10.404 -21.725  0.00  0.00    +0.005 C 
BRANCH  24  25
ATOM     25  N   UNL     1      31.510  -9.918 -20.418  0.00  0.00    +0.387 N 
ATOM     26  H1  UNL     1      30.595  -9.477 -20.509  0.00  0.00    -0.089 HD
ATOM     27  H2  UNL     1      32.182  -9.236 -20.066  0.00  0.00    -0.089 HD
ATOM     28  H3  UNL     1      31.447 -10.701 -19.768  0.00  0.00    -0.089 HD
ENDBRANCH  24  25
BRANCH  24  30
ATOM     29  O   UNL     1      31.958  -9.091 -23.783  0.00  0.00    -0.291 OA
ATOM     30  C   UNL     1      31.365  -9.487 -22.784  0.00  0.00    +0.185 C 
ENDBRANCH  24  30
ENDBRANCH  23  24
ENDBRANCH   2  23
TORSDOF 8
ENDMDL
MODEL 4
REMARK VINA RESULT:      -9.4      2.517      8.706
REMARK  Name = 46937169
REMARK  8 active torsions:
REMARK  status: ('A' for Active; 'I' for Inactive)
REMARK    1  A    between atoms: C_2  and  C_23
REMARK    2  A    between atoms: C_6  and  O_11
REMARK    3  A    between atoms: C_8  and  N_13
REMARK    4  A    between atoms: N_13  and  N_15
REMARK    5  A    between atoms: N_15  and  C_17
REMARK    6  A    between atoms: C_23  and  CA_24
REMARK    7  A    between atoms: CA_24  and  N_25
REMARK    8  A    between atoms: CA_24  and  C_30
REMARK                            x       y       z     vdW  Elec       q    Type
REMARK                         _______ _______ _______ _____ _____    ______ ____
ROOT
ATOM      1  N   UNL     1      33.045 -22.866 -17.705  0.00  0.00    -0.309 N 
ATOM      2  C   UNL     1      34.866 -23.184 -16.477  0.00  0.00    -0.008 C 
ATOM      3  C   UNL     1      35.225 -22.403 -17.610  0.00  0.00    +0.014 C 
ATOM      4  C   UNL     1      34.064 -22.217 -18.364  0.00  0.00    +0.083 C 
ATOM      5  C   UNL     1      33.520 -23.453 -16.563  0.00  0.00    +0.058 C 
ATOM      6  C   UNL     1      34.047 -21.487 -19.558  0.00  0.00    +0.161 C 
ATOM      7  C   UNL     1      36.429 -21.832 -18.068  0.00  0.00    +0.002 C 
ATOM      8  C   UNL     1      35.254 -20.931 -19.993  0.00  0.00    +0.096 C 
ATOM      9  C   UNL     1      36.427 -21.100 -19.261  0.00  0.00    +0.019 C 
ATOM     10  H   UNL     1      32.109 -22.903 -18.010  0.00  0.00    +0.152 HD
ENDROOT
BRANCH   6  11
ATOM     11  O   UNL     1      32.894 -21.323 -20.274  0.00  0.00    -0.503 OA
ATOM     12  H   UNL     1      32.923 -21.302 -21.210  0.00  0.00    +0.292 HD
ENDBRANCH   6  11
BRANCH   8  13
ATOM     13  N   UNL     1      35.296 -20.183 -21.192  0.00  0.00    -0.263 N 
ATOM     14  H   UNL     1      35.776 -20.575 -21.957  0.00  0.00    +0.170 HD
BRANCH  13  15
ATOM     15  N   UNL     1      34.733 -18.981 -21.366  0.00  0.00    -0.265 N 
ATOM     16  H   UNL     1      34.277 -18.578 -20.592  0.00  0.00    +0.170 HD
BRANCH  15  17
ATOM     17  C   UNL     1      34.741 -18.250 -22.565  0.00  0.00    +0.061 C 
ATOM     18  C   UNL     1      34.572 -18.908 -23.784  0.00  0.00    +0.016 C 
ATOM     19  C   UNL     1      34.917 -16.867 -22.538  0.00  0.00    +0.016 C 
ATOM     20  C   UNL     1      34.580 -18.183 -24.975  0.00  0.00    +0.001 C 
ATOM     21  C   UNL     1      34.924 -16.142 -23.729  0.00  0.00    +0.001 C 
ATOM     22  C   UNL     1      34.756 -16.799 -24.948  0.00  0.00    +0.000 C 
ENDBRANCH  15  17
ENDBRANCH  13  15
ENDBRANCH   8  13
BRANCH   2  23
ATOM     23  C   UNL     1      35.769 -23.634 -15.398  0.00  0.00    +0.013 C 
BRANCH  23  24
ATOM     24  CA  UNL     1      35.374 -24.985 -14.753  0.00  0.00    +0.005 C 
BRANCH  24  25
ATOM     25  N   UNL     1      35.306 -24.867 -13.297  0.00  0.00    +0.387 N 
ATOM     26  H1  UNL     1      34.413 -25.233 -12.968  0.00  0.00    -0.089 HD
ATOM     27  H2  UNL     1      35.389 -23.885 -13.032  0.00  0.00    -0.089 HD
ATOM     28  H3  UNL     1      36.067 -25.399 -12.877  0.00  0.00    -0.089 HD
ENDBRANCH  24  25
BRANCH  24  30
ATOM     29  O   UNL     1      36.283 -26.892 -15.977  0.00  0.00    -0.291 OA
ATOM     30  C   UNL     1      36.397 -26.055 -15.087  0.00  0.00    +0.185 C 
ENDBRANCH  24  30
ENDBRANCH  23  24
ENDBRANCH   2  23
TORSDOF 8
ENDMDL
MODEL 5
REMARK VINA RESULT:      -9.4      4.709     10.475
REMARK  Name = 46937169
REMARK  8 active torsions:
REMARK  status: ('A' for Active; 'I' for Inactive)
REMARK    1  A    between atoms: C_2  and  C_23
REMARK    2  A    between atoms: C_6  and  O_11
REMARK    3  A    between atoms: C_8  and  N_13
REMARK    4  A    between atoms: N_13  and  N_15
REMARK    5  A    between atoms: N_15  and  C_17
REMARK    6  A    between atoms: C_23  and  CA_24
REMARK    7  A    between atoms: CA_24  and  N_25
REMARK    8  A    between atoms: CA_24  and  C_30
REMARK                            x       y       z     vdW  Elec       q    Type
REMARK                         _______ _______ _______ _____ _____    ______ ____
ROOT
ATOM      1  N   UNL     1      34.548 -17.876 -24.994  0.00  0.00    -0.309 N 
ATOM      2  C   UNL     1      35.102 -18.117 -22.859  0.00  0.00    -0.008 C 
ATOM      3  C   UNL     1      34.726 -16.762 -23.070  0.00  0.00    +0.014 C 
ATOM      4  C   UNL     1      34.382 -16.637 -24.419  0.00  0.00    +0.083 C 
ATOM      5  C   UNL     1      34.982 -18.777 -24.059  0.00  0.00    +0.058 C 
ATOM      6  C   UNL     1      33.960 -15.428 -24.981  0.00  0.00    +0.161 C 
ATOM      7  C   UNL     1      34.643 -15.624 -22.242  0.00  0.00    +0.002 C 
ATOM      8  C   UNL     1      33.886 -14.313 -24.141  0.00  0.00    +0.096 C 
ATOM      9  C   UNL     1      34.222 -14.409 -22.792  0.00  0.00    +0.019 C 
ATOM     10  H   UNL     1      34.378 -18.085 -25.942  0.00  0.00    +0.152 HD
ENDROOT
BRANCH   6  11
ATOM     11  O   UNL     1      33.631 -15.338 -26.306  0.00  0.00    -0.503 OA
ATOM     12  H   UNL     1      34.278 -15.502 -26.961  0.00  0.00    +0.292 HD
ENDBRANCH   6  11
BRANCH   8  13
ATOM     13  N   UNL     1      33.464 -13.066 -24.655  0.00  0.00    -0.263 N 
ATOM     14  H   UNL     1      32.517 -12.974 -24.908  0.00  0.00    +0.170 HD
BRANCH  13  15
ATOM     15  N   UNL     1      34.255 -12.000 -24.824  0.00  0.00    -0.265 N 
ATOM     16  H   UNL     1      35.046 -12.108 -25.401  0.00  0.00    +0.170 HD
BRANCH  15  17
ATOM     17  C   UNL     1      34.047 -10.738 -24.242  0.00  0.00    +0.061 C 
ATOM     18  C   UNL     1      34.948  -9.701 -24.485  0.00  0.00    +0.016 C 
ATOM     19  C   UNL     1      32.940 -10.523 -23.422  0.00  0.00    +0.016 C 
ATOM     20  C   UNL     1      34.741  -8.448 -23.908  0.00  0.00    +0.001 C 
ATOM     21  C   UNL     1      32.733  -9.270 -22.844  0.00  0.00    +0.001 C 
ATOM     22  C   UNL     1      33.634  -8.232 -23.087  0.00  0.00    +0.000 C 
ENDBRANCH  15  17
ENDBRANCH  13  15
ENDBRANCH   8  13
BRANCH   2  23
ATOM     23  C   UNL     1      35.546 -18.718 -21.584  0.00  0.00    +0.013 C 
BRANCH  23  24
ATOM     24  CA  UNL     1      34.787 -20.007 -21.184  0.00  0.00    +0.005 C 
BRANCH  24  25
ATOM     25  N   UNL     1      33.426 -19.696 -20.751  0.00  0.00    +0.387 N 
ATOM     26  H1  UNL     1      32.891 -19.338 -21.542  0.00  0.00    -0.089 HD
ATOM     27  H2  UNL     1      33.456 -18.991 -20.014  0.00  0.00    -0.089 HD
ATOM     28  H3  UNL     1      32.981 -20.541 -20.395  0.00  0.00    -0.089 HD
ENDBRANCH  24  25
BRANCH  24  30
ATOM     29  O   UNL     1      36.540 -20.335 -19.517  0.00  0.00    -0.291 OA
ATOM     30  C   UNL     1      35.493 -20.707 -20.038  0.00  0.00    +0.185 C 
ENDBRANCH  24  30
ENDBRANCH  23  24
ENDBRANCH   2  23
TORSDOF 8
ENDMDL
MODEL 6
REMARK VINA RESULT:      -9.3      4.746      9.311
REMARK  Name = 46937169
REMARK  8 active torsions:
REMARK  status: ('A' for Active; 'I' for Inactive)
REMARK    1  A    between atoms: C_2  and  C_23
REMARK    2  A    between atoms: C_6  and  O_11
REMARK    3  A    between atoms: C_8  and  N_13
REMARK    4  A    between atoms: N_13  and  N_15
REMARK    5  A    between atoms: N_15  and  C_17
REMARK    6  A    between atoms: C_23  and  CA_24
REMARK    7  A    between atoms: CA_24  and  N_25
REMARK    8  A    between atoms: CA_24  and  C_30
REMARK                            x       y       z     vdW  Elec       q    Type
REMARK                         _______ _______ _______ _____ _____    ______ ____
ROOT
ATOM      1  N   UNL     1      34.786 -17.234 -24.357  0.00  0.00    -0.309 N 
ATOM      2  C   UNL     1      35.266 -17.914 -22.300  0.00  0.00    -0.008 C 
ATOM      3  C   UNL     1      34.581 -16.670 -22.209  0.00  0.00    +0.014 C 
ATOM      4  C   UNL     1      34.291 -16.265 -23.514  0.00  0.00    +0.083 C 
ATOM      5  C   UNL     1      35.377 -18.234 -23.633  0.00  0.00    +0.058 C 
ATOM      6  C   UNL     1      33.616 -15.074 -23.803  0.00  0.00    +0.161 C 
ATOM      7  C   UNL     1      34.178 -15.847 -21.139  0.00  0.00    +0.002 C 
ATOM      8  C   UNL     1      33.226 -14.274 -22.725  0.00  0.00    +0.096 C 
ATOM      9  C   UNL     1      33.501 -14.653 -21.413  0.00  0.00    +0.019 C 
ATOM     10  H   UNL     1      34.724 -17.211 -25.341  0.00  0.00    +0.152 HD
ENDROOT
BRANCH   6  11
ATOM     11  O   UNL     1      33.347 -14.705 -25.092  0.00  0.00    -0.503 OA
ATOM     12  H   UNL     1      33.066 -15.346 -25.714  0.00  0.00    +0.292 HD
ENDBRANCH   6  11
BRANCH   8  13
ATOM     13  N   UNL     1      32.539 -13.060 -22.958  0.00  0.00    -0.263 N 
ATOM     14  H   UNL     1      32.807 -12.528 -23.742  0.00  0.00    +0.170 HD
BRANCH  13  15
ATOM     15  N   UNL     1      31.553 -12.579 -22.192  0.00  0.00    -0.265 N 
ATOM     16  H   UNL     1      30.685 -13.043 -22.226  0.00  0.00    +0.170 HD
BRANCH  15  17
ATOM     17  C   UNL     1      31.658 -11.464 -21.344  0.00  0.00    +0.061 C 
ATOM     18  C   UNL     1      31.876 -10.196 -21.882  0.00  0.00    +0.016 C 
ATOM     19  C   UNL     1      31.543 -11.626 -19.963  0.00  0.00    +0.016 C 
ATOM     20  C   UNL     1      31.981  -9.089 -21.040  0.00  0.00    +0.001 C 
ATOM     21  C   UNL     1      31.647 -10.519 -19.121  0.00  0.00    +0.001 C 
ATOM     22  C   UNL     1      31.866  -9.250 -19.659  0.00  0.00    +0.000 C 
ENDBRANCH  15  17
ENDBRANCH  13  15
ENDBRANCH   8  13
BRANCH   2  23
ATOM     23  C   UNL     1      35.774 -18.722 -21.173  0.00  0.00    +0.013 C 
BRANCH  23  24
ATOM     24  CA  UNL     1      35.058 -20.083 -20.986  0.00  0.00    +0.005 C 
BRANCH  24  25
ATOM     25  N   UNL     1      33.650 -19.887 -20.643  0.00  0.00    +0.387 N 
ATOM     26  H1  UNL     1      33.394 -18.913 -20.804  0.00  0.00    -0.089 HD
ATOM     27  H2  UNL     1      33.504 -20.120 -19.661  0.00  0.00    -0.089 HD
ATOM     28  H3  UNL     1      33.072 -20.491 -21.226  0.00  0.00    -0.089 HD
ENDBRANCH  24  25
BRANCH  24  30
ATOM     29  O   UNL     1      36.637 -20.486 -19.168  0.00  0.00    -0.291 OA
ATOM     30  C   UNL     1      35.706 -20.876 -19.865  0.00  0.00    +0.185 C 
ENDBRANCH  24  30
ENDBRANCH  23  24
ENDBRANCH   2  23
TORSDOF 8
ENDMDL
MODEL 7
REMARK VINA RESULT:      -9.3      5.008      9.500
REMARK  Name = 46937169
REMARK  8 active torsions:
REMARK  status: ('A' for Active; 'I' for Inactive)
REMARK    1  A    between atoms: C_2  and  C_23
REMARK    2  A    between atoms: C_6  and  O_11
REMARK    3  A    between atoms: C_8  and  N_13
REMARK    4  A    between atoms: N_13  and  N_15
REMARK    5  A    between atoms: N_15  and  C_17
REMARK    6  A    between atoms: C_23  and  CA_24
REMARK    7  A    between atoms: CA_24  and  N_25
REMARK    8  A    between atoms: CA_24  and  C_30
REMARK                            x       y       z     vdW  Elec       q    Type
REMARK                         _______ _______ _______ _____ _____    ______ ____
ROOT
ATOM      1  N   UNL     1      34.805 -16.733 -24.225  0.00  0.00    -0.309 N 
ATOM      2  C   UNL     1      35.027 -17.567 -22.180  0.00  0.00    -0.008 C 
ATOM      3  C   UNL     1      34.222 -16.397 -22.098  0.00  0.00    +0.014 C 
ATOM      4  C   UNL     1      34.097 -15.893 -23.395  0.00  0.00    +0.083 C 
ATOM      5  C   UNL     1      35.370 -17.748 -23.500  0.00  0.00    +0.058 C 
ATOM      6  C   UNL     1      33.364 -14.738 -23.690  0.00  0.00    +0.161 C 
ATOM      7  C   UNL     1      33.584 -15.716 -21.042  0.00  0.00    +0.002 C 
ATOM      8  C   UNL     1      32.741 -14.079 -22.626  0.00  0.00    +0.096 C 
ATOM      9  C   UNL     1      32.848 -14.559 -21.323  0.00  0.00    +0.019 C 
ATOM     10  H   UNL     1      34.891 -16.621 -25.200  0.00  0.00    +0.152 HD
ENDROOT
BRANCH   6  11
ATOM     11  O   UNL     1      33.261 -14.270 -24.970  0.00  0.00    -0.503 OA
ATOM     12  H   UNL     1      33.995 -13.856 -25.378  0.00  0.00    +0.292 HD
ENDBRANCH   6  11
BRANCH   8  13
ATOM     13  N   UNL     1      31.986 -12.907 -22.865  0.00  0.00    -0.263 N 
ATOM     14  H   UNL     1      32.040 -12.506 -23.762  0.00  0.00    +0.170 HD
BRANCH  13  15
ATOM     15  N   UNL     1      31.203 -12.304 -21.963  0.00  0.00    -0.265 N 
ATOM     16  H   UNL     1      30.338 -12.727 -21.757  0.00  0.00    +0.170 HD
BRANCH  15  17
ATOM     17  C   UNL     1      31.519 -11.113 -21.287  0.00  0.00    +0.061 C 
ATOM     18  C   UNL     1      31.498 -11.077 -19.892  0.00  0.00    +0.016 C 
ATOM     19  C   UNL     1      31.852  -9.968 -22.009  0.00  0.00    +0.016 C 
ATOM     20  C   UNL     1      31.810  -9.895 -19.220  0.00  0.00    +0.001 C 
ATOM     21  C   UNL     1      32.165  -8.787 -21.338  0.00  0.00    +0.001 C 
ATOM     22  C   UNL     1      32.144  -8.749 -19.943  0.00  0.00    +0.000 C 
ENDBRANCH  15  17
ENDBRANCH  13  15
ENDBRANCH   8  13
BRANCH   2  23
ATOM     23  C   UNL     1      35.432 -18.437 -21.057  0.00  0.00    +0.013 C 
BRANCH  23  24
ATOM     24  CA  UNL     1      34.804 -19.852 -21.083  0.00  0.00    +0.005 C 
BRANCH  24  25
ATOM     25  N   UNL     1      33.390 -19.801 -20.714  0.00  0.00    +0.387 N 
ATOM     26  H1  UNL     1      33.075 -18.831 -20.710  0.00  0.00    -0.089 HD
ATOM     27  H2  UNL     1      33.267 -20.203 -19.785  0.00  0.00    -0.089 HD
ATOM     28  H3  UNL     1      32.844 -20.332 -21.391  0.00  0.00    -0.089 HD
ENDBRANCH  24  25
BRANCH  24  30
ATOM     29  O   UNL     1      36.460 -20.446 -19.390  0.00  0.00    -0.291 OA
ATOM     30  C   UNL     1      35.511 -20.767 -20.100  0.00  0.00    +0.185 C 
ENDBRANCH  24  30
ENDBRANCH  23  24
ENDBRANCH   2  23
TORSDOF 8
ENDMDL
MODEL 8
REMARK VINA RESULT:      -9.2      3.593      5.762
REMARK  Name = 46937169
REMARK  8 active torsions:
REMARK  status: ('A' for Active; 'I' for Inactive)
REMARK    1  A    between atoms: C_2  and  C_23
REMARK    2  A    between atoms: C_6  and  O_11
REMARK    3  A    between atoms: C_8  and  N_13
REMARK    4  A    between atoms: N_13  and  N_15
REMARK    5  A    between atoms: N_15  and  C_17
REMARK    6  A    between atoms: C_23  and  CA_24
REMARK    7  A    between atoms: CA_24  and  N_25
REMARK    8  A    between atoms: CA_24  and  C_30
REMARK                            x       y       z     vdW  Elec       q    Type
REMARK                         _______ _______ _______ _____ _____    ______ ____
ROOT
ATOM      1  N   UNL     1      33.725 -14.461 -21.418  0.00  0.00    -0.309 N 
ATOM      2  C   UNL     1      33.231 -14.213 -23.567  0.00  0.00    -0.008 C 
ATOM      3  C   UNL     1      33.994 -15.404 -23.421  0.00  0.00    +0.014 C 
ATOM      4  C   UNL     1      34.291 -15.537 -22.062  0.00  0.00    +0.083 C 
ATOM      5  C   UNL     1      33.083 -13.655 -22.319  0.00  0.00    +0.058 C 
ATOM      6  C   UNL     1      35.035 -16.607 -21.553  0.00  0.00    +0.161 C 
ATOM      7  C   UNL     1      34.462 -16.387 -24.316  0.00  0.00    +0.002 C 
ATOM      8  C   UNL     1      35.489 -17.569 -22.460  0.00  0.00    +0.096 C 
ATOM      9  C   UNL     1      35.208 -17.462 -23.820  0.00  0.00    +0.019 C 
ATOM     10  H   UNL     1      33.775 -14.295 -20.448  0.00  0.00    +0.152 HD
ENDROOT
BRANCH   6  11
ATOM     11  O   UNL     1      35.310 -16.709 -20.217  0.00  0.00    -0.503 OA
ATOM     12  H   UNL     1      35.391 -15.936 -19.696  0.00  0.00    +0.292 HD
ENDBRANCH   6  11
BRANCH   8  13
ATOM     13  N   UNL     1      36.245 -18.673 -22.001  0.00  0.00    -0.263 N 
ATOM     14  H   UNL     1      36.834 -19.123 -22.649  0.00  0.00    +0.170 HD
BRANCH  13  15
ATOM     15  N   UNL     1      36.221 -19.151 -20.752  0.00  0.00    -0.265 N 
ATOM     16  H   UNL     1      36.875 -18.786 -20.113  0.00  0.00    +0.170 HD
BRANCH  15  17
ATOM     17  C   UNL     1      35.335 -20.135 -20.280  0.00  0.00    +0.061 C 
ATOM     18  C   UNL     1      35.822 -21.220 -19.552  0.00  0.00    +0.016 C 
ATOM     19  C   UNL     1      33.969 -20.025 -20.539  0.00  0.00    +0.016 C 
ATOM     20  C   UNL     1      34.943 -22.197 -19.084  0.00  0.00    +0.001 C 
ATOM     21  C   UNL     1      33.090 -21.001 -20.070  0.00  0.00    +0.001 C 
ATOM     22  C   UNL     1      33.576 -22.087 -19.342  0.00  0.00    +0.000 C 
ENDBRANCH  15  17
ENDBRANCH  13  15
ENDBRANCH   8  13
BRANCH   2  23
ATOM     23  C   UNL     1      32.694 -13.662 -24.828  0.00  0.00    +0.013 C 
BRANCH  23  24
ATOM     24  CA  UNL     1      33.716 -12.851 -25.661  0.00  0.00    +0.005 C 
BRANCH  24  25
ATOM     25  N   UNL     1      33.692 -11.439 -25.284  0.00  0.00    +0.387 N 
ATOM     26  H1  UNL     1      34.584 -11.184 -24.861  0.00  0.00    -0.089 HD
ATOM     27  H2  UNL     1      32.940 -11.280 -24.613  0.00  0.00    -0.089 HD
ATOM     28  H3  UNL     1      33.534 -10.868 -26.114  0.00  0.00    -0.089 HD
ENDBRANCH  24  25
BRANCH  24  30
ATOM     29  O   UNL     1      33.897 -13.739 -27.928  0.00  0.00    -0.291 OA
ATOM     30  C   UNL     1      33.392 -12.944 -27.141  0.00  0.00    +0.185 C 
ENDBRANCH  24  30
ENDBRANCH  23  24
ENDBRANCH   2  23
TORSDOF 8
ENDMDL
MODEL 9
REMARK VINA RESULT:      -9.1      2.913      8.615
REMARK  Name = 46937169
REMARK  8 active torsions:
REMARK  status: ('A' for Active; 'I' for Inactive)
REMARK    1  A    between atoms: C_2  and  C_23
REMARK    2  A    between atoms: C_6  and  O_11
REMARK    3  A    between atoms: C_8  and  N_13
REMARK    4  A    between atoms: N_13  and  N_15
REMARK    5  A    between atoms: N_15  and  C_17
REMARK    6  A    between atoms: C_23  and  CA_24
REMARK    7  A    between atoms: CA_24  and  N_25
REMARK    8  A    between atoms: CA_24  and  C_30
REMARK                            x       y       z     vdW  Elec       q    Type
REMARK                         _______ _______ _______ _____ _____    ______ ____
ROOT
ATOM      1  N   UNL     1      33.582 -23.512 -16.735  0.00  0.00    -0.309 N 
ATOM      2  C   UNL     1      35.454 -23.389 -15.551  0.00  0.00    -0.008 C 
ATOM      3  C   UNL     1      35.655 -22.688 -16.772  0.00  0.00    +0.014 C 
ATOM      4  C   UNL     1      34.463 -22.779 -17.497  0.00  0.00    +0.083 C 
ATOM      5  C   UNL     1      34.171 -23.884 -15.558  0.00  0.00    +0.058 C 
ATOM      6  C   UNL     1      34.301 -22.197 -18.759  0.00  0.00    +0.161 C 
ATOM      7  C   UNL     1      36.737 -21.981 -17.333  0.00  0.00    +0.002 C 
ATOM      8  C   UNL     1      35.389 -21.501 -19.295  0.00  0.00    +0.096 C 
ATOM      9  C   UNL     1      36.588 -21.393 -18.594  0.00  0.00    +0.019 C 
ATOM     10  H   UNL     1      32.659 -23.735 -16.999  0.00  0.00    +0.152 HD
ENDROOT
BRANCH   6  11
ATOM     11  O   UNL     1      33.123 -22.305 -19.444  0.00  0.00    -0.503 OA
ATOM     12  H   UNL     1      33.086 -22.802 -20.237  0.00  0.00    +0.292 HD
ENDBRANCH   6  11
BRANCH   8  13
ATOM     13  N   UNL     1      35.281 -20.892 -20.567  0.00  0.00    -0.263 N 
ATOM     14  H   UNL     1      35.906 -21.187 -21.268  0.00  0.00    +0.170 HD
BRANCH  13  15
ATOM     15  N   UNL     1      34.393 -19.944 -20.889  0.00  0.00    -0.265 N 
ATOM     16  H   UNL     1      33.504 -19.993 -20.468  0.00  0.00    +0.170 HD
BRANCH  15  17
ATOM     17  C   UNL     1      34.629 -18.885 -21.781  0.00  0.00    +0.061 C 
ATOM     18  C   UNL     1      34.670 -17.573 -21.310  0.00  0.00    +0.016 C 
ATOM     19  C   UNL     1      34.821 -19.145 -23.138  0.00  0.00    +0.016 C 
ATOM     20  C   UNL     1      34.904 -16.520 -22.195  0.00  0.00    +0.001 C 
ATOM     21  C   UNL     1      35.055 -18.094 -24.023  0.00  0.00    +0.001 C 
ATOM     22  C   UNL     1      35.097 -16.781 -23.553  0.00  0.00    +0.000 C 
ENDBRANCH  15  17
ENDBRANCH  13  15
ENDBRANCH   8  13
BRANCH   2  23
ATOM     23  C   UNL     1      36.441 -23.564 -14.466  0.00  0.00    +0.013 C 
BRANCH  23  24
ATOM     24  CA  UNL     1      37.604 -24.529 -14.805  0.00  0.00    +0.005 C 
BRANCH  24  25
ATOM     25  N   UNL     1      37.093 -25.792 -15.335  0.00  0.00    +0.387 N 
ATOM     26  H1  UNL     1      36.120 -25.911 -15.051  0.00  0.00    -0.089 HD
ATOM     27  H2  UNL     1      37.651 -26.564 -14.971  0.00  0.00    -0.089 HD
ATOM     28  H3  UNL     1      37.150 -25.781 -16.353  0.00  0.00    -0.089 HD
ENDBRANCH  24  25
BRANCH  24  30
ATOM     29  O   UNL     1      39.643 -24.813 -13.494  0.00  0.00    -0.291 OA
ATOM     30  C   UNL     1      38.418 -24.840 -13.563  0.00  0.00    +0.185 C 
ENDBRANCH  24  30
ENDBRANCH  23  24
ENDBRANCH   2  23
TORSDOF 8
ENDMDL
