MODEL 1
REMARK VINA RESULT:      -6.3      0.000      0.000
REMARK  Name = 4994
REMARK  2 active torsions:
REMARK  status: ('A' for Active; 'I' for Inactive)
REMARK    1  A    between atoms: C_4  and  C_10
REMARK    2  A    between atoms: C_4  and  C_12
REMARK                            x       y       z     vdW  Elec       q    Type
REMARK                         _______ _______ _______ _____ _____    ______ ____
ROOT
ATOM      1  O   UNL     1      35.166 -16.502 -20.221  0.00  0.00    -0.274 OA
ATOM      2  O   UNL     1      34.933 -19.697 -23.787  0.00  0.00    -0.291 OA
ATOM      3  N   UNL     1      34.878 -15.898 -22.402  0.00  0.00    -0.283 N 
ATOM      4  C   UNL     1      34.853 -18.299 -21.809  0.00  0.00    +0.124 C 
ATOM      5  C   UNL     1      34.997 -16.832 -21.397  0.00  0.00    +0.232 C 
ATOM      6  C   UNL     1      34.860 -18.564 -23.314  0.00  0.00    +0.182 C 
ATOM      7  C   UNL     1      34.727 -17.415 -24.232  0.00  0.00    +0.054 C 
ATOM      8  C   UNL     1      34.738 -16.181 -23.729  0.00  0.00    +0.067 C 
ATOM      9  H   UNL     1      34.894 -14.949 -22.142  0.00  0.00    +0.155 HD
ENDROOT
BRANCH   4  10
ATOM     10  C   UNL     1      36.002 -19.094 -21.170  0.00  0.00    +0.016 C 
ATOM     11  C   UNL     1      37.326 -18.754 -21.820  0.00  0.00    +0.001 C 
ENDBRANCH   4  10
BRANCH   4  12
ATOM     12  C   UNL     1      33.506 -18.799 -21.266  0.00  0.00    +0.016 C 
ATOM     13  C   UNL     1      33.667 -20.116 -20.540  0.00  0.00    +0.001 C 
ENDBRANCH   4  12
TORSDOF 2
ENDMDL
MODEL 2
REMARK VINA RESULT:      -6.0      0.981      3.104
REMARK  Name = 4994
REMARK  2 active torsions:
REMARK  status: ('A' for Active; 'I' for Inactive)
REMARK    1  A    between atoms: C_4  and  C_10
REMARK    2  A    between atoms: C_4  and  C_12
REMARK                            x       y       z     vdW  Elec       q    Type
REMARK                         _______ _______ _______ _____ _____    ______ ____
ROOT
ATOM      1  O   UNL     1      34.930 -19.771 -23.877  0.00  0.00    -0.274 OA
ATOM      2  O   UNL     1      35.122 -16.626 -20.264  0.00  0.00    -0.291 OA
ATOM      3  N   UNL     1      34.623 -17.530 -24.174  0.00  0.00    -0.283 N 
ATOM      4  C   UNL     1      35.298 -18.363 -21.945  0.00  0.00    +0.124 C 
ATOM      5  C   UNL     1      34.922 -18.632 -23.405  0.00  0.00    +0.232 C 
ATOM      6  C   UNL     1      35.039 -16.940 -21.451  0.00  0.00    +0.182 C 
ATOM      7  C   UNL     1      34.724 -15.896 -22.445  0.00  0.00    +0.054 C 
ATOM      8  C   UNL     1      34.545 -16.247 -23.718  0.00  0.00    +0.067 C 
ATOM      9  H   UNL     1      34.452 -17.681 -25.132  0.00  0.00    +0.155 HD
ENDROOT
BRANCH   4  10
ATOM     10  C   UNL     1      34.508 -19.337 -21.057  0.00  0.00    +0.016 C 
ATOM     11  C   UNL     1      33.024 -19.044 -21.113  0.00  0.00    +0.001 C 
ENDBRANCH   4  10
BRANCH   4  12
ATOM     12  C   UNL     1      36.804 -18.628 -21.802  0.00  0.00    +0.016 C 
ATOM     13  C   UNL     1      37.085 -19.552 -20.638  0.00  0.00    +0.001 C 
ENDBRANCH   4  12
TORSDOF 2
ENDMDL
MODEL 3
REMARK VINA RESULT:      -6.0      9.965     11.384
REMARK  Name = 4994
REMARK  2 active torsions:
REMARK  status: ('A' for Active; 'I' for Inactive)
REMARK    1  A    between atoms: C_4  and  C_10
REMARK    2  A    between atoms: C_4  and  C_12
REMARK                            x       y       z     vdW  Elec       q    Type
REMARK                         _______ _______ _______ _____ _____    ______ ____
ROOT
ATOM      1  O   UNL     1      37.126 -26.538 -11.916  0.00  0.00    -0.274 OA
ATOM      2  O   UNL     1      38.087 -23.313 -15.331  0.00  0.00    -0.291 OA
ATOM      3  N   UNL     1      35.614 -24.969 -12.593  0.00  0.00    -0.283 N 
ATOM      4  C   UNL     1      37.760 -25.169 -13.808  0.00  0.00    +0.124 C 
ATOM      5  C   UNL     1      36.826 -25.617 -12.679  0.00  0.00    +0.232 C 
ATOM      6  C   UNL     1      37.349 -23.887 -14.531  0.00  0.00    +0.182 C 
ATOM      7  C   UNL     1      35.996 -23.347 -14.294  0.00  0.00    +0.054 C 
ATOM      8  C   UNL     1      35.227 -23.913 -13.365  0.00  0.00    +0.067 C 
ATOM      9  H   UNL     1      34.974 -25.296 -11.920  0.00  0.00    +0.155 HD
ENDROOT
BRANCH   4  10
ATOM     10  C   UNL     1      39.164 -24.966 -13.219  0.00  0.00    +0.016 C 
ATOM     11  C   UNL     1      40.206 -25.710 -14.027  0.00  0.00    +0.001 C 
ENDBRANCH   4  10
BRANCH   4  12
ATOM     12  C   UNL     1      37.788 -26.293 -14.854  0.00  0.00    +0.016 C 
ATOM     13  C   UNL     1      36.395 -26.601 -15.359  0.00  0.00    +0.001 C 
ENDBRANCH   4  12
TORSDOF 2
ENDMDL
MODEL 4
REMARK VINA RESULT:      -6.0     10.132     11.704
REMARK  Name = 4994
REMARK  2 active torsions:
REMARK  status: ('A' for Active; 'I' for Inactive)
REMARK    1  A    between atoms: C_4  and  C_10
REMARK    2  A    between atoms: C_4  and  C_12
REMARK                            x       y       z     vdW  Elec       q    Type
REMARK                         _______ _______ _______ _____ _____    ______ ____
ROOT
ATOM      1  O   UNL     1      37.929 -23.460 -15.385  0.00  0.00    -0.274 OA
ATOM      2  O   UNL     1      37.091 -26.775 -12.024  0.00  0.00    -0.291 OA
ATOM      3  N   UNL     1      36.565 -23.086 -13.595  0.00  0.00    -0.283 N 
ATOM      4  C   UNL     1      37.841 -25.201 -13.708  0.00  0.00    +0.124 C 
ATOM      5  C   UNL     1      37.447 -23.854 -14.320  0.00  0.00    +0.232 C 
ATOM      6  C   UNL     1      37.010 -25.645 -12.505  0.00  0.00    +0.182 C 
ATOM      7  C   UNL     1      36.111 -24.662 -11.869  0.00  0.00    +0.054 C 
ATOM      8  C   UNL     1      35.952 -23.468 -12.438  0.00  0.00    +0.067 C 
ATOM      9  H   UNL     1      36.360 -22.186 -13.940  0.00  0.00    +0.155 HD
ENDROOT
BRANCH   4  10
ATOM     10  C   UNL     1      37.731 -26.278 -14.799  0.00  0.00    +0.016 C 
ATOM     11  C   UNL     1      36.309 -26.395 -15.305  0.00  0.00    +0.001 C 
ENDBRANCH   4  10
BRANCH   4  12
ATOM     12  C   UNL     1      39.298 -25.083 -13.236  0.00  0.00    +0.016 C 
ATOM     13  C   UNL     1      40.236 -25.803 -14.179  0.00  0.00    +0.001 C 
ENDBRANCH   4  12
TORSDOF 2
ENDMDL
MODEL 5
REMARK VINA RESULT:      -5.9      9.862     11.315
REMARK  Name = 4994
REMARK  2 active torsions:
REMARK  status: ('A' for Active; 'I' for Inactive)
REMARK    1  A    between atoms: C_4  and  C_10
REMARK    2  A    between atoms: C_4  and  C_12
REMARK                            x       y       z     vdW  Elec       q    Type
REMARK                         _______ _______ _______ _____ _____    ______ ____
ROOT
ATOM      1  O   UNL     1      36.816 -26.217 -12.015  0.00  0.00    -0.274 OA
ATOM      2  O   UNL     1      38.320 -23.118 -15.349  0.00  0.00    -0.291 OA
ATOM      3  N   UNL     1      35.437 -25.366 -13.621  0.00  0.00    -0.283 N 
ATOM      4  C   UNL     1      37.854 -24.850 -13.720  0.00  0.00    +0.124 C 
ATOM      5  C   UNL     1      36.668 -25.527 -13.027  0.00  0.00    +0.232 C 
ATOM      6  C   UNL     1      37.491 -23.864 -14.830  0.00  0.00    +0.182 C 
ATOM      7  C   UNL     1      36.102 -23.843 -15.327  0.00  0.00    +0.054 C 
ATOM      8  C   UNL     1      35.183 -24.584 -14.710  0.00  0.00    +0.067 C 
ATOM      9  H   UNL     1      34.678 -25.856 -13.229  0.00  0.00    +0.155 HD
ENDROOT
BRANCH   4  10
ATOM     10  C   UNL     1      38.673 -24.104 -12.655  0.00  0.00    +0.016 C 
ATOM     11  C   UNL     1      37.822 -23.084 -11.930  0.00  0.00    +0.001 C 
ENDBRANCH   4  10
BRANCH   4  12
ATOM     12  C   UNL     1      38.708 -25.957 -14.356  0.00  0.00    +0.016 C 
ATOM     13  C   UNL     1      40.180 -25.724 -14.099  0.00  0.00    +0.001 C 
ENDBRANCH   4  12
TORSDOF 2
ENDMDL
MODEL 6
REMARK VINA RESULT:      -5.9      9.350     11.011
REMARK  Name = 4994
REMARK  2 active torsions:
REMARK  status: ('A' for Active; 'I' for Inactive)
REMARK    1  A    between atoms: C_4  and  C_10
REMARK    2  A    between atoms: C_4  and  C_12
REMARK                            x       y       z     vdW  Elec       q    Type
REMARK                         _______ _______ _______ _____ _____    ______ ____
ROOT
ATOM      1  O   UNL     1      36.452 -26.243 -15.649  0.00  0.00    -0.274 OA
ATOM      2  O   UNL     1      38.228 -23.203 -12.396  0.00  0.00    -0.291 OA
ATOM      3  N   UNL     1      35.135 -25.112 -14.169  0.00  0.00    -0.283 N 
ATOM      4  C   UNL     1      37.553 -24.599 -14.258  0.00  0.00    +0.124 C 
ATOM      5  C   UNL     1      36.348 -25.406 -14.750  0.00  0.00    +0.232 C 
ATOM      6  C   UNL     1      37.314 -23.758 -13.005  0.00  0.00    +0.182 C 
ATOM      7  C   UNL     1      35.927 -23.568 -12.538  0.00  0.00    +0.054 C 
ATOM      8  C   UNL     1      34.945 -24.237 -13.140  0.00  0.00    +0.067 C 
ATOM      9  H   UNL     1      34.340 -25.570 -14.527  0.00  0.00    +0.155 HD
ENDROOT
BRANCH   4  10
ATOM     10  C   UNL     1      38.705 -25.576 -13.976  0.00  0.00    +0.016 C 
ATOM     11  C   UNL     1      39.888 -25.298 -14.876  0.00  0.00    +0.001 C 
ENDBRANCH   4  10
BRANCH   4  12
ATOM     12  C   UNL     1      37.950 -23.634 -15.385  0.00  0.00    +0.016 C 
ATOM     13  C   UNL     1      36.794 -22.734 -15.763  0.00  0.00    +0.001 C 
ENDBRANCH   4  12
TORSDOF 2
ENDMDL
MODEL 7
REMARK VINA RESULT:      -5.8      9.258     10.742
REMARK  Name = 4994
REMARK  2 active torsions:
REMARK  status: ('A' for Active; 'I' for Inactive)
REMARK    1  A    between atoms: C_4  and  C_10
REMARK    2  A    between atoms: C_4  and  C_12
REMARK                            x       y       z     vdW  Elec       q    Type
REMARK                         _______ _______ _______ _____ _____    ______ ____
ROOT
ATOM      1  O   UNL     1      37.934 -22.754 -12.531  0.00  0.00    -0.274 OA
ATOM      2  O   UNL     1      36.098 -25.814 -15.732  0.00  0.00    -0.291 OA
ATOM      3  N   UNL     1      35.722 -23.310 -12.579  0.00  0.00    -0.283 N 
ATOM      4  C   UNL     1      37.287 -24.487 -14.090  0.00  0.00    +0.124 C 
ATOM      5  C   UNL     1      37.023 -23.430 -13.014  0.00  0.00    +0.232 C 
ATOM      6  C   UNL     1      36.042 -25.091 -14.737  0.00  0.00    +0.182 C 
ATOM      7  C   UNL     1      34.729 -24.835 -14.114  0.00  0.00    +0.054 C 
ATOM      8  C   UNL     1      34.653 -23.984 -13.092  0.00  0.00    +0.067 C 
ATOM      9  H   UNL     1      35.550 -22.687 -11.836  0.00  0.00    +0.155 HD
ENDROOT
BRANCH   4  10
ATOM     10  C   UNL     1      38.147 -23.848 -15.192  0.00  0.00    +0.016 C 
ATOM     11  C   UNL     1      37.413 -22.706 -15.861  0.00  0.00    +0.001 C 
ENDBRANCH   4  10
BRANCH   4  12
ATOM     12  C   UNL     1      38.058 -25.637 -13.425  0.00  0.00    +0.016 C 
ATOM     13  C   UNL     1      39.501 -25.660 -13.882  0.00  0.00    +0.001 C 
ENDBRANCH   4  12
TORSDOF 2
ENDMDL
MODEL 8
REMARK VINA RESULT:      -5.8      9.381     11.145
REMARK  Name = 4994
REMARK  2 active torsions:
REMARK  status: ('A' for Active; 'I' for Inactive)
REMARK    1  A    between atoms: C_4  and  C_10
REMARK    2  A    between atoms: C_4  and  C_12
REMARK                            x       y       z     vdW  Elec       q    Type
REMARK                         _______ _______ _______ _____ _____    ______ ____
ROOT
ATOM      1  O   UNL     1      36.124 -25.952 -15.816  0.00  0.00    -0.274 OA
ATOM      2  O   UNL     1      37.880 -22.732 -12.730  0.00  0.00    -0.291 OA
ATOM      3  N   UNL     1      36.839 -26.511 -13.724  0.00  0.00    -0.283 N 
ATOM      4  C   UNL     1      36.756 -24.123 -14.364  0.00  0.00    +0.124 C 
ATOM      5  C   UNL     1      36.557 -25.600 -14.717  0.00  0.00    +0.232 C 
ATOM      6  C   UNL     1      37.492 -23.854 -13.052  0.00  0.00    +0.182 C 
ATOM      7  C   UNL     1      37.702 -24.978 -12.119  0.00  0.00    +0.054 C 
ATOM      8  C   UNL     1      37.365 -26.208 -12.501  0.00  0.00    +0.067 C 
ATOM      9  H   UNL     1      36.646 -27.458 -13.910  0.00  0.00    +0.155 HD
ENDROOT
BRANCH   4  10
ATOM     10  C   UNL     1      37.538 -23.457 -15.507  0.00  0.00    +0.016 C 
ATOM     11  C   UNL     1      36.755 -22.310 -16.106  0.00  0.00    +0.001 C 
ENDBRANCH   4  10
BRANCH   4  12
ATOM     12  C   UNL     1      35.363 -23.488 -14.243  0.00  0.00    +0.016 C 
ATOM     13  C   UNL     1      34.547 -24.167 -13.165  0.00  0.00    +0.001 C 
ENDBRANCH   4  12
TORSDOF 2
ENDMDL
MODEL 9
REMARK VINA RESULT:      -5.7      9.355     11.136
REMARK  Name = 4994
REMARK  2 active torsions:
REMARK  status: ('A' for Active; 'I' for Inactive)
REMARK    1  A    between atoms: C_4  and  C_10
REMARK    2  A    between atoms: C_4  and  C_12
REMARK                            x       y       z     vdW  Elec       q    Type
REMARK                         _______ _______ _______ _____ _____    ______ ____
ROOT
ATOM      1  O   UNL     1      32.476  -9.752 -23.987  0.00  0.00    -0.274 OA
ATOM      2  O   UNL     1      32.421  -5.789 -21.291  0.00  0.00    -0.291 OA
ATOM      3  N   UNL     1      32.207  -9.804 -21.723  0.00  0.00    -0.283 N 
ATOM      4  C   UNL     1      32.255  -7.616 -22.874  0.00  0.00    +0.124 C 
ATOM      5  C   UNL     1      32.340  -9.144 -22.923  0.00  0.00    +0.232 C 
ATOM      6  C   UNL     1      32.300  -6.999 -21.477  0.00  0.00    +0.182 C 
ATOM      7  C   UNL     1      32.144  -7.889 -20.309  0.00  0.00    +0.054 C 
ATOM      8  C   UNL     1      32.102  -9.206 -20.501  0.00  0.00    +0.067 C 
ATOM      9  H   UNL     1      32.186 -10.788 -21.748  0.00  0.00    +0.155 HD
ENDROOT
BRANCH   4  10
ATOM     10  C   UNL     1      33.420  -7.042 -23.696  0.00  0.00    +0.016 C 
ATOM     11  C   UNL     1      34.748  -7.570 -23.201  0.00  0.00    +0.001 C 
ENDBRANCH   4  10
BRANCH   4  12
ATOM     12  C   UNL     1      30.917  -7.210 -23.508  0.00  0.00    +0.016 C 
ATOM     13  C   UNL     1      31.100  -6.065 -24.481  0.00  0.00    +0.001 C 
ENDBRANCH   4  12
TORSDOF 2
ENDMDL
