MODEL 1
REMARK VINA RESULT:     -10.2      0.000      0.000
REMARK  Name = 24871506
REMARK  7 active torsions:
REMARK  status: ('A' for Active; 'I' for Inactive)
REMARK    1  A    between atoms: C_4  and  C_13
REMARK    2  A    between atoms: C_7  and  O_26
REMARK    3  A    between atoms: C_10  and  O_28
REMARK    4  A    between atoms: C_16  and  O_21
REMARK    5  A    between atoms: O_21  and  C_22
REMARK    6  A    between atoms: C_22  and  C_23
REMARK    7  A    between atoms: C_23  and  O_24
REMARK                            x       y       z     vdW  Elec       q    Type
REMARK                         _______ _______ _______ _____ _____    ______ ____
ROOT
ATOM      1  O   UNL     1      33.875 -16.559 -25.842  0.00  0.00    -0.209 OA
ATOM      2  N   UNL     1      34.090 -15.024 -22.150  0.00  0.00    -0.287 N 
ATOM      3  N   UNL     1      33.514 -14.782 -24.442  0.00  0.00    -0.317 NA
ATOM      4  C   UNL     1      33.601 -14.312 -23.227  0.00  0.00    +0.197 C 
ATOM      5  C   UNL     1      34.536 -16.336 -22.332  0.00  0.00    +0.068 C 
ATOM      6  C   UNL     1      34.480 -16.900 -23.612  0.00  0.00    +0.142 C 
ATOM      7  C   UNL     1      34.923 -18.206 -23.836  0.00  0.00    +0.155 C 
ATOM      8  C   UNL     1      35.047 -17.091 -21.274  0.00  0.00    +0.053 C 
ATOM      9  C   UNL     1      33.933 -16.071 -24.718  0.00  0.00    +0.210 C 
ATOM     10  C   UNL     1      35.491 -18.397 -21.494  0.00  0.00    +0.143 C 
ATOM     11  C   UNL     1      35.429 -18.952 -22.772  0.00  0.00    +0.075 C 
ATOM     12  H   UNL     1      34.124 -14.609 -21.258  0.00  0.00    +0.155 HD
ENDROOT
BRANCH   4  13
ATOM     13  C   UNL     1      33.130 -12.909 -23.003  0.00  0.00    +0.045 C 
ATOM     14  C   UNL     1      33.267 -10.549 -23.505  0.00  0.00    +0.012 C 
ATOM     15  C   UNL     1      31.673 -11.346 -21.875  0.00  0.00    +0.012 C 
ATOM     16  C   UNL     1      32.250 -10.293 -22.585  0.00  0.00    +0.131 C 
ATOM     17  C   UNL     1      33.707 -11.856 -23.714  0.00  0.00    +0.003 C 
ATOM     18  C   UNL     1      32.112 -12.653 -22.084  0.00  0.00    +0.003 C 
ATOM     19  C   UNL     1      33.898  -9.436 -24.276  0.00  0.00    +0.034 C 
ATOM     20  C   UNL     1      30.584 -11.092 -20.885  0.00  0.00    +0.034 C 
BRANCH  16  21
ATOM     21  O   UNL     1      31.821  -9.016 -22.380  0.00  0.00    -0.473 OA
BRANCH  21  22
ATOM     22  C   UNL     1      32.698  -8.143 -21.674  0.00  0.00    +0.237 C 
BRANCH  22  23
ATOM     23  C   UNL     1      32.229  -8.024 -20.237  0.00  0.00    +0.185 C 
BRANCH  23  24
ATOM     24  O   UNL     1      33.175  -7.257 -19.501  0.00  0.00    -0.378 OA
ATOM     25  H   UNL     1      33.310  -6.403 -19.940  0.00  0.00    +0.211 HD
ENDBRANCH  23  24
ENDBRANCH  22  23
ENDBRANCH  21  22
ENDBRANCH  16  21
ENDBRANCH   4  13
BRANCH   7  26
ATOM     26  O   UNL     1      34.887 -18.798 -25.062  0.00  0.00    -0.471 OA
ATOM     27  C   UNL     1      34.901 -20.224 -25.095  0.00  0.00    +0.253 C 
ENDBRANCH   7  26
BRANCH  10  28
ATOM     28  O   UNL     1      35.987 -19.129 -20.459  0.00  0.00    -0.471 OA
ATOM     29  C   UNL     1      35.534 -20.476 -20.341  0.00  0.00    +0.252 C 
ENDBRANCH  10  28
TORSDOF 7
ENDMDL
MODEL 2
REMARK VINA RESULT:     -10.2      0.077      1.654
REMARK  Name = 24871506
REMARK  7 active torsions:
REMARK  status: ('A' for Active; 'I' for Inactive)
REMARK    1  A    between atoms: C_4  and  C_13
REMARK    2  A    between atoms: C_7  and  O_26
REMARK    3  A    between atoms: C_10  and  O_28
REMARK    4  A    between atoms: C_16  and  O_21
REMARK    5  A    between atoms: O_21  and  C_22
REMARK    6  A    between atoms: C_22  and  C_23
REMARK    7  A    between atoms: C_23  and  O_24
REMARK                            x       y       z     vdW  Elec       q    Type
REMARK                         _______ _______ _______ _____ _____    ______ ____
ROOT
ATOM      1  O   UNL     1      33.937 -16.500 -25.900  0.00  0.00    -0.209 OA
ATOM      2  N   UNL     1      34.075 -14.995 -22.191  0.00  0.00    -0.287 N 
ATOM      3  N   UNL     1      33.553 -14.733 -24.494  0.00  0.00    -0.317 NA
ATOM      4  C   UNL     1      33.615 -14.273 -23.274  0.00  0.00    +0.197 C 
ATOM      5  C   UNL     1      34.518 -16.309 -22.374  0.00  0.00    +0.068 C 
ATOM      6  C   UNL     1      34.488 -16.862 -23.659  0.00  0.00    +0.142 C 
ATOM      7  C   UNL     1      34.929 -18.169 -23.884  0.00  0.00    +0.155 C 
ATOM      8  C   UNL     1      35.000 -17.075 -21.310  0.00  0.00    +0.053 C 
ATOM      9  C   UNL     1      33.972 -16.021 -24.771  0.00  0.00    +0.210 C 
ATOM     10  C   UNL     1      35.441 -18.382 -21.531  0.00  0.00    +0.143 C 
ATOM     11  C   UNL     1      35.406 -18.927 -22.814  0.00  0.00    +0.075 C 
ATOM     12  H   UNL     1      34.091 -14.588 -21.296  0.00  0.00    +0.155 HD
ENDROOT
BRANCH   4  13
ATOM     13  C   UNL     1      33.147 -12.868 -23.050  0.00  0.00    +0.045 C 
ATOM     14  C   UNL     1      31.666 -11.305 -21.953  0.00  0.00    +0.012 C 
ATOM     15  C   UNL     1      33.321 -10.505 -23.520  0.00  0.00    +0.012 C 
ATOM     16  C   UNL     1      32.275 -10.250 -22.633  0.00  0.00    +0.131 C 
ATOM     17  C   UNL     1      32.101 -12.613 -22.161  0.00  0.00    +0.003 C 
ATOM     18  C   UNL     1      33.756 -11.813 -23.729  0.00  0.00    +0.003 C 
ATOM     19  C   UNL     1      30.546 -11.053 -20.998  0.00  0.00    +0.034 C 
ATOM     20  C   UNL     1      33.984  -9.389 -24.258  0.00  0.00    +0.034 C 
BRANCH  16  21
ATOM     21  O   UNL     1      31.849  -8.971 -22.430  0.00  0.00    -0.473 OA
BRANCH  21  22
ATOM     22  C   UNL     1      32.718  -8.108 -21.701  0.00  0.00    +0.237 C 
BRANCH  22  23
ATOM     23  C   UNL     1      32.291  -8.090 -20.246  0.00  0.00    +0.185 C 
BRANCH  23  24
ATOM     24  O   UNL     1      33.186  -7.262 -19.510  0.00  0.00    -0.378 OA
ATOM     25  H   UNL     1      32.683  -6.571 -19.051  0.00  0.00    +0.211 HD
ENDBRANCH  23  24
ENDBRANCH  22  23
ENDBRANCH  21  22
ENDBRANCH  16  21
ENDBRANCH   4  13
BRANCH   7  26
ATOM     26  O   UNL     1      34.918 -18.751 -25.115  0.00  0.00    -0.471 OA
ATOM     27  C   UNL     1      34.869 -20.176 -25.159  0.00  0.00    +0.253 C 
ENDBRANCH   7  26
BRANCH  10  28
ATOM     28  O   UNL     1      35.909 -19.125 -20.490  0.00  0.00    -0.471 OA
ATOM     29  C   UNL     1      35.443 -20.469 -20.391  0.00  0.00    +0.252 C 
ENDBRANCH  10  28
TORSDOF 7
ENDMDL
MODEL 3
REMARK VINA RESULT:      -9.7      4.930      8.097
REMARK  Name = 24871506
REMARK  7 active torsions:
REMARK  status: ('A' for Active; 'I' for Inactive)
REMARK    1  A    between atoms: C_4  and  C_13
REMARK    2  A    between atoms: C_7  and  O_26
REMARK    3  A    between atoms: C_10  and  O_28
REMARK    4  A    between atoms: C_16  and  O_21
REMARK    5  A    between atoms: O_21  and  C_22
REMARK    6  A    between atoms: C_22  and  C_23
REMARK    7  A    between atoms: C_23  and  O_24
REMARK                            x       y       z     vdW  Elec       q    Type
REMARK                         _______ _______ _______ _____ _____    ______ ____
ROOT
ATOM      1  O   UNL     1      32.425 -22.409 -18.584  0.00  0.00    -0.209 OA
ATOM      2  N   UNL     1      35.907 -20.624 -19.435  0.00  0.00    -0.287 N 
ATOM      3  N   UNL     1      33.608 -20.972 -19.920  0.00  0.00    -0.317 NA
ATOM      4  C   UNL     1      34.759 -20.409 -20.171  0.00  0.00    +0.197 C 
ATOM      5  C   UNL     1      35.877 -21.498 -18.344  0.00  0.00    +0.068 C 
ATOM      6  C   UNL     1      34.677 -22.142 -18.024  0.00  0.00    +0.142 C 
ATOM      7  C   UNL     1      34.608 -23.029 -16.946  0.00  0.00    +0.155 C 
ATOM      8  C   UNL     1      37.016 -21.752 -17.577  0.00  0.00    +0.053 C 
ATOM      9  C   UNL     1      33.483 -21.853 -18.861  0.00  0.00    +0.210 C 
ATOM     10  C   UNL     1      36.952 -22.637 -16.498  0.00  0.00    +0.143 C 
ATOM     11  C   UNL     1      35.751 -23.273 -16.184  0.00  0.00    +0.075 C 
ATOM     12  H   UNL     1      36.742 -20.163 -19.677  0.00  0.00    +0.155 HD
ENDROOT
BRANCH   4  13
ATOM     13  C   UNL     1      34.819 -19.468 -21.334  0.00  0.00    +0.045 C 
ATOM     14  C   UNL     1      34.933 -19.090 -23.718  0.00  0.00    +0.012 C 
ATOM     15  C   UNL     1      34.872 -17.213 -22.199  0.00  0.00    +0.012 C 
ATOM     16  C   UNL     1      34.932 -17.713 -23.500  0.00  0.00    +0.131 C 
ATOM     17  C   UNL     1      34.877 -19.968 -22.635  0.00  0.00    +0.003 C 
ATOM     18  C   UNL     1      34.817 -18.090 -21.116  0.00  0.00    +0.003 C 
ATOM     19  C   UNL     1      34.995 -19.645 -25.103  0.00  0.00    +0.034 C 
ATOM     20  C   UNL     1      34.871 -15.742 -21.946  0.00  0.00    +0.034 C 
BRANCH  16  21
ATOM     21  O   UNL     1      34.987 -16.855 -24.558  0.00  0.00    -0.473 OA
BRANCH  21  22
ATOM     22  C   UNL     1      33.803 -16.714 -25.340  0.00  0.00    +0.237 C 
BRANCH  22  23
ATOM     23  C   UNL     1      33.506 -15.239 -25.527  0.00  0.00    +0.185 C 
BRANCH  23  24
ATOM     24  O   UNL     1      33.526 -14.934 -26.917  0.00  0.00    -0.378 OA
ATOM     25  H   UNL     1      34.298 -15.352 -27.328  0.00  0.00    +0.211 HD
ENDBRANCH  23  24
ENDBRANCH  22  23
ENDBRANCH  21  22
ENDBRANCH  16  21
ENDBRANCH   4  13
BRANCH   7  26
ATOM     26  O   UNL     1      33.464 -23.678 -16.596  0.00  0.00    -0.471 OA
ATOM     27  C   UNL     1      33.056 -23.584 -15.232  0.00  0.00    +0.253 C 
ENDBRANCH   7  26
BRANCH  10  28
ATOM     28  O   UNL     1      38.064 -22.881 -15.752  0.00  0.00    -0.471 OA
ATOM     29  C   UNL     1      38.045 -24.036 -14.917  0.00  0.00    +0.252 C 
ENDBRANCH  10  28
TORSDOF 7
ENDMDL
MODEL 4
REMARK VINA RESULT:      -9.7      4.914      8.079
REMARK  Name = 24871506
REMARK  7 active torsions:
REMARK  status: ('A' for Active; 'I' for Inactive)
REMARK    1  A    between atoms: C_4  and  C_13
REMARK    2  A    between atoms: C_7  and  O_26
REMARK    3  A    between atoms: C_10  and  O_28
REMARK    4  A    between atoms: C_16  and  O_21
REMARK    5  A    between atoms: O_21  and  C_22
REMARK    6  A    between atoms: C_22  and  C_23
REMARK    7  A    between atoms: C_23  and  O_24
REMARK                            x       y       z     vdW  Elec       q    Type
REMARK                         _______ _______ _______ _____ _____    ______ ____
ROOT
ATOM      1  O   UNL     1      32.416 -22.396 -18.670  0.00  0.00    -0.209 OA
ATOM      2  N   UNL     1      35.894 -20.583 -19.478  0.00  0.00    -0.287 N 
ATOM      3  N   UNL     1      33.601 -20.941 -19.984  0.00  0.00    -0.317 NA
ATOM      4  C   UNL     1      34.750 -20.370 -20.222  0.00  0.00    +0.197 C 
ATOM      5  C   UNL     1      35.860 -21.466 -18.394  0.00  0.00    +0.068 C 
ATOM      6  C   UNL     1      34.661 -22.120 -18.089  0.00  0.00    +0.142 C 
ATOM      7  C   UNL     1      34.589 -23.015 -17.019  0.00  0.00    +0.155 C 
ATOM      8  C   UNL     1      36.995 -21.720 -17.619  0.00  0.00    +0.053 C 
ATOM      9  C   UNL     1      33.473 -21.831 -18.934  0.00  0.00    +0.210 C 
ATOM     10  C   UNL     1      36.926 -22.613 -16.548  0.00  0.00    +0.143 C 
ATOM     11  C   UNL     1      35.727 -23.259 -16.249  0.00  0.00    +0.075 C 
ATOM     12  H   UNL     1      36.728 -20.116 -19.710  0.00  0.00    +0.155 HD
ENDROOT
BRANCH   4  13
ATOM     13  C   UNL     1      34.815 -19.420 -21.377  0.00  0.00    +0.045 C 
ATOM     14  C   UNL     1      34.857 -17.159 -22.228  0.00  0.00    +0.012 C 
ATOM     15  C   UNL     1      34.953 -19.026 -23.756  0.00  0.00    +0.012 C 
ATOM     16  C   UNL     1      34.934 -17.650 -23.531  0.00  0.00    +0.131 C 
ATOM     17  C   UNL     1      34.797 -18.043 -21.151  0.00  0.00    +0.003 C 
ATOM     18  C   UNL     1      34.893 -19.911 -22.680  0.00  0.00    +0.003 C 
ATOM     19  C   UNL     1      34.837 -15.689 -21.965  0.00  0.00    +0.034 C 
ATOM     20  C   UNL     1      35.035 -19.571 -25.144  0.00  0.00    +0.034 C 
BRANCH  16  21
ATOM     21  O   UNL     1      34.993 -16.785 -24.583  0.00  0.00    -0.473 OA
BRANCH  21  22
ATOM     22  C   UNL     1      33.835 -16.690 -25.408  0.00  0.00    +0.237 C 
BRANCH  22  23
ATOM     23  C   UNL     1      33.466 -15.230 -25.578  0.00  0.00    +0.185 C 
BRANCH  23  24
ATOM     24  O   UNL     1      33.481 -14.904 -26.963  0.00  0.00    -0.378 OA
ATOM     25  H   UNL     1      32.630 -15.146 -27.361  0.00  0.00    +0.211 HD
ENDBRANCH  23  24
ENDBRANCH  22  23
ENDBRANCH  21  22
ENDBRANCH  16  21
ENDBRANCH   4  13
BRANCH   7  26
ATOM     26  O   UNL     1      33.446 -23.674 -16.683  0.00  0.00    -0.471 OA
ATOM     27  C   UNL     1      33.013 -23.573 -15.327  0.00  0.00    +0.253 C 
ENDBRANCH   7  26
BRANCH  10  28
ATOM     28  O   UNL     1      38.034 -22.856 -15.795  0.00  0.00    -0.471 OA
ATOM     29  C   UNL     1      38.030 -24.036 -14.996  0.00  0.00    +0.252 C 
ENDBRANCH  10  28
TORSDOF 7
ENDMDL
MODEL 5
REMARK VINA RESULT:      -9.6      2.540      8.923
REMARK  Name = 24871506
REMARK  7 active torsions:
REMARK  status: ('A' for Active; 'I' for Inactive)
REMARK    1  A    between atoms: C_4  and  C_13
REMARK    2  A    between atoms: C_7  and  O_26
REMARK    3  A    between atoms: C_10  and  O_28
REMARK    4  A    between atoms: C_16  and  O_21
REMARK    5  A    between atoms: O_21  and  C_22
REMARK    6  A    between atoms: C_22  and  C_23
REMARK    7  A    between atoms: C_23  and  O_24
REMARK                            x       y       z     vdW  Elec       q    Type
REMARK                         _______ _______ _______ _____ _____    ______ ____
ROOT
ATOM      1  O   UNL     1      34.570 -17.308 -25.677  0.00  0.00    -0.209 OA
ATOM      2  N   UNL     1      33.920 -16.771 -21.762  0.00  0.00    -0.287 N 
ATOM      3  N   UNL     1      34.568 -18.183 -23.560  0.00  0.00    -0.317 NA
ATOM      4  C   UNL     1      34.343 -17.974 -22.291  0.00  0.00    +0.197 C 
ATOM      5  C   UNL     1      33.700 -15.682 -22.611  0.00  0.00    +0.068 C 
ATOM      6  C   UNL     1      33.913 -15.839 -23.985  0.00  0.00    +0.142 C 
ATOM      7  C   UNL     1      33.697 -14.776 -24.866  0.00  0.00    +0.155 C 
ATOM      8  C   UNL     1      33.263 -14.448 -22.122  0.00  0.00    +0.053 C 
ATOM      9  C   UNL     1      34.376 -17.163 -24.474  0.00  0.00    +0.210 C 
ATOM     10  C   UNL     1      33.047 -13.384 -23.000  0.00  0.00    +0.143 C 
ATOM     11  C   UNL     1      33.263 -13.547 -24.368  0.00  0.00    +0.075 C 
ATOM     12  H   UNL     1      33.773 -16.681 -20.794  0.00  0.00    +0.155 HD
ENDROOT
BRANCH   4  13
ATOM     13  C   UNL     1      34.571 -19.125 -21.360  0.00  0.00    +0.045 C 
ATOM     14  C   UNL     1      33.701 -20.804 -19.856  0.00  0.00    +0.012 C 
ATOM     15  C   UNL     1      36.078 -20.661 -20.262  0.00  0.00    +0.012 C 
ATOM     16  C   UNL     1      34.996 -21.268 -19.624  0.00  0.00    +0.131 C 
ATOM     17  C   UNL     1      33.488 -19.733 -20.723  0.00  0.00    +0.003 C 
ATOM     18  C   UNL     1      35.866 -19.589 -21.129  0.00  0.00    +0.003 C 
ATOM     19  C   UNL     1      32.530 -21.442 -19.184  0.00  0.00    +0.034 C 
ATOM     20  C   UNL     1      37.472 -21.142 -20.026  0.00  0.00    +0.034 C 
BRANCH  16  21
ATOM     21  O   UNL     1      35.204 -22.315 -18.777  0.00  0.00    -0.473 OA
BRANCH  21  22
ATOM     22  C   UNL     1      35.761 -22.014 -17.500  0.00  0.00    +0.237 C 
BRANCH  22  23
ATOM     23  C   UNL     1      35.124 -22.912 -16.457  0.00  0.00    +0.185 C 
BRANCH  23  24
ATOM     24  O   UNL     1      34.140 -23.727 -17.085  0.00  0.00    -0.378 OA
ATOM     25  H   UNL     1      34.319 -24.659 -16.886  0.00  0.00    +0.211 HD
ENDBRANCH  23  24
ENDBRANCH  22  23
ENDBRANCH  21  22
ENDBRANCH  16  21
ENDBRANCH   4  13
BRANCH   7  26
ATOM     26  O   UNL     1      33.891 -14.879 -26.210  0.00  0.00    -0.471 OA
ATOM     27  C   UNL     1      33.193 -13.953 -27.040  0.00  0.00    +0.253 C 
ENDBRANCH   7  26
BRANCH  10  28
ATOM     28  O   UNL     1      32.622 -12.183 -22.518  0.00  0.00    -0.471 OA
ATOM     29  C   UNL     1      31.656 -12.208 -21.470  0.00  0.00    +0.252 C 
ENDBRANCH  10  28
TORSDOF 7
ENDMDL
MODEL 6
REMARK VINA RESULT:      -9.5      5.930     10.506
REMARK  Name = 24871506
REMARK  7 active torsions:
REMARK  status: ('A' for Active; 'I' for Inactive)
REMARK    1  A    between atoms: C_4  and  C_13
REMARK    2  A    between atoms: C_7  and  O_26
REMARK    3  A    between atoms: C_10  and  O_28
REMARK    4  A    between atoms: C_16  and  O_21
REMARK    5  A    between atoms: O_21  and  C_22
REMARK    6  A    between atoms: C_22  and  C_23
REMARK    7  A    between atoms: C_23  and  O_24
REMARK                            x       y       z     vdW  Elec       q    Type
REMARK                         _______ _______ _______ _____ _____    ______ ____
ROOT
ATOM      1  O   UNL     1      38.446 -23.194 -15.713  0.00  0.00    -0.209 OA
ATOM      2  N   UNL     1      34.671 -22.519 -16.870  0.00  0.00    -0.287 N 
ATOM      3  N   UNL     1      37.005 -22.264 -17.233  0.00  0.00    -0.317 NA
ATOM      4  C   UNL     1      35.763 -22.060 -17.579  0.00  0.00    +0.197 C 
ATOM      5  C   UNL     1      34.868 -23.252 -15.695  0.00  0.00    +0.068 C 
ATOM      6  C   UNL     1      36.174 -23.500 -15.261  0.00  0.00    +0.142 C 
ATOM      7  C   UNL     1      36.411 -24.221 -14.088  0.00  0.00    +0.155 C 
ATOM      8  C   UNL     1      33.793 -23.729 -14.941  0.00  0.00    +0.053 C 
ATOM      9  C   UNL     1      37.296 -22.977 -16.084  0.00  0.00    +0.210 C 
ATOM     10  C   UNL     1      34.026 -24.451 -13.769  0.00  0.00    +0.143 C 
ATOM     11  C   UNL     1      35.331 -24.697 -13.343  0.00  0.00    +0.075 C 
ATOM     12  H   UNL     1      33.760 -22.332 -17.190  0.00  0.00    +0.155 HD
ENDROOT
BRANCH   4  13
ATOM     13  C   UNL     1      35.525 -21.278 -18.834  0.00  0.00    +0.045 C 
ATOM     14  C   UNL     1      36.370 -19.942 -20.661  0.00  0.00    +0.012 C 
ATOM     15  C   UNL     1      34.009 -20.430 -20.514  0.00  0.00    +0.012 C 
ATOM     16  C   UNL     1      35.078 -19.821 -21.171  0.00  0.00    +0.131 C 
ATOM     17  C   UNL     1      36.594 -20.670 -19.492  0.00  0.00    +0.003 C 
ATOM     18  C   UNL     1      34.232 -21.158 -19.345  0.00  0.00    +0.003 C 
ATOM     19  C   UNL     1      37.528 -19.299 -21.351  0.00  0.00    +0.034 C 
ATOM     20  C   UNL     1      32.619 -20.311 -21.044  0.00  0.00    +0.034 C 
BRANCH  16  21
ATOM     21  O   UNL     1      34.860 -19.110 -22.314  0.00  0.00    -0.473 OA
BRANCH  21  22
ATOM     22  C   UNL     1      34.649 -17.708 -22.173  0.00  0.00    +0.237 C 
BRANCH  22  23
ATOM     23  C   UNL     1      34.683 -17.061 -23.544  0.00  0.00    +0.185 C 
BRANCH  23  24
ATOM     24  O   UNL     1      35.743 -16.112 -23.584  0.00  0.00    -0.378 OA
ATOM     25  H   UNL     1      36.589 -16.577 -23.679  0.00  0.00    +0.211 HD
ENDBRANCH  23  24
ENDBRANCH  22  23
ENDBRANCH  21  22
ENDBRANCH  16  21
ENDBRANCH   4  13
BRANCH   7  26
ATOM     26  O   UNL     1      37.664 -24.489 -13.625  0.00  0.00    -0.471 OA
ATOM     27  C   UNL     1      37.815 -25.631 -12.784  0.00  0.00    +0.253 C 
ENDBRANCH   7  26
BRANCH  10  28
ATOM     28  O   UNL     1      32.975 -24.916 -13.037  0.00  0.00    -0.471 OA
ATOM     29  C   UNL     1      31.712 -24.994 -13.693  0.00  0.00    +0.252 C 
ENDBRANCH  10  28
TORSDOF 7
ENDMDL
MODEL 7
REMARK VINA RESULT:      -9.3      2.867      5.097
REMARK  Name = 24871506
REMARK  7 active torsions:
REMARK  status: ('A' for Active; 'I' for Inactive)
REMARK    1  A    between atoms: C_4  and  C_13
REMARK    2  A    between atoms: C_7  and  O_26
REMARK    3  A    between atoms: C_10  and  O_28
REMARK    4  A    between atoms: C_16  and  O_21
REMARK    5  A    between atoms: O_21  and  C_22
REMARK    6  A    between atoms: C_22  and  C_23
REMARK    7  A    between atoms: C_23  and  O_24
REMARK                            x       y       z     vdW  Elec       q    Type
REMARK                         _______ _______ _______ _____ _____    ______ ____
ROOT
ATOM      1  O   UNL     1      37.364 -19.478 -20.588  0.00  0.00    -0.209 OA
ATOM      2  N   UNL     1      33.451 -18.738 -21.011  0.00  0.00    -0.287 N 
ATOM      3  N   UNL     1      35.710 -18.121 -21.407  0.00  0.00    -0.317 NA
ATOM      4  C   UNL     1      34.428 -17.908 -21.523  0.00  0.00    +0.197 C 
ATOM      5  C   UNL     1      33.820 -19.890 -20.309  0.00  0.00    +0.068 C 
ATOM      6  C   UNL     1      35.179 -20.174 -20.139  0.00  0.00    +0.142 C 
ATOM      7  C   UNL     1      35.588 -21.312 -19.438  0.00  0.00    +0.155 C 
ATOM      8  C   UNL     1      32.867 -20.755 -19.765  0.00  0.00    +0.053 C 
ATOM      9  C   UNL     1      36.169 -19.234 -20.728  0.00  0.00    +0.210 C 
ATOM     10  C   UNL     1      33.272 -21.892 -19.064  0.00  0.00    +0.143 C 
ATOM     11  C   UNL     1      34.629 -22.170 -18.901  0.00  0.00    +0.075 C 
ATOM     12  H   UNL     1      32.500 -18.520 -21.138  0.00  0.00    +0.155 HD
ENDROOT
BRANCH   4  13
ATOM     13  C   UNL     1      34.004 -16.681 -22.270  0.00  0.00    +0.045 C 
ATOM     14  C   UNL     1      33.765 -15.475 -24.350  0.00  0.00    +0.012 C 
ATOM     15  C   UNL     1      33.058 -14.459 -22.276  0.00  0.00    +0.012 C 
ATOM     16  C   UNL     1      33.215 -14.394 -23.661  0.00  0.00    +0.131 C 
ATOM     17  C   UNL     1      34.160 -16.618 -23.656  0.00  0.00    +0.003 C 
ATOM     18  C   UNL     1      33.453 -15.601 -21.581  0.00  0.00    +0.003 C 
ATOM     19  C   UNL     1      33.940 -15.426 -25.832  0.00  0.00    +0.034 C 
ATOM     20  C   UNL     1      32.472 -13.312 -21.521  0.00  0.00    +0.034 C 
BRANCH  16  21
ATOM     21  O   UNL     1      32.829 -13.277 -24.340  0.00  0.00    -0.473 OA
BRANCH  21  22
ATOM     22  C   UNL     1      33.860 -12.394 -24.772  0.00  0.00    +0.237 C 
BRANCH  22  23
ATOM     23  C   UNL     1      33.665 -11.043 -24.110  0.00  0.00    +0.185 C 
BRANCH  23  24
ATOM     24  O   UNL     1      34.935 -10.424 -23.935  0.00  0.00    -0.378 OA
ATOM     25  H   UNL     1      34.810  -9.489 -23.712  0.00  0.00    +0.211 HD
ENDBRANCH  23  24
ENDBRANCH  22  23
ENDBRANCH  21  22
ENDBRANCH  16  21
ENDBRANCH   4  13
BRANCH   7  26
ATOM     26  O   UNL     1      36.899 -21.631 -19.247  0.00  0.00    -0.471 OA
ATOM     27  C   UNL     1      37.313 -21.901 -17.909  0.00  0.00    +0.253 C 
ENDBRANCH   7  26
BRANCH  10  28
ATOM     28  O   UNL     1      32.339 -22.733 -18.537  0.00  0.00    -0.471 OA
ATOM     29  C   UNL     1      32.506 -23.114 -17.173  0.00  0.00    +0.252 C 
ENDBRANCH  10  28
TORSDOF 7
ENDMDL
MODEL 8
REMARK VINA RESULT:      -9.2      4.836      8.147
REMARK  Name = 24871506
REMARK  7 active torsions:
REMARK  status: ('A' for Active; 'I' for Inactive)
REMARK    1  A    between atoms: C_4  and  C_13
REMARK    2  A    between atoms: C_7  and  O_26
REMARK    3  A    between atoms: C_10  and  O_28
REMARK    4  A    between atoms: C_16  and  O_21
REMARK    5  A    between atoms: O_21  and  C_22
REMARK    6  A    between atoms: C_22  and  C_23
REMARK    7  A    between atoms: C_23  and  O_24
REMARK                            x       y       z     vdW  Elec       q    Type
REMARK                         _______ _______ _______ _____ _____    ______ ____
ROOT
ATOM      1  O   UNL     1      37.262 -21.797 -18.140  0.00  0.00    -0.209 OA
ATOM      2  N   UNL     1      33.740 -20.837 -19.787  0.00  0.00    -0.287 N 
ATOM      3  N   UNL     1      36.104 -20.611 -19.721  0.00  0.00    -0.317 NA
ATOM      4  C   UNL     1      34.939 -20.318 -20.233  0.00  0.00    +0.197 C 
ATOM      5  C   UNL     1      33.731 -21.737 -18.716  0.00  0.00    +0.068 C 
ATOM      6  C   UNL     1      34.944 -22.088 -18.115  0.00  0.00    +0.142 C 
ATOM      7  C   UNL     1      34.976 -22.977 -17.038  0.00  0.00    +0.155 C 
ATOM      8  C   UNL     1      32.541 -22.281 -18.226  0.00  0.00    +0.053 C 
ATOM      9  C   UNL     1      36.193 -21.490 -18.658  0.00  0.00    +0.210 C 
ATOM     10  C   UNL     1      32.568 -23.170 -17.150  0.00  0.00    +0.143 C 
ATOM     11  C   UNL     1      33.782 -23.517 -16.558  0.00  0.00    +0.075 C 
ATOM     12  H   UNL     1      32.897 -20.576 -20.221  0.00  0.00    +0.155 HD
ENDROOT
BRANCH   4  13
ATOM     13  C   UNL     1      34.920 -19.357 -21.381  0.00  0.00    +0.045 C 
ATOM     14  C   UNL     1      34.887 -17.089 -22.212  0.00  0.00    +0.012 C 
ATOM     15  C   UNL     1      34.902 -18.942 -23.761  0.00  0.00    +0.012 C 
ATOM     16  C   UNL     1      34.885 -17.568 -23.522  0.00  0.00    +0.131 C 
ATOM     17  C   UNL     1      34.905 -17.982 -21.142  0.00  0.00    +0.003 C 
ATOM     18  C   UNL     1      34.919 -19.837 -22.691  0.00  0.00    +0.003 C 
ATOM     19  C   UNL     1      34.871 -15.621 -21.936  0.00  0.00    +0.034 C 
ATOM     20  C   UNL     1      34.899 -19.475 -25.156  0.00  0.00    +0.034 C 
BRANCH  16  21
ATOM     21  O   UNL     1      34.868 -16.694 -24.569  0.00  0.00    -0.473 OA
BRANCH  21  22
ATOM     22  C   UNL     1      33.621 -16.502 -25.231  0.00  0.00    +0.237 C 
BRANCH  22  23
ATOM     23  C   UNL     1      33.464 -15.034 -25.575  0.00  0.00    +0.185 C 
BRANCH  23  24
ATOM     24  O   UNL     1      33.517 -14.880 -26.989  0.00  0.00    -0.378 OA
ATOM     25  H   UNL     1      32.628 -14.690 -27.327  0.00  0.00    +0.211 HD
ENDBRANCH  23  24
ENDBRANCH  22  23
ENDBRANCH  21  22
ENDBRANCH  16  21
ENDBRANCH   4  13
BRANCH   7  26
ATOM     26  O   UNL     1      36.131 -23.350 -16.421  0.00  0.00    -0.471 OA
ATOM     27  C   UNL     1      36.018 -23.903 -15.111  0.00  0.00    +0.253 C 
ENDBRANCH   7  26
BRANCH  10  28
ATOM     28  O   UNL     1      31.406 -23.699 -16.676  0.00  0.00    -0.471 OA
ATOM     29  C   UNL     1      30.335 -22.792 -16.425  0.00  0.00    +0.252 C 
ENDBRANCH  10  28
TORSDOF 7
ENDMDL
MODEL 9
REMARK VINA RESULT:      -9.1      6.654     11.533
REMARK  Name = 24871506
REMARK  7 active torsions:
REMARK  status: ('A' for Active; 'I' for Inactive)
REMARK    1  A    between atoms: C_4  and  C_13
REMARK    2  A    between atoms: C_7  and  O_26
REMARK    3  A    between atoms: C_10  and  O_28
REMARK    4  A    between atoms: C_16  and  O_21
REMARK    5  A    between atoms: O_21  and  C_22
REMARK    6  A    between atoms: C_22  and  C_23
REMARK    7  A    between atoms: C_23  and  O_24
REMARK                            x       y       z     vdW  Elec       q    Type
REMARK                         _______ _______ _______ _____ _____    ______ ____
ROOT
ATOM      1  O   UNL     1      33.893 -23.643 -13.801  0.00  0.00    -0.209 OA
ATOM      2  N   UNL     1      36.948 -23.333 -16.372  0.00  0.00    -0.287 N 
ATOM      3  N   UNL     1      34.695 -22.848 -15.794  0.00  0.00    -0.317 NA
ATOM      4  C   UNL     1      35.711 -22.769 -16.611  0.00  0.00    +0.197 C 
ATOM      5  C   UNL     1      37.166 -24.048 -15.190  0.00  0.00    +0.068 C 
ATOM      6  C   UNL     1      36.117 -24.180 -14.274  0.00  0.00    +0.142 C 
ATOM      7  C   UNL     1      36.293 -24.893 -13.085  0.00  0.00    +0.155 C 
ATOM      8  C   UNL     1      38.399 -24.643 -14.910  0.00  0.00    +0.053 C 
ATOM      9  C   UNL     1      34.817 -23.537 -14.601  0.00  0.00    +0.210 C 
ATOM     10  C   UNL     1      38.579 -25.356 -13.723  0.00  0.00    +0.143 C 
ATOM     11  C   UNL     1      37.529 -25.481 -12.813  0.00  0.00    +0.075 C 
ATOM     12  H   UNL     1      37.673 -23.231 -17.029  0.00  0.00    +0.155 HD
ENDROOT
BRANCH   4  13
ATOM     13  C   UNL     1      35.505 -22.008 -17.884  0.00  0.00    +0.045 C 
ATOM     14  C   UNL     1      36.392 -20.671 -19.690  0.00  0.00    +0.012 C 
ATOM     15  C   UNL     1      34.040 -21.221 -19.637  0.00  0.00    +0.012 C 
ATOM     16  C   UNL     1      35.120 -20.591 -20.256  0.00  0.00    +0.131 C 
ATOM     17  C   UNL     1      36.585 -21.379 -18.504  0.00  0.00    +0.003 C 
ATOM     18  C   UNL     1      34.233 -21.929 -18.450  0.00  0.00    +0.003 C 
ATOM     19  C   UNL     1      37.560 -20.004 -20.339  0.00  0.00    +0.034 C 
ATOM     20  C   UNL     1      32.671 -21.145 -20.226  0.00  0.00    +0.034 C 
BRANCH  16  21
ATOM     21  O   UNL     1      34.931 -19.898 -21.416  0.00  0.00    -0.473 OA
BRANCH  21  22
ATOM     22  C   UNL     1      34.501 -18.545 -21.299  0.00  0.00    +0.237 C 
BRANCH  22  23
ATOM     23  C   UNL     1      35.145 -17.723 -22.399  0.00  0.00    +0.185 C 
BRANCH  23  24
ATOM     24  O   UNL     1      36.101 -18.528 -23.080  0.00  0.00    -0.378 OA
ATOM     25  H   UNL     1      35.660 -19.309 -23.451  0.00  0.00    +0.211 HD
ENDBRANCH  23  24
ENDBRANCH  22  23
ENDBRANCH  21  22
ENDBRANCH  16  21
ENDBRANCH   4  13
BRANCH   7  26
ATOM     26  O   UNL     1      35.303 -25.048 -12.163  0.00  0.00    -0.471 OA
ATOM     27  C   UNL     1      35.533 -24.500 -10.866  0.00  0.00    +0.253 C 
ENDBRANCH   7  26
BRANCH  10  28
ATOM     28  O   UNL     1      39.782 -25.933 -13.453  0.00  0.00    -0.471 OA
ATOM     29  C   UNL     1      40.680 -26.105 -14.548  0.00  0.00    +0.252 C 
ENDBRANCH  10  28
TORSDOF 7
ENDMDL
