MODEL 1
REMARK VINA RESULT:      -7.5      0.000      0.000
REMARK  Name = 70374
REMARK  3 active torsions:
REMARK  status: ('A' for Active; 'I' for Inactive)
REMARK    1  A    between atoms: N_2  and  C_11
REMARK    2  A    between atoms: C_3  and  C_7
REMARK    3  A    between atoms: C_11  and  N_13
REMARK                            x       y       z     vdW  Elec       q    Type
REMARK                         _______ _______ _______ _____ _____    ______ ____
ROOT
ATOM      1  O   UNL     1      35.124 -16.214 -20.134  0.00  0.00    -0.269 OA
ATOM      2  N   UNL     1      35.268 -17.412 -22.112  0.00  0.00    -0.320 N 
ATOM      3  C   UNL     1      34.873 -16.338 -21.330  0.00  0.00    +0.263 C 
ATOM      4  H   UNL     1      35.021 -17.426 -23.064  0.00  0.00    +0.147 HD
ENDROOT
BRANCH   3   7
ATOM      5  N   UNL     1      34.661 -14.834 -23.164  0.00  0.00    -0.236 NA
ATOM      6  N   UNL     1      32.249 -13.839 -22.135  0.00  0.00    -0.239 NA
ATOM      7  C   UNL     1      34.114 -15.270 -22.031  0.00  0.00    +0.153 C 
ATOM      8  C   UNL     1      32.947 -14.806 -21.509  0.00  0.00    +0.123 C 
ATOM      9  C   UNL     1      33.964 -13.866 -23.792  0.00  0.00    +0.120 C 
ATOM     10  C   UNL     1      32.779 -13.377 -23.286  0.00  0.00    +0.120 C 
ENDBRANCH   3   7
BRANCH   2  11
ATOM     11  C   UNL     1      36.032 -18.514 -21.569  0.00  0.00    +0.016 C 
BRANCH  11  13
ATOM     12  O   UNL     1      33.598 -21.559 -20.015  0.00  0.00    -0.358 OA
ATOM     13  N   UNL     1      35.176 -19.281 -20.668  0.00  0.00    +0.402 N 
ATOM     14  C   UNL     1      35.791 -20.574 -20.338  0.00  0.00    -0.042 C 
ATOM     15  C   UNL     1      33.849 -19.493 -21.263  0.00  0.00    -0.042 C 
ATOM     16  C   UNL     1      34.875 -21.363 -19.407  0.00  0.00    +0.120 C 
ATOM     17  C   UNL     1      32.978 -20.306 -20.309  0.00  0.00    +0.120 C 
ATOM     18  H   UNL     1      35.065 -18.744 -19.808  0.00  0.00    -0.077 HD
ENDBRANCH  11  13
ENDBRANCH   2  11
TORSDOF 3
ENDMDL
MODEL 2
REMARK VINA RESULT:      -7.5      2.236      6.322
REMARK  Name = 70374
REMARK  3 active torsions:
REMARK  status: ('A' for Active; 'I' for Inactive)
REMARK    1  A    between atoms: N_2  and  C_11
REMARK    2  A    between atoms: C_3  and  C_7
REMARK    3  A    between atoms: C_11  and  N_13
REMARK                            x       y       z     vdW  Elec       q    Type
REMARK                         _______ _______ _______ _____ _____    ______ ____
ROOT
ATOM      1  O   UNL     1      36.421 -18.949 -20.629  0.00  0.00    -0.269 OA
ATOM      2  N   UNL     1      34.964 -19.401 -22.372  0.00  0.00    -0.320 N 
ATOM      3  C   UNL     1      35.465 -19.567 -21.091  0.00  0.00    +0.263 C 
ATOM      4  H   UNL     1      34.192 -19.941 -22.657  0.00  0.00    +0.147 HD
ENDROOT
BRANCH   3   7
ATOM      5  N   UNL     1      35.539 -21.372 -19.540  0.00  0.00    -0.236 NA
ATOM      6  N   UNL     1      32.738 -21.472 -19.445  0.00  0.00    -0.239 NA
ATOM      7  C   UNL     1      34.754 -20.555 -20.240  0.00  0.00    +0.153 C 
ATOM      8  C   UNL     1      33.394 -20.581 -20.214  0.00  0.00    +0.123 C 
ATOM      9  C   UNL     1      34.883 -22.263 -18.770  0.00  0.00    +0.120 C 
ATOM     10  C   UNL     1      33.507 -22.313 -18.725  0.00  0.00    +0.120 C 
ENDBRANCH   3   7
BRANCH   2  11
ATOM     11  C   UNL     1      35.542 -18.458 -23.304  0.00  0.00    +0.016 C 
BRANCH  11  13
ATOM     12  O   UNL     1      34.025 -14.624 -24.085  0.00  0.00    -0.358 OA
ATOM     13  N   UNL     1      34.616 -17.342 -23.480  0.00  0.00    +0.402 N 
ATOM     14  C   UNL     1      34.669 -16.831 -24.857  0.00  0.00    -0.042 C 
ATOM     15  C   UNL     1      34.915 -16.261 -22.531  0.00  0.00    -0.042 C 
ATOM     16  C   UNL     1      33.703 -15.660 -25.014  0.00  0.00    +0.120 C 
ATOM     17  C   UNL     1      33.943 -15.102 -22.742  0.00  0.00    +0.120 C 
ATOM     18  H   UNL     1      33.673 -17.685 -23.296  0.00  0.00    -0.077 HD
ENDBRANCH  11  13
ENDBRANCH   2  11
TORSDOF 3
ENDMDL
MODEL 3
REMARK VINA RESULT:      -7.5      1.544      1.993
REMARK  Name = 70374
REMARK  3 active torsions:
REMARK  status: ('A' for Active; 'I' for Inactive)
REMARK    1  A    between atoms: N_2  and  C_11
REMARK    2  A    between atoms: C_3  and  C_7
REMARK    3  A    between atoms: C_11  and  N_13
REMARK                            x       y       z     vdW  Elec       q    Type
REMARK                         _______ _______ _______ _____ _____    ______ ____
ROOT
ATOM      1  O   UNL     1      35.017 -16.161 -21.349  0.00  0.00    -0.269 OA
ATOM      2  N   UNL     1      35.539 -18.114 -22.481  0.00  0.00    -0.320 N 
ATOM      3  C   UNL     1      35.017 -16.835 -22.377  0.00  0.00    +0.263 C 
ATOM      4  H   UNL     1      35.495 -18.578 -23.347  0.00  0.00    +0.147 HD
ENDROOT
BRANCH   3   7
ATOM      5  N   UNL     1      33.809 -15.103 -23.478  0.00  0.00    -0.236 NA
ATOM      6  N   UNL     1      34.086 -16.410 -25.945  0.00  0.00    -0.239 NA
ATOM      7  C   UNL     1      34.448 -16.263 -23.624  0.00  0.00    +0.153 C 
ATOM      8  C   UNL     1      34.597 -16.919 -24.806  0.00  0.00    +0.123 C 
ATOM      9  C   UNL     1      33.297 -14.594 -24.617  0.00  0.00    +0.120 C 
ATOM     10  C   UNL     1      33.433 -15.237 -25.828  0.00  0.00    +0.120 C 
ENDBRANCH   3   7
BRANCH   2  11
ATOM     11  C   UNL     1      36.145 -18.788 -21.354  0.00  0.00    +0.016 C 
BRANCH  11  13
ATOM     12  O   UNL     1      33.170 -21.485 -20.133  0.00  0.00    -0.358 OA
ATOM     13  N   UNL     1      35.094 -19.432 -20.570  0.00  0.00    +0.402 N 
ATOM     14  C   UNL     1      35.495 -20.791 -20.178  0.00  0.00    -0.042 C 
ATOM     15  C   UNL     1      33.834 -19.478 -21.324  0.00  0.00    -0.042 C 
ATOM     16  C   UNL     1      34.378 -21.449 -19.372  0.00  0.00    +0.120 C 
ATOM     17  C   UNL     1      32.756 -20.166 -20.490  0.00  0.00    +0.120 C 
ATOM     18  H   UNL     1      34.949 -18.880 -19.726  0.00  0.00    -0.077 HD
ENDBRANCH  11  13
ENDBRANCH   2  11
TORSDOF 3
ENDMDL
MODEL 4
REMARK VINA RESULT:      -7.3      1.775      6.074
REMARK  Name = 70374
REMARK  3 active torsions:
REMARK  status: ('A' for Active; 'I' for Inactive)
REMARK    1  A    between atoms: N_2  and  C_11
REMARK    2  A    between atoms: C_3  and  C_7
REMARK    3  A    between atoms: C_11  and  N_13
REMARK                            x       y       z     vdW  Elec       q    Type
REMARK                         _______ _______ _______ _____ _____    ______ ____
ROOT
ATOM      1  O   UNL     1      36.705 -18.653 -21.480  0.00  0.00    -0.269 OA
ATOM      2  N   UNL     1      34.675 -17.716 -22.088  0.00  0.00    -0.320 N 
ATOM      3  C   UNL     1      35.476 -18.662 -21.470  0.00  0.00    +0.263 C 
ATOM      4  H   UNL     1      33.697 -17.804 -22.025  0.00  0.00    +0.147 HD
ENDROOT
BRANCH   3   7
ATOM      5  N   UNL     1      35.538 -20.556 -20.028  0.00  0.00    -0.236 NA
ATOM      6  N   UNL     1      32.746 -20.794 -20.137  0.00  0.00    -0.239 NA
ATOM      7  C   UNL     1      34.761 -19.735 -20.731  0.00  0.00    +0.153 C 
ATOM      8  C   UNL     1      33.406 -19.827 -20.803  0.00  0.00    +0.123 C 
ATOM      9  C   UNL     1      34.879 -21.525 -19.361  0.00  0.00    +0.120 C 
ATOM     10  C   UNL     1      33.507 -21.642 -19.416  0.00  0.00    +0.120 C 
ENDBRANCH   3   7
BRANCH   2  11
ATOM     11  C   UNL     1      35.234 -16.603 -22.824  0.00  0.00    +0.016 C 
BRANCH  11  13
ATOM     12  O   UNL     1      32.247 -13.695 -22.339  0.00  0.00    -0.358 OA
ATOM     13  N   UNL     1      34.539 -15.380 -22.427  0.00  0.00    +0.402 N 
ATOM     14  C   UNL     1      33.391 -15.689 -21.564  0.00  0.00    -0.042 C 
ATOM     15  C   UNL     1      34.093 -14.627 -23.607  0.00  0.00    -0.042 C 
ATOM     16  C   UNL     1      32.674 -14.399 -21.172  0.00  0.00    +0.120 C 
ATOM     17  C   UNL     1      33.361 -13.362 -23.167  0.00  0.00    +0.120 C 
ATOM     18  H   UNL     1      35.196 -14.804 -21.901  0.00  0.00    -0.077 HD
ENDBRANCH  11  13
ENDBRANCH   2  11
TORSDOF 3
ENDMDL
MODEL 5
REMARK VINA RESULT:      -7.3      2.044      2.929
REMARK  Name = 70374
REMARK  3 active torsions:
REMARK  status: ('A' for Active; 'I' for Inactive)
REMARK    1  A    between atoms: N_2  and  C_11
REMARK    2  A    between atoms: C_3  and  C_7
REMARK    3  A    between atoms: C_11  and  N_13
REMARK                            x       y       z     vdW  Elec       q    Type
REMARK                         _______ _______ _______ _____ _____    ______ ____
ROOT
ATOM      1  O   UNL     1      35.075 -19.443 -22.476  0.00  0.00    -0.269 OA
ATOM      2  N   UNL     1      36.168 -19.083 -20.464  0.00  0.00    -0.320 N 
ATOM      3  C   UNL     1      35.446 -18.688 -21.579  0.00  0.00    +0.263 C 
ATOM      4  H   UNL     1      36.422 -18.408 -19.796  0.00  0.00    +0.147 HD
ENDROOT
BRANCH   3   7
ATOM      5  N   UNL     1      34.946 -16.641 -20.470  0.00  0.00    -0.236 NA
ATOM      6  N   UNL     1      34.630 -15.328 -22.928  0.00  0.00    -0.239 NA
ATOM      7  C   UNL     1      35.095 -17.247 -21.647  0.00  0.00    +0.153 C 
ATOM      8  C   UNL     1      34.948 -16.636 -22.854  0.00  0.00    +0.123 C 
ATOM      9  C   UNL     1      34.629 -15.333 -20.544  0.00  0.00    +0.120 C 
ATOM     10  C   UNL     1      34.473 -14.689 -21.752  0.00  0.00    +0.120 C 
ENDBRANCH   3   7
BRANCH   2  11
ATOM     11  C   UNL     1      36.560 -20.460 -20.255  0.00  0.00    +0.016 C 
BRANCH  11  13
ATOM     12  O   UNL     1      34.912 -23.136 -17.475  0.00  0.00    -0.358 OA
ATOM     13  N   UNL     1      35.812 -20.995 -19.121  0.00  0.00    +0.402 N 
ATOM     14  C   UNL     1      36.711 -21.666 -18.171  0.00  0.00    -0.042 C 
ATOM     15  C   UNL     1      34.773 -21.930 -19.575  0.00  0.00    -0.042 C 
ATOM     16  C   UNL     1      35.906 -22.227 -17.002  0.00  0.00    +0.120 C 
ATOM     17  C   UNL     1      34.013 -22.484 -18.373  0.00  0.00    +0.120 C 
ATOM     18  H   UNL     1      35.361 -20.213 -18.646  0.00  0.00    -0.077 HD
ENDBRANCH  11  13
ENDBRANCH   2  11
TORSDOF 3
ENDMDL
MODEL 6
REMARK VINA RESULT:      -7.2      6.766      9.601
REMARK  Name = 70374
REMARK  3 active torsions:
REMARK  status: ('A' for Active; 'I' for Inactive)
REMARK    1  A    between atoms: N_2  and  C_11
REMARK    2  A    between atoms: C_3  and  C_7
REMARK    3  A    between atoms: C_11  and  N_13
REMARK                            x       y       z     vdW  Elec       q    Type
REMARK                         _______ _______ _______ _____ _____    ______ ____
ROOT
ATOM      1  O   UNL     1      35.407 -24.950 -15.803  0.00  0.00    -0.269 OA
ATOM      2  N   UNL     1      34.221 -23.435 -14.513  0.00  0.00    -0.320 N 
ATOM      3  C   UNL     1      34.710 -23.943 -15.706  0.00  0.00    +0.263 C 
ATOM      4  H   UNL     1      33.668 -22.621 -14.532  0.00  0.00    +0.147 HD
ENDROOT
BRANCH   3   7
ATOM      5  N   UNL     1      35.331 -22.670 -17.619  0.00  0.00    -0.236 NA
ATOM      6  N   UNL     1      32.647 -22.440 -18.400  0.00  0.00    -0.239 NA
ATOM      7  C   UNL     1      34.322 -23.204 -16.934  0.00  0.00    +0.153 C 
ATOM      8  C   UNL     1      33.012 -23.108 -17.288  0.00  0.00    +0.123 C 
ATOM      9  C   UNL     1      34.967 -22.002 -18.732  0.00  0.00    +0.120 C 
ATOM     10  C   UNL     1      33.648 -21.888 -19.115  0.00  0.00    +0.120 C 
ENDBRANCH   3   7
BRANCH   2  11
ATOM     11  C   UNL     1      34.500 -24.064 -13.241  0.00  0.00    +0.016 C 
BRANCH  11  13
ATOM     12  O   UNL     1      38.265 -24.528 -11.447  0.00  0.00    -0.358 OA
ATOM     13  N   UNL     1      35.946 -24.108 -13.045  0.00  0.00    +0.402 N 
ATOM     14  C   UNL     1      36.380 -25.459 -12.658  0.00  0.00    -0.042 C 
ATOM     15  C   UNL     1      36.364 -23.135 -12.026  0.00  0.00    -0.042 C 
ATOM     16  C   UNL     1      37.891 -25.478 -12.446  0.00  0.00    +0.120 C 
ATOM     17  C   UNL     1      37.877 -23.209 -11.830  0.00  0.00    +0.120 C 
ATOM     18  H   UNL     1      36.390 -23.865 -13.930  0.00  0.00    -0.077 HD
ENDBRANCH  11  13
ENDBRANCH   2  11
TORSDOF 3
ENDMDL
MODEL 7
REMARK VINA RESULT:      -7.2      2.047      2.456
REMARK  Name = 70374
REMARK  3 active torsions:
REMARK  status: ('A' for Active; 'I' for Inactive)
REMARK    1  A    between atoms: N_2  and  C_11
REMARK    2  A    between atoms: C_3  and  C_7
REMARK    3  A    between atoms: C_11  and  N_13
REMARK                            x       y       z     vdW  Elec       q    Type
REMARK                         _______ _______ _______ _____ _____    ______ ____
ROOT
ATOM      1  O   UNL     1      34.980 -18.495 -24.528  0.00  0.00    -0.269 OA
ATOM      2  N   UNL     1      35.405 -17.369 -22.549  0.00  0.00    -0.320 N 
ATOM      3  C   UNL     1      34.904 -17.483 -23.835  0.00  0.00    +0.263 C 
ATOM      4  H   UNL     1      35.297 -16.517 -22.068  0.00  0.00    +0.147 HD
ENDROOT
BRANCH   3   7
ATOM      5  N   UNL     1      33.856 -16.356 -25.652  0.00  0.00    -0.236 NA
ATOM      6  N   UNL     1      33.351 -14.118 -24.038  0.00  0.00    -0.239 NA
ATOM      7  C   UNL     1      34.211 -16.283 -24.370  0.00  0.00    +0.153 C 
ATOM      8  C   UNL     1      33.980 -15.212 -23.565  0.00  0.00    +0.123 C 
ATOM      9  C   UNL     1      33.226 -15.262 -26.126  0.00  0.00    +0.120 C 
ATOM     10  C   UNL     1      32.980 -14.162 -25.333  0.00  0.00    +0.120 C 
ENDBRANCH   3   7
BRANCH   2  11
ATOM     11  C   UNL     1      36.085 -18.464 -21.892  0.00  0.00    +0.016 C 
BRANCH  11  13
ATOM     12  O   UNL     1      33.346 -20.684 -19.616  0.00  0.00    -0.358 OA
ATOM     13  N   UNL     1      35.095 -19.465 -21.502  0.00  0.00    +0.402 N 
ATOM     14  C   UNL     1      33.837 -18.825 -21.095  0.00  0.00    -0.042 C 
ATOM     15  C   UNL     1      35.607 -20.307 -20.412  0.00  0.00    -0.042 C 
ATOM     16  C   UNL     1      32.823 -19.889 -20.681  0.00  0.00    +0.120 C 
ATOM     17  C   UNL     1      34.552 -21.337 -20.014  0.00  0.00    +0.120 C 
ATOM     18  H   UNL     1      34.913 -20.057 -22.312  0.00  0.00    -0.077 HD
ENDBRANCH  11  13
ENDBRANCH   2  11
TORSDOF 3
ENDMDL
MODEL 8
REMARK VINA RESULT:      -7.1      9.911     10.968
REMARK  Name = 70374
REMARK  3 active torsions:
REMARK  status: ('A' for Active; 'I' for Inactive)
REMARK    1  A    between atoms: N_2  and  C_11
REMARK    2  A    between atoms: C_3  and  C_7
REMARK    3  A    between atoms: C_11  and  N_13
REMARK                            x       y       z     vdW  Elec       q    Type
REMARK                         _______ _______ _______ _____ _____    ______ ____
ROOT
ATOM      1  O   UNL     1      33.824 -24.432 -12.540  0.00  0.00    -0.269 OA
ATOM      2  N   UNL     1      34.433 -23.380 -14.513  0.00  0.00    -0.320 N 
ATOM      3  C   UNL     1      33.535 -23.983 -13.647  0.00  0.00    +0.263 C 
ATOM      4  H   UNL     1      34.110 -23.048 -15.381  0.00  0.00    +0.147 HD
ENDROOT
BRANCH   3   7
ATOM      5  N   UNL     1      31.592 -25.270 -14.138  0.00  0.00    -0.236 NA
ATOM      6  N   UNL     1      30.198 -22.962 -14.913  0.00  0.00    -0.239 NA
ATOM      7  C   UNL     1      32.127 -24.050 -14.116  0.00  0.00    +0.153 C 
ATOM      8  C   UNL     1      31.476 -22.915 -14.486  0.00  0.00    +0.123 C 
ATOM      9  C   UNL     1      30.314 -25.318 -14.564  0.00  0.00    +0.120 C 
ATOM     10  C   UNL     1      29.630 -24.184 -14.946  0.00  0.00    +0.120 C 
ENDBRANCH   3   7
BRANCH   2  11
ATOM     11  C   UNL     1      35.832 -23.225 -14.179  0.00  0.00    +0.016 C 
BRANCH  11  13
ATOM     12  O   UNL     1      38.489 -26.452 -13.811  0.00  0.00    -0.358 OA
ATOM     13  N   UNL     1      36.384 -24.536 -13.847  0.00  0.00    +0.402 N 
ATOM     14  C   UNL     1      37.530 -24.404 -12.935  0.00  0.00    -0.042 C 
ATOM     15  C   UNL     1      36.790 -25.254 -15.062  0.00  0.00    -0.042 C 
ATOM     16  C   UNL     1      38.098 -25.783 -12.612  0.00  0.00    +0.120 C 
ATOM     17  C   UNL     1      37.375 -26.615 -14.689  0.00  0.00    +0.120 C 
ATOM     18  H   UNL     1      35.655 -25.073 -13.378  0.00  0.00    -0.077 HD
ENDBRANCH  11  13
ENDBRANCH   2  11
TORSDOF 3
ENDMDL
MODEL 9
REMARK VINA RESULT:      -7.0      1.893      6.430
REMARK  Name = 70374
REMARK  3 active torsions:
REMARK  status: ('A' for Active; 'I' for Inactive)
REMARK    1  A    between atoms: N_2  and  C_11
REMARK    2  A    between atoms: C_3  and  C_7
REMARK    3  A    between atoms: C_11  and  N_13
REMARK                            x       y       z     vdW  Elec       q    Type
REMARK                         _______ _______ _______ _____ _____    ______ ____
ROOT
ATOM      1  O   UNL     1      34.030 -19.598 -22.237  0.00  0.00    -0.269 OA
ATOM      2  N   UNL     1      35.495 -18.492 -20.824  0.00  0.00    -0.320 N 
ATOM      3  C   UNL     1      34.639 -19.524 -21.173  0.00  0.00    +0.263 C 
ATOM      4  H   UNL     1      35.942 -18.517 -19.948  0.00  0.00    +0.147 HD
ENDROOT
BRANCH   3   7
ATOM      5  N   UNL     1      33.239 -20.913 -19.838  0.00  0.00    -0.236 NA
ATOM      6  N   UNL     1      35.477 -22.211 -18.753  0.00  0.00    -0.239 NA
ATOM      7  C   UNL     1      34.493 -20.612 -20.171  0.00  0.00    +0.153 C 
ATOM      8  C   UNL     1      35.596 -21.223 -19.661  0.00  0.00    +0.123 C 
ATOM      9  C   UNL     1      33.119 -21.902 -18.930  0.00  0.00    +0.120 C 
ATOM     10  C   UNL     1      34.219 -22.539 -18.396  0.00  0.00    +0.120 C 
ENDBRANCH   3   7
BRANCH   2  11
ATOM     11  C   UNL     1      35.751 -17.377 -21.710  0.00  0.00    +0.016 C 
BRANCH  11  13
ATOM     12  O   UNL     1      33.236 -14.021 -21.872  0.00  0.00    -0.358 OA
ATOM     13  N   UNL     1      34.554 -16.543 -21.775  0.00  0.00    +0.402 N 
ATOM     14  C   UNL     1      34.556 -15.720 -22.993  0.00  0.00    -0.042 C 
ATOM     15  C   UNL     1      34.452 -15.683 -20.588  0.00  0.00    -0.042 C 
ATOM     16  C   UNL     1      33.303 -14.849 -23.033  0.00  0.00    +0.120 C 
ATOM     17  C   UNL     1      33.200 -14.814 -20.684  0.00  0.00    +0.120 C 
ATOM     18  H   UNL     1      33.743 -17.161 -21.801  0.00  0.00    -0.077 HD
ENDBRANCH  11  13
ENDBRANCH   2  11
TORSDOF 3
ENDMDL
