MODEL 1
REMARK VINA RESULT:      -9.5      0.000      0.000
REMARK  Name = 44187362
REMARK  8 active torsions:
REMARK  status: ('A' for Active; 'I' for Inactive)
REMARK    1  A    between atoms: C_2  and  C_9
REMARK    2  A    between atoms: C_3  and  N_18
REMARK    3  A    between atoms: N_8  and  C_11
REMARK    4  A    between atoms: C_11  and  C_12
REMARK    5  A    between atoms: C_12  and  O_13
REMARK    6  A    between atoms: C_12  and  C_15
REMARK    7  A    between atoms: C_15  and  O_16
REMARK    8  A    between atoms: N_18  and  C_22
REMARK                            x       y       z     vdW  Elec       q    Type
REMARK                         _______ _______ _______ _____ _____    ______ ____
ROOT
ATOM      1  N   UNL     1      31.289 -23.281 -15.999  0.00  0.00    -0.241 NA
ATOM      2  C   UNL     1      34.074 -23.179 -15.790  0.00  0.00    +0.070 C 
ATOM      3  C   UNL     1      33.464 -23.095 -17.037  0.00  0.00    +0.072 C 
ATOM      4  C   UNL     1      33.294 -23.313 -14.648  0.00  0.00    +0.026 C 
ATOM      5  C   UNL     1      32.080 -23.152 -17.087  0.00  0.00    +0.114 C 
ATOM      6  C   UNL     1      31.917 -23.359 -14.804  0.00  0.00    +0.099 C 
ENDROOT
BRANCH   2   9
ATOM      7  O   UNL     1      36.140 -22.072 -15.871  0.00  0.00    -0.270 OA
ATOM      8  N   UNL     1      36.168 -24.303 -15.235  0.00  0.00    -0.298 N 
ATOM      9  C   UNL     1      35.552 -23.126 -15.647  0.00  0.00    +0.247 C 
ATOM     10  H   UNL     1      35.610 -25.099 -15.079  0.00  0.00    +0.150 HD
BRANCH   8  11
ATOM     11  C   UNL     1      37.587 -24.403 -15.027  0.00  0.00    +0.122 C 
BRANCH  11  12
ATOM     12  C   UNL     1      38.034 -25.813 -14.646  0.00  0.00    +0.159 C 
BRANCH  12  13
ATOM     13  O   UNL     1      39.162 -26.188 -15.438  0.00  0.00    -0.380 OA
ATOM     14  H   UNL     1      39.856 -26.546 -14.864  0.00  0.00    +0.211 HD
ENDBRANCH  12  13
BRANCH  12  15
ATOM     15  C   UNL     1      36.943 -26.862 -14.838  0.00  0.00    +0.168 C 
BRANCH  15  16
ATOM     16  O   UNL     1      36.833 -27.162 -16.226  0.00  0.00    -0.379 OA
ATOM     17  H   UNL     1      37.361 -27.950 -16.428  0.00  0.00    +0.211 HD
ENDBRANCH  15  16
ENDBRANCH  12  15
ENDBRANCH  11  12
ENDBRANCH   8  11
ENDBRANCH   2   9
BRANCH   3  18
ATOM     18  N   UNL     1      34.210 -22.958 -18.222  0.00  0.00    -0.309 N 
ATOM     19  H   UNL     1      34.674 -23.783 -18.493  0.00  0.00    +0.152 HD
BRANCH  18  22
ATOM     20  I   UNL     1      35.159 -18.132 -22.124  0.00  0.00    -0.042 I 
ATOM     21  F   UNL     1      36.775 -22.046 -18.800  0.00  0.00    -0.203 F 
ATOM     22  C   UNL     1      34.425 -21.873 -19.098  0.00  0.00    +0.076 C 
ATOM     23  C   UNL     1      35.723 -21.439 -19.368  0.00  0.00    +0.154 C 
ATOM     24  C   UNL     1      33.337 -21.235 -19.695  0.00  0.00    +0.017 C 
ATOM     25  C   UNL     1      35.933 -20.366 -20.235  0.00  0.00    +0.037 C 
ATOM     26  C   UNL     1      33.548 -20.163 -20.562  0.00  0.00    +0.007 C 
ATOM     27  C   UNL     1      34.846 -19.728 -20.831  0.00  0.00    +0.032 C 
ENDBRANCH  18  22
ENDBRANCH   3  18
TORSDOF 8
ENDMDL
MODEL 2
REMARK VINA RESULT:      -9.4      2.180      2.369
REMARK  Name = 44187362
REMARK  8 active torsions:
REMARK  status: ('A' for Active; 'I' for Inactive)
REMARK    1  A    between atoms: C_2  and  C_9
REMARK    2  A    between atoms: C_3  and  N_18
REMARK    3  A    between atoms: N_8  and  C_11
REMARK    4  A    between atoms: C_11  and  C_12
REMARK    5  A    between atoms: C_12  and  O_13
REMARK    6  A    between atoms: C_12  and  C_15
REMARK    7  A    between atoms: C_15  and  O_16
REMARK    8  A    between atoms: N_18  and  C_22
REMARK                            x       y       z     vdW  Elec       q    Type
REMARK                         _______ _______ _______ _____ _____    ______ ____
ROOT
ATOM      1  N   UNL     1      30.951 -23.047 -16.089  0.00  0.00    -0.241 NA
ATOM      2  C   UNL     1      33.638 -23.484 -15.453  0.00  0.00    +0.070 C 
ATOM      3  C   UNL     1      33.272 -23.164 -16.756  0.00  0.00    +0.072 C 
ATOM      4  C   UNL     1      32.663 -23.586 -14.468  0.00  0.00    +0.026 C 
ATOM      5  C   UNL     1      31.927 -22.958 -17.020  0.00  0.00    +0.114 C 
ATOM      6  C   UNL     1      31.345 -23.361 -14.833  0.00  0.00    +0.099 C 
ENDROOT
BRANCH   2   9
ATOM      7  O   UNL     1      35.736 -24.481 -15.769  0.00  0.00    -0.270 OA
ATOM      8  N   UNL     1      35.524 -23.027 -13.974  0.00  0.00    -0.298 N 
ATOM      9  C   UNL     1      35.057 -23.722 -15.083  0.00  0.00    +0.247 C 
ATOM     10  H   UNL     1      34.901 -22.439 -13.488  0.00  0.00    +0.150 HD
BRANCH   8  11
ATOM     11  C   UNL     1      36.880 -23.132 -13.507  0.00  0.00    +0.122 C 
BRANCH  11  12
ATOM     12  C   UNL     1      36.992 -23.072 -11.985  0.00  0.00    +0.159 C 
BRANCH  12  13
ATOM     13  O   UNL     1      38.369 -23.086 -11.606  0.00  0.00    -0.380 OA
ATOM     14  H   UNL     1      38.467 -22.684 -10.729  0.00  0.00    +0.211 HD
ENDBRANCH  12  13
BRANCH  12  15
ATOM     15  C   UNL     1      36.289 -24.231 -11.284  0.00  0.00    +0.168 C 
BRANCH  15  16
ATOM     16  O   UNL     1      36.361 -24.028  -9.877  0.00  0.00    -0.379 OA
ATOM     17  H   UNL     1      37.242 -23.695  -9.643  0.00  0.00    +0.211 HD
ENDBRANCH  15  16
ENDBRANCH  12  15
ENDBRANCH  11  12
ENDBRANCH   8  11
ENDBRANCH   2   9
BRANCH   3  18
ATOM     18  N   UNL     1      34.222 -23.049 -17.788  0.00  0.00    -0.309 N 
ATOM     19  H   UNL     1      34.829 -23.820 -17.853  0.00  0.00    +0.152 HD
BRANCH  18  22
ATOM     20  I   UNL     1      35.346 -18.588 -22.061  0.00  0.00    -0.042 I 
ATOM     21  F   UNL     1      36.809 -22.176 -18.324  0.00  0.00    -0.203 F 
ATOM     22  C   UNL     1      34.476 -22.046 -18.747  0.00  0.00    +0.076 C 
ATOM     23  C   UNL     1      35.784 -21.630 -18.994  0.00  0.00    +0.154 C 
ATOM     24  C   UNL     1      33.417 -21.471 -19.450  0.00  0.00    +0.017 C 
ATOM     25  C   UNL     1      36.033 -20.638 -19.943  0.00  0.00    +0.037 C 
ATOM     26  C   UNL     1      33.666 -20.481 -20.400  0.00  0.00    +0.007 C 
ATOM     27  C   UNL     1      34.975 -20.064 -20.646  0.00  0.00    +0.032 C 
ENDBRANCH  18  22
ENDBRANCH   3  18
TORSDOF 8
ENDMDL
MODEL 3
REMARK VINA RESULT:      -9.0      6.864     10.631
REMARK  Name = 44187362
REMARK  8 active torsions:
REMARK  status: ('A' for Active; 'I' for Inactive)
REMARK    1  A    between atoms: C_2  and  C_9
REMARK    2  A    between atoms: C_3  and  N_18
REMARK    3  A    between atoms: N_8  and  C_11
REMARK    4  A    between atoms: C_11  and  C_12
REMARK    5  A    between atoms: C_12  and  O_13
REMARK    6  A    between atoms: C_12  and  C_15
REMARK    7  A    between atoms: C_15  and  O_16
REMARK    8  A    between atoms: N_18  and  C_22
REMARK                            x       y       z     vdW  Elec       q    Type
REMARK                         _______ _______ _______ _____ _____    ______ ____
ROOT
ATOM      1  N   UNL     1      34.378 -16.774 -25.833  0.00  0.00    -0.241 NA
ATOM      2  C   UNL     1      34.038 -15.596 -23.321  0.00  0.00    +0.070 C 
ATOM      3  C   UNL     1      34.799 -16.754 -23.452  0.00  0.00    +0.072 C 
ATOM      4  C   UNL     1      33.449 -15.027 -24.443  0.00  0.00    +0.026 C 
ATOM      5  C   UNL     1      34.936 -17.299 -24.719  0.00  0.00    +0.114 C 
ATOM      6  C   UNL     1      33.647 -15.649 -25.666  0.00  0.00    +0.099 C 
ENDROOT
BRANCH   2   9
ATOM      7  O   UNL     1      34.780 -14.891 -21.211  0.00  0.00    -0.270 OA
ATOM      8  N   UNL     1      32.577 -14.418 -21.762  0.00  0.00    -0.298 N 
ATOM      9  C   UNL     1      33.840 -14.947 -21.999  0.00  0.00    +0.247 C 
ATOM     10  H   UNL     1      31.887 -14.513 -22.458  0.00  0.00    +0.150 HD
BRANCH   8  11
ATOM     11  C   UNL     1      32.238 -13.737 -20.542  0.00  0.00    +0.122 C 
BRANCH  11  12
ATOM     12  C   UNL     1      32.199 -12.218 -20.698  0.00  0.00    +0.159 C 
BRANCH  12  13
ATOM     13  O   UNL     1      31.466 -11.645 -19.615  0.00  0.00    -0.380 OA
ATOM     14  H   UNL     1      30.756 -12.250 -19.349  0.00  0.00    +0.211 HD
ENDBRANCH  12  13
BRANCH  12  15
ATOM     15  C   UNL     1      31.558 -11.765 -22.006  0.00  0.00    +0.168 C 
BRANCH  15  16
ATOM     16  O   UNL     1      32.579 -11.600 -22.986  0.00  0.00    -0.379 OA
ATOM     17  H   UNL     1      32.506 -12.303 -23.649  0.00  0.00    +0.211 HD
ENDBRANCH  15  16
ENDBRANCH  12  15
ENDBRANCH  11  12
ENDBRANCH   8  11
ENDBRANCH   2   9
BRANCH   3  18
ATOM     18  N   UNL     1      35.416 -17.367 -22.347  0.00  0.00    -0.309 N 
ATOM     19  H   UNL     1      36.236 -16.912 -22.051  0.00  0.00    +0.152 HD
BRANCH  18  22
ATOM     20  I   UNL     1      33.961 -22.429 -18.929  0.00  0.00    -0.042 I 
ATOM     21  F   UNL     1      37.389 -18.933 -21.166  0.00  0.00    -0.203 F 
ATOM     22  C   UNL     1      35.090 -18.506 -21.580  0.00  0.00    +0.076 C 
ATOM     23  C   UNL     1      36.103 -19.271 -20.999  0.00  0.00    +0.154 C 
ATOM     24  C   UNL     1      33.754 -18.865 -21.400  0.00  0.00    +0.017 C 
ATOM     25  C   UNL     1      35.778 -20.395 -20.240  0.00  0.00    +0.037 C 
ATOM     26  C   UNL     1      33.431 -19.989 -20.640  0.00  0.00    +0.007 C 
ATOM     27  C   UNL     1      34.443 -20.755 -20.061  0.00  0.00    +0.032 C 
ENDBRANCH  18  22
ENDBRANCH   3  18
TORSDOF 8
ENDMDL
MODEL 4
REMARK VINA RESULT:      -8.8      2.734      4.480
REMARK  Name = 44187362
REMARK  8 active torsions:
REMARK  status: ('A' for Active; 'I' for Inactive)
REMARK    1  A    between atoms: C_2  and  C_9
REMARK    2  A    between atoms: C_3  and  N_18
REMARK    3  A    between atoms: N_8  and  C_11
REMARK    4  A    between atoms: C_11  and  C_12
REMARK    5  A    between atoms: C_12  and  O_13
REMARK    6  A    between atoms: C_12  and  C_15
REMARK    7  A    between atoms: C_15  and  O_16
REMARK    8  A    between atoms: N_18  and  C_22
REMARK                            x       y       z     vdW  Elec       q    Type
REMARK                         _______ _______ _______ _____ _____    ______ ____
ROOT
ATOM      1  N   UNL     1      37.468 -22.028 -16.024  0.00  0.00    -0.241 NA
ATOM      2  C   UNL     1      34.913 -22.866 -16.787  0.00  0.00    +0.070 C 
ATOM      3  C   UNL     1      35.757 -22.264 -17.715  0.00  0.00    +0.072 C 
ATOM      4  C   UNL     1      35.346 -23.050 -15.480  0.00  0.00    +0.026 C 
ATOM      5  C   UNL     1      37.013 -21.866 -17.286  0.00  0.00    +0.114 C 
ATOM      6  C   UNL     1      36.621 -22.618 -15.150  0.00  0.00    +0.099 C 
ENDROOT
BRANCH   2   9
ATOM      7  O   UNL     1      33.369 -23.826 -18.268  0.00  0.00    -0.270 OA
ATOM      8  N   UNL     1      32.564 -23.160 -16.196  0.00  0.00    -0.298 N 
ATOM      9  C   UNL     1      33.550 -23.323 -17.163  0.00  0.00    +0.247 C 
ATOM     10  H   UNL     1      32.808 -22.744 -15.338  0.00  0.00    +0.150 HD
BRANCH   8  11
ATOM     11  C   UNL     1      31.203 -23.575 -16.401  0.00  0.00    +0.122 C 
BRANCH  11  12
ATOM     12  C   UNL     1      30.670 -24.448 -15.266  0.00  0.00    +0.159 C 
BRANCH  12  13
ATOM     13  O   UNL     1      29.329 -24.065 -14.958  0.00  0.00    -0.380 OA
ATOM     14  H   UNL     1      29.340 -23.340 -14.313  0.00  0.00    +0.211 HD
ENDBRANCH  12  13
BRANCH  12  15
ATOM     15  C   UNL     1      31.503 -24.350 -13.992  0.00  0.00    +0.168 C 
BRANCH  15  16
ATOM     16  O   UNL     1      32.382 -25.469 -13.930  0.00  0.00    -0.379 OA
ATOM     17  H   UNL     1      32.463 -25.864 -14.812  0.00  0.00    +0.211 HD
ENDBRANCH  15  16
ENDBRANCH  12  15
ENDBRANCH  11  12
ENDBRANCH   8  11
ENDBRANCH   2   9
BRANCH   3  18
ATOM     18  N   UNL     1      35.365 -22.056 -19.050  0.00  0.00    -0.309 N 
ATOM     19  H   UNL     1      35.119 -22.883 -19.522  0.00  0.00    +0.152 HD
BRANCH  18  22
ATOM     20  I   UNL     1      34.890 -16.890 -22.587  0.00  0.00    -0.042 I 
ATOM     21  F   UNL     1      32.887 -21.036 -19.798  0.00  0.00    -0.203 F 
ATOM     22  C   UNL     1      35.257 -20.896 -19.846  0.00  0.00    +0.076 C 
ATOM     23  C   UNL     1      34.000 -20.408 -20.203  0.00  0.00    +0.154 C 
ATOM     24  C   UNL     1      36.409 -20.235 -20.273  0.00  0.00    +0.017 C 
ATOM     25  C   UNL     1      33.895 -19.260 -20.989  0.00  0.00    +0.037 C 
ATOM     26  C   UNL     1      36.304 -19.087 -21.058  0.00  0.00    +0.007 C 
ATOM     27  C   UNL     1      35.046 -18.600 -21.417  0.00  0.00    +0.032 C 
ENDBRANCH  18  22
ENDBRANCH   3  18
TORSDOF 8
ENDMDL
MODEL 5
REMARK VINA RESULT:      -8.7      9.599     12.578
REMARK  Name = 44187362
REMARK  8 active torsions:
REMARK  status: ('A' for Active; 'I' for Inactive)
REMARK    1  A    between atoms: C_2  and  C_9
REMARK    2  A    between atoms: C_3  and  N_18
REMARK    3  A    between atoms: N_8  and  C_11
REMARK    4  A    between atoms: C_11  and  C_12
REMARK    5  A    between atoms: C_12  and  O_13
REMARK    6  A    between atoms: C_12  and  C_15
REMARK    7  A    between atoms: C_15  and  O_16
REMARK    8  A    between atoms: N_18  and  C_22
REMARK                            x       y       z     vdW  Elec       q    Type
REMARK                         _______ _______ _______ _____ _____    ______ ____
ROOT
ATOM      1  N   UNL     1      33.372 -13.155 -27.196  0.00  0.00    -0.241 NA
ATOM      2  C   UNL     1      33.421 -13.936 -24.513  0.00  0.00    +0.070 C 
ATOM      3  C   UNL     1      33.741 -12.629 -24.866  0.00  0.00    +0.072 C 
ATOM      4  C   UNL     1      33.077 -14.852 -25.500  0.00  0.00    +0.026 C 
ATOM      5  C   UNL     1      33.702 -12.292 -26.209  0.00  0.00    +0.114 C 
ATOM      6  C   UNL     1      33.067 -14.416 -26.816  0.00  0.00    +0.099 C 
ENDROOT
BRANCH   2   9
ATOM      7  O   UNL     1      32.606 -13.929 -22.315  0.00  0.00    -0.270 OA
ATOM      8  N   UNL     1      34.408 -15.320 -22.762  0.00  0.00    -0.298 N 
ATOM      9  C   UNL     1      33.438 -14.382 -23.096  0.00  0.00    +0.247 C 
ATOM     10  H   UNL     1      35.033 -15.622 -23.460  0.00  0.00    +0.150 HD
BRANCH   8  11
ATOM     11  C   UNL     1      34.535 -15.865 -21.437  0.00  0.00    +0.122 C 
BRANCH  11  12
ATOM     12  C   UNL     1      34.574 -17.393 -21.424  0.00  0.00    +0.159 C 
BRANCH  12  13
ATOM     13  O   UNL     1      35.630 -17.836 -20.571  0.00  0.00    -0.380 OA
ATOM     14  H   UNL     1      35.634 -17.305 -19.759  0.00  0.00    +0.211 HD
ENDBRANCH  12  13
BRANCH  12  15
ATOM     15  C   UNL     1      34.788 -18.000 -22.808  0.00  0.00    +0.168 C 
BRANCH  15  16
ATOM     16  O   UNL     1      36.142 -17.791 -23.197  0.00  0.00    -0.379 OA
ATOM     17  H   UNL     1      36.639 -17.424 -22.450  0.00  0.00    +0.211 HD
ENDBRANCH  15  16
ENDBRANCH  12  15
ENDBRANCH  11  12
ENDBRANCH   8  11
ENDBRANCH   2   9
BRANCH   3  18
ATOM     18  N   UNL     1      34.095 -11.666 -23.904  0.00  0.00    -0.309 N 
ATOM     19  H   UNL     1      34.882 -11.914 -23.368  0.00  0.00    +0.152 HD
BRANCH  18  22
ATOM     20  I   UNL     1      31.641  -6.097 -22.357  0.00  0.00    -0.042 I 
ATOM     21  F   UNL     1      35.424  -9.288 -24.476  0.00  0.00    -0.203 F 
ATOM     22  C   UNL     1      33.546 -10.414 -23.556  0.00  0.00    +0.076 C 
ATOM     23  C   UNL     1      34.236  -9.239 -23.857  0.00  0.00    +0.154 C 
ATOM     24  C   UNL     1      32.310 -10.351 -22.912  0.00  0.00    +0.017 C 
ATOM     25  C   UNL     1      33.690  -8.002 -23.513  0.00  0.00    +0.037 C 
ATOM     26  C   UNL     1      31.764  -9.114 -22.569  0.00  0.00    +0.007 C 
ATOM     27  C   UNL     1      32.455  -7.940 -22.869  0.00  0.00    +0.032 C 
ENDBRANCH  18  22
ENDBRANCH   3  18
TORSDOF 8
ENDMDL
MODEL 6
REMARK VINA RESULT:      -8.7      1.617      2.112
REMARK  Name = 44187362
REMARK  8 active torsions:
REMARK  status: ('A' for Active; 'I' for Inactive)
REMARK    1  A    between atoms: C_2  and  C_9
REMARK    2  A    between atoms: C_3  and  N_18
REMARK    3  A    between atoms: N_8  and  C_11
REMARK    4  A    between atoms: C_11  and  C_12
REMARK    5  A    between atoms: C_12  and  O_13
REMARK    6  A    between atoms: C_12  and  C_15
REMARK    7  A    between atoms: C_15  and  O_16
REMARK    8  A    between atoms: N_18  and  C_22
REMARK                            x       y       z     vdW  Elec       q    Type
REMARK                         _______ _______ _______ _____ _____    ______ ____
ROOT
ATOM      1  N   UNL     1      31.397 -22.857 -15.191  0.00  0.00    -0.241 NA
ATOM      2  C   UNL     1      34.019 -23.801 -15.405  0.00  0.00    +0.070 C 
ATOM      3  C   UNL     1      33.350 -23.335 -16.533  0.00  0.00    +0.072 C 
ATOM      4  C   UNL     1      33.379 -23.794 -14.172  0.00  0.00    +0.026 C 
ATOM      5  C   UNL     1      32.052 -22.879 -16.374  0.00  0.00    +0.114 C 
ATOM      6  C   UNL     1      32.079 -23.316 -14.118  0.00  0.00    +0.099 C 
ENDROOT
BRANCH   2   9
ATOM      7  O   UNL     1      36.288 -23.586 -15.955  0.00  0.00    -0.270 OA
ATOM      8  N   UNL     1      35.627 -25.589 -14.990  0.00  0.00    -0.298 N 
ATOM      9  C   UNL     1      35.413 -24.308 -15.486  0.00  0.00    +0.247 C 
ATOM     10  H   UNL     1      34.859 -26.092 -14.634  0.00  0.00    +0.150 HD
BRANCH   8  11
ATOM     11  C   UNL     1      36.925 -26.208 -14.976  0.00  0.00    +0.122 C 
BRANCH  11  12
ATOM     12  C   UNL     1      37.492 -26.370 -13.567  0.00  0.00    +0.159 C 
BRANCH  12  13
ATOM     13  O   UNL     1      36.476 -26.077 -12.607  0.00  0.00    -0.380 OA
ATOM     14  H   UNL     1      36.239 -25.138 -12.664  0.00  0.00    +0.211 HD
ENDBRANCH  12  13
BRANCH  12  15
ATOM     15  C   UNL     1      38.688 -25.463 -13.293  0.00  0.00    +0.168 C 
BRANCH  15  16
ATOM     16  O   UNL     1      38.521 -24.250 -14.021  0.00  0.00    -0.379 OA
ATOM     17  H   UNL     1      37.818 -24.364 -14.680  0.00  0.00    +0.211 HD
ENDBRANCH  15  16
ENDBRANCH  12  15
ENDBRANCH  11  12
ENDBRANCH   8  11
ENDBRANCH   2   9
BRANCH   3  18
ATOM     18  N   UNL     1      33.956 -23.322 -17.803  0.00  0.00    -0.309 N 
ATOM     19  H   UNL     1      34.128 -24.219 -18.167  0.00  0.00    +0.152 HD
BRANCH  18  22
ATOM     20  I   UNL     1      35.778 -18.665 -21.599  0.00  0.00    -0.042 I 
ATOM     21  F   UNL     1      32.103 -21.759 -19.170  0.00  0.00    -0.203 F 
ATOM     22  C   UNL     1      34.363 -22.276 -18.657  0.00  0.00    +0.076 C 
ATOM     23  C   UNL     1      33.410 -21.509 -19.328  0.00  0.00    +0.154 C 
ATOM     24  C   UNL     1      35.722 -22.007 -18.828  0.00  0.00    +0.017 C 
ATOM     25  C   UNL     1      33.816 -20.475 -20.171  0.00  0.00    +0.037 C 
ATOM     26  C   UNL     1      36.127 -20.972 -19.671  0.00  0.00    +0.007 C 
ATOM     27  C   UNL     1      35.174 -20.206 -20.343  0.00  0.00    +0.032 C 
ENDBRANCH  18  22
ENDBRANCH   3  18
TORSDOF 8
ENDMDL
MODEL 7
REMARK VINA RESULT:      -8.6      3.341      5.604
REMARK  Name = 44187362
REMARK  8 active torsions:
REMARK  status: ('A' for Active; 'I' for Inactive)
REMARK    1  A    between atoms: C_2  and  C_9
REMARK    2  A    between atoms: C_3  and  N_18
REMARK    3  A    between atoms: N_8  and  C_11
REMARK    4  A    between atoms: C_11  and  C_12
REMARK    5  A    between atoms: C_12  and  O_13
REMARK    6  A    between atoms: C_12  and  C_15
REMARK    7  A    between atoms: C_15  and  O_16
REMARK    8  A    between atoms: N_18  and  C_22
REMARK                            x       y       z     vdW  Elec       q    Type
REMARK                         _______ _______ _______ _____ _____    ______ ____
ROOT
ATOM      1  N   UNL     1      35.183 -23.524 -15.167  0.00  0.00    -0.241 NA
ATOM      2  C   UNL     1      32.564 -23.199 -16.086  0.00  0.00    +0.070 C 
ATOM      3  C   UNL     1      33.630 -23.123 -16.975  0.00  0.00    +0.072 C 
ATOM      4  C   UNL     1      32.806 -23.437 -14.738  0.00  0.00    +0.026 C 
ATOM      5  C   UNL     1      34.910 -23.291 -16.470  0.00  0.00    +0.114 C 
ATOM      6  C   UNL     1      34.122 -23.592 -14.332  0.00  0.00    +0.099 C 
ENDROOT
BRANCH   2   9
ATOM      7  O   UNL     1      30.900 -22.164 -17.373  0.00  0.00    -0.270 OA
ATOM      8  N   UNL     1      30.231 -23.909 -15.998  0.00  0.00    -0.298 N 
ATOM      9  C   UNL     1      31.160 -23.031 -16.543  0.00  0.00    +0.247 C 
ATOM     10  H   UNL     1      30.537 -24.572 -15.338  0.00  0.00    +0.150 HD
BRANCH   8  11
ATOM     11  C   UNL     1      28.839 -23.888 -16.360  0.00  0.00    +0.122 C 
BRANCH  11  12
ATOM     12  C   UNL     1      28.294 -22.472 -16.542  0.00  0.00    +0.159 C 
BRANCH  12  13
ATOM     13  O   UNL     1      27.791 -21.991 -15.295  0.00  0.00    -0.380 OA
ATOM     14  H   UNL     1      26.826 -21.903 -15.347  0.00  0.00    +0.211 HD
ENDBRANCH  12  13
BRANCH  12  15
ATOM     15  C   UNL     1      27.175 -22.388 -17.576  0.00  0.00    +0.168 C 
BRANCH  15  16
ATOM     16  O   UNL     1      26.595 -21.088 -17.520  0.00  0.00    -0.379 OA
ATOM     17  H   UNL     1      26.585 -20.701 -18.410  0.00  0.00    +0.211 HD
ENDBRANCH  15  16
ENDBRANCH  12  15
ENDBRANCH  11  12
ENDBRANCH   8  11
ENDBRANCH   2   9
BRANCH   3  18
ATOM     18  N   UNL     1      33.437 -22.884 -18.348  0.00  0.00    -0.309 N 
ATOM     19  H   UNL     1      32.962 -23.611 -18.812  0.00  0.00    +0.152 HD
BRANCH  18  22
ATOM     20  I   UNL     1      35.000 -18.104 -22.106  0.00  0.00    -0.042 I 
ATOM     21  F   UNL     1      36.097 -22.295 -18.911  0.00  0.00    -0.203 F 
ATOM     22  C   UNL     1      33.790 -21.810 -19.191  0.00  0.00    +0.076 C 
ATOM     23  C   UNL     1      35.133 -21.540 -19.455  0.00  0.00    +0.154 C 
ATOM     24  C   UNL     1      32.794 -21.018 -19.763  0.00  0.00    +0.017 C 
ATOM     25  C   UNL     1      35.479 -20.477 -20.290  0.00  0.00    +0.037 C 
ATOM     26  C   UNL     1      33.141 -19.956 -20.599  0.00  0.00    +0.007 C 
ATOM     27  C   UNL     1      34.484 -19.685 -20.861  0.00  0.00    +0.032 C 
ENDBRANCH  18  22
ENDBRANCH   3  18
TORSDOF 8
ENDMDL
MODEL 8
REMARK VINA RESULT:      -8.2      3.308      6.246
REMARK  Name = 44187362
REMARK  8 active torsions:
REMARK  status: ('A' for Active; 'I' for Inactive)
REMARK    1  A    between atoms: C_2  and  C_9
REMARK    2  A    between atoms: C_3  and  N_18
REMARK    3  A    between atoms: N_8  and  C_11
REMARK    4  A    between atoms: C_11  and  C_12
REMARK    5  A    between atoms: C_12  and  O_13
REMARK    6  A    between atoms: C_12  and  C_15
REMARK    7  A    between atoms: C_15  and  O_16
REMARK    8  A    between atoms: N_18  and  C_22
REMARK                            x       y       z     vdW  Elec       q    Type
REMARK                         _______ _______ _______ _____ _____    ______ ____
ROOT
ATOM      1  N   UNL     1      30.609 -23.645 -14.034  0.00  0.00    -0.241 NA
ATOM      2  C   UNL     1      32.257 -23.338 -16.271  0.00  0.00    +0.070 C 
ATOM      3  C   UNL     1      32.747 -23.059 -14.999  0.00  0.00    +0.072 C 
ATOM      4  C   UNL     1      30.946 -23.770 -16.425  0.00  0.00    +0.026 C 
ATOM      5  C   UNL     1      31.890 -23.227 -13.923  0.00  0.00    +0.114 C 
ATOM      6  C   UNL     1      30.168 -23.906 -15.286  0.00  0.00    +0.099 C 
ENDROOT
BRANCH   2   9
ATOM      7  O   UNL     1      34.075 -23.928 -17.630  0.00  0.00    -0.270 OA
ATOM      8  N   UNL     1      32.720 -22.200 -18.379  0.00  0.00    -0.298 N 
ATOM      9  C   UNL     1      33.109 -23.185 -17.479  0.00  0.00    +0.247 C 
ATOM     10  H   UNL     1      31.929 -21.653 -18.169  0.00  0.00    +0.150 HD
BRANCH   8  11
ATOM     11  C   UNL     1      33.428 -21.948 -19.606  0.00  0.00    +0.122 C 
BRANCH  11  12
ATOM     12  C   UNL     1      33.359 -20.486 -20.042  0.00  0.00    +0.159 C 
BRANCH  12  13
ATOM     13  O   UNL     1      32.338 -20.329 -21.029  0.00  0.00    -0.380 OA
ATOM     14  H   UNL     1      31.834 -19.521 -20.847  0.00  0.00    +0.211 HD
ENDBRANCH  12  13
BRANCH  12  15
ATOM     15  C   UNL     1      34.672 -19.971 -20.624  0.00  0.00    +0.168 C 
BRANCH  15  16
ATOM     16  O   UNL     1      35.746 -20.418 -19.802  0.00  0.00    -0.379 OA
ATOM     17  H   UNL     1      35.767 -19.894 -18.986  0.00  0.00    +0.211 HD
ENDBRANCH  15  16
ENDBRANCH  12  15
ENDBRANCH  11  12
ENDBRANCH   8  11
ENDBRANCH   2   9
BRANCH   3  18
ATOM     18  N   UNL     1      34.067 -22.620 -14.791  0.00  0.00    -0.309 N 
ATOM     19  H   UNL     1      34.148 -21.644 -14.698  0.00  0.00    +0.152 HD
BRANCH  18  22
ATOM     20  I   UNL     1      39.542 -25.658 -14.329  0.00  0.00    -0.042 I 
ATOM     21  F   UNL     1      36.311 -21.784 -16.208  0.00  0.00    -0.203 F 
ATOM     22  C   UNL     1      35.298 -23.302 -14.689  0.00  0.00    +0.076 C 
ATOM     23  C   UNL     1      36.406 -22.858 -15.412  0.00  0.00    +0.154 C 
ATOM     24  C   UNL     1      35.407 -24.421 -13.863  0.00  0.00    +0.017 C 
ATOM     25  C   UNL     1      37.622 -23.534 -15.308  0.00  0.00    +0.037 C 
ATOM     26  C   UNL     1      36.623 -25.096 -13.759  0.00  0.00    +0.007 C 
ATOM     27  C   UNL     1      37.730 -24.653 -14.483  0.00  0.00    +0.032 C 
ENDBRANCH  18  22
ENDBRANCH   3  18
TORSDOF 8
ENDMDL
MODEL 9
REMARK VINA RESULT:      -8.1      3.623      6.041
REMARK  Name = 44187362
REMARK  8 active torsions:
REMARK  status: ('A' for Active; 'I' for Inactive)
REMARK    1  A    between atoms: C_2  and  C_9
REMARK    2  A    between atoms: C_3  and  N_18
REMARK    3  A    between atoms: N_8  and  C_11
REMARK    4  A    between atoms: C_11  and  C_12
REMARK    5  A    between atoms: C_12  and  O_13
REMARK    6  A    between atoms: C_12  and  C_15
REMARK    7  A    between atoms: C_15  and  O_16
REMARK    8  A    between atoms: N_18  and  C_22
REMARK                            x       y       z     vdW  Elec       q    Type
REMARK                         _______ _______ _______ _____ _____    ______ ____
ROOT
ATOM      1  N   UNL     1      35.676 -23.799 -10.911  0.00  0.00    -0.241 NA
ATOM      2  C   UNL     1      36.223 -23.726 -13.651  0.00  0.00    +0.070 C 
ATOM      3  C   UNL     1      35.037 -24.289 -13.190  0.00  0.00    +0.072 C 
ATOM      4  C   UNL     1      37.134 -23.200 -12.744  0.00  0.00    +0.026 C 
ATOM      5  C   UNL     1      34.814 -24.301 -11.823  0.00  0.00    +0.114 C 
ATOM      6  C   UNL     1      36.817 -23.260 -11.396  0.00  0.00    +0.099 C 
ENDROOT
BRANCH   2   9
ATOM      7  O   UNL     1      36.386 -24.680 -15.787  0.00  0.00    -0.270 OA
ATOM      8  N   UNL     1      36.980 -22.446 -15.585  0.00  0.00    -0.298 N 
ATOM      9  C   UNL     1      36.541 -23.673 -15.102  0.00  0.00    +0.247 C 
ATOM     10  H   UNL     1      37.073 -21.696 -14.955  0.00  0.00    +0.150 HD
BRANCH   8  11
ATOM     11  C   UNL     1      37.304 -22.230 -16.970  0.00  0.00    +0.122 C 
BRANCH  11  12
ATOM     12  C   UNL     1      36.115 -21.729 -17.788  0.00  0.00    +0.159 C 
BRANCH  12  13
ATOM     13  O   UNL     1      35.154 -22.777 -17.925  0.00  0.00    -0.380 OA
ATOM     14  H   UNL     1      34.765 -22.745 -18.813  0.00  0.00    +0.211 HD
ENDBRANCH  12  13
BRANCH  12  15
ATOM     15  C   UNL     1      36.505 -21.249 -19.182  0.00  0.00    +0.168 C 
BRANCH  15  16
ATOM     16  O   UNL     1      35.409 -20.534 -19.745  0.00  0.00    -0.379 OA
ATOM     17  H   UNL     1      34.777 -21.162 -20.128  0.00  0.00    +0.211 HD
ENDBRANCH  15  16
ENDBRANCH  12  15
ENDBRANCH  11  12
ENDBRANCH   8  11
ENDBRANCH   2   9
BRANCH   3  18
ATOM     18  N   UNL     1      34.083 -24.835 -14.068  0.00  0.00    -0.309 N 
ATOM     19  H   UNL     1      34.338 -25.713 -14.431  0.00  0.00    +0.152 HD
BRANCH  18  22
ATOM     20  I   UNL     1      28.526 -22.765 -16.131  0.00  0.00    -0.042 I 
ATOM     21  F   UNL     1      31.699 -25.702 -12.924  0.00  0.00    -0.203 F 
ATOM     22  C   UNL     1      32.833 -24.372 -14.532  0.00  0.00    +0.076 C 
ATOM     23  C   UNL     1      31.655 -24.824 -13.937  0.00  0.00    +0.154 C 
ATOM     24  C   UNL     1      32.777 -23.458 -15.585  0.00  0.00    +0.017 C 
ATOM     25  C   UNL     1      30.421 -24.364 -14.396  0.00  0.00    +0.037 C 
ATOM     26  C   UNL     1      31.542 -22.998 -16.043  0.00  0.00    +0.007 C 
ATOM     27  C   UNL     1      30.364 -23.451 -15.449  0.00  0.00    +0.032 C 
ENDBRANCH  18  22
ENDBRANCH   3  18
TORSDOF 8
ENDMDL
