MODEL 1
REMARK VINA RESULT:      -9.2      0.000      0.000
REMARK  Name = 9687
REMARK  8 active torsions:
REMARK  status: ('A' for Active; 'I' for Inactive)
REMARK    1  A    between atoms: P_1  and  O_27
REMARK    2  A    between atoms: C_7  and  O_29
REMARK    3  A    between atoms: C_9  and  N_11
REMARK    4  A    between atoms: C_22  and  C_24
REMARK    5  A    between atoms: C_24  and  C_25
REMARK    6  A    between atoms: O_29  and  C_31
REMARK    7  A    between atoms: C_31  and  C_32
REMARK    8  A    between atoms: C_32  and  C_33
REMARK                            x       y       z     vdW  Elec       q    Type
REMARK                         _______ _______ _______ _____ _____    ______ ____
ROOT
ATOM      1  P   UNL     1      37.359 -23.546 -12.432  0.00  0.00    +0.477 P 
ATOM      2  O   UNL     1      35.128 -24.769 -15.929  0.00  0.00    -0.332 OA
ATOM      3  O   UNL     1      37.086 -22.686 -13.786  0.00  0.00    -0.269 OA
ATOM      4  O   UNL     1      37.123 -25.101 -12.843  0.00  0.00    -0.271 OA
ATOM      5  O   UNL     1      38.690 -23.277 -11.790  0.00  0.00    -0.227 OA
ATOM      6  C   UNL     1      35.985 -23.099 -14.563  0.00  0.00    +0.200 C 
ATOM      7  C   UNL     1      35.820 -22.455 -15.921  0.00  0.00    +0.245 C 
ATOM      8  C   UNL     1      36.143 -24.554 -14.949  0.00  0.00    +0.179 C 
ATOM      9  C   UNL     1      35.001 -23.524 -16.668  0.00  0.00    +0.239 C 
ATOM     10  C   UNL     1      36.049 -25.439 -13.722  0.00  0.00    +0.186 C 
ENDROOT
BRANCH   9  11
ATOM     11  N   UNL     1      33.584 -23.182 -16.807  0.00  0.00    -0.246 N 
ATOM     12  N   UNL     1      31.713 -22.385 -17.719  0.00  0.00    -0.242 NA
ATOM     13  N   UNL     1      32.703 -24.003 -14.698  0.00  0.00    -0.228 NA
ATOM     14  N   UNL     1      30.300 -23.613 -14.528  0.00  0.00    -0.228 NA
ATOM     15  C   UNL     1      32.592 -23.416 -15.898  0.00  0.00    +0.152 C 
ATOM     16  C   UNL     1      33.007 -22.561 -17.883  0.00  0.00    +0.223 C 
ATOM     17  C   UNL     1      31.440 -22.915 -16.483  0.00  0.00    +0.140 C 
ATOM     18  C   UNL     1      30.262 -23.029 -15.751  0.00  0.00    +0.152 C 
ATOM     19  C   UNL     1      31.501 -24.057 -14.084  0.00  0.00    +0.253 C 
ATOM     20  O   UNL     1      27.499 -23.041 -14.577  0.00  0.00    -0.275 OA
ATOM     21  N   UNL     1      29.059 -22.548 -16.268  0.00  0.00    -0.268 N 
ATOM     22  C   UNL     1      27.786 -22.577 -15.675  0.00  0.00    +0.227 C 
ATOM     23  H   UNL     1      29.109 -22.135 -17.160  0.00  0.00    +0.156 HD
BRANCH  22  24
ATOM     24  C   UNL     1      26.735 -21.968 -16.596  0.00  0.00    +0.085 C 
BRANCH  24  25
ATOM     25  C   UNL     1      26.981 -22.237 -18.079  0.00  0.00    +0.010 C 
ATOM     26  C   UNL     1      25.930 -21.590 -18.971  0.00  0.00    +0.001 C 
ENDBRANCH  24  25
ENDBRANCH  22  24
ENDBRANCH   9  11
BRANCH   1  27
ATOM     27  O   UNL     1      36.099 -23.201 -11.475  0.00  0.00    -0.302 OA
ATOM     28  H   UNL     1      36.302 -23.465 -10.565  0.00  0.00    +0.222 HD
ENDBRANCH   1  27
BRANCH   7  29
ATOM     29  O   UNL     1      37.090 -22.307 -16.550  0.00  0.00    -0.445 OA
BRANCH  29  31
ATOM     30  O   UNL     1      37.622 -20.177 -17.262  0.00  0.00    -0.250 OA
ATOM     31  C   UNL     1      37.182 -21.299 -17.472  0.00  0.00    +0.317 C 
BRANCH  31  32
ATOM     32  C   UNL     1      36.653 -21.793 -18.800  0.00  0.00    +0.110 C 
BRANCH  32  33
ATOM     33  C   UNL     1      36.467 -20.655 -19.800  0.00  0.00    +0.012 C 
ATOM     34  C   UNL     1      35.021 -20.544 -20.255  0.00  0.00    +0.001 C 
ENDBRANCH  32  33
ENDBRANCH  31  32
ENDBRANCH  29  31
ENDBRANCH   7  29
TORSDOF 8
ENDMDL
MODEL 2
REMARK VINA RESULT:      -9.2      3.834      6.895
REMARK  Name = 9687
REMARK  8 active torsions:
REMARK  status: ('A' for Active; 'I' for Inactive)
REMARK    1  A    between atoms: P_1  and  O_27
REMARK    2  A    between atoms: C_7  and  O_29
REMARK    3  A    between atoms: C_9  and  N_11
REMARK    4  A    between atoms: C_22  and  C_24
REMARK    5  A    between atoms: C_24  and  C_25
REMARK    6  A    between atoms: O_29  and  C_31
REMARK    7  A    between atoms: C_31  and  C_32
REMARK    8  A    between atoms: C_32  and  C_33
REMARK                            x       y       z     vdW  Elec       q    Type
REMARK                         _______ _______ _______ _____ _____    ______ ____
ROOT
ATOM      1  P   UNL     1      32.698 -23.424 -14.211  0.00  0.00    +0.477 P 
ATOM      2  O   UNL     1      33.272 -23.424 -18.497  0.00  0.00    -0.332 OA
ATOM      3  O   UNL     1      33.995 -22.893 -15.039  0.00  0.00    -0.269 OA
ATOM      4  O   UNL     1      31.916 -24.433 -15.217  0.00  0.00    -0.271 OA
ATOM      5  O   UNL     1      33.026 -24.025 -12.874  0.00  0.00    -0.227 OA
ATOM      6  C   UNL     1      33.769 -22.577 -16.394  0.00  0.00    +0.200 C 
ATOM      7  C   UNL     1      34.984 -22.273 -17.241  0.00  0.00    +0.245 C 
ATOM      8  C   UNL     1      33.204 -23.781 -17.117  0.00  0.00    +0.179 C 
ATOM      9  C   UNL     1      34.462 -22.605 -18.652  0.00  0.00    +0.239 C 
ATOM     10  C   UNL     1      31.815 -24.102 -16.604  0.00  0.00    +0.186 C 
ENDROOT
BRANCH   9  11
ATOM     11  N   UNL     1      34.139 -21.420 -19.449  0.00  0.00    -0.246 N 
ATOM     12  N   UNL     1      32.907 -19.881 -20.489  0.00  0.00    -0.242 NA
ATOM     13  N   UNL     1      36.364 -20.609 -19.989  0.00  0.00    -0.228 NA
ATOM     14  N   UNL     1      36.264 -18.586 -21.350  0.00  0.00    -0.228 NA
ATOM     15  C   UNL     1      35.025 -20.555 -20.027  0.00  0.00    +0.152 C 
ATOM     16  C   UNL     1      32.881 -20.973 -19.754  0.00  0.00    +0.223 C 
ATOM     17  C   UNL     1      34.241 -19.609 -20.667  0.00  0.00    +0.140 C 
ATOM     18  C   UNL     1      34.909 -18.595 -21.348  0.00  0.00    +0.152 C 
ATOM     19  C   UNL     1      36.898 -19.578 -20.681  0.00  0.00    +0.253 C 
ATOM     20  O   UNL     1      35.875 -16.236 -22.933  0.00  0.00    -0.275 OA
ATOM     21  N   UNL     1      34.192 -17.604 -22.019  0.00  0.00    -0.268 N 
ATOM     22  C   UNL     1      34.694 -16.515 -22.751  0.00  0.00    +0.227 C 
ATOM     23  H   UNL     1      33.211 -17.677 -21.975  0.00  0.00    +0.156 HD
BRANCH  22  24
ATOM     24  C   UNL     1      33.565 -15.653 -23.301  0.00  0.00    +0.085 C 
BRANCH  24  25
ATOM     25  C   UNL     1      33.467 -14.274 -22.654  0.00  0.00    +0.010 C 
ATOM     26  C   UNL     1      32.505 -14.249 -21.475  0.00  0.00    +0.001 C 
ENDBRANCH  24  25
ENDBRANCH  22  24
ENDBRANCH   9  11
BRANCH   1  27
ATOM     27  O   UNL     1      31.725 -22.134 -14.118  0.00  0.00    -0.302 OA
ATOM     28  H   UNL     1      31.068 -22.172 -14.830  0.00  0.00    +0.222 HD
ENDBRANCH   1  27
BRANCH   7  29
ATOM     29  O   UNL     1      36.048 -23.160 -16.909  0.00  0.00    -0.445 OA
BRANCH  29  31
ATOM     30  O   UNL     1      37.590 -21.483 -16.542  0.00  0.00    -0.250 OA
ATOM     31  C   UNL     1      37.128 -22.589 -16.293  0.00  0.00    +0.317 C 
BRANCH  31  32
ATOM     32  C   UNL     1      37.665 -23.543 -15.250  0.00  0.00    +0.110 C 
BRANCH  32  33
ATOM     33  C   UNL     1      36.836 -24.821 -15.163  0.00  0.00    +0.012 C 
ATOM     34  C   UNL     1      37.687 -26.010 -14.747  0.00  0.00    +0.001 C 
ENDBRANCH  32  33
ENDBRANCH  31  32
ENDBRANCH  29  31
ENDBRANCH   7  29
TORSDOF 8
ENDMDL
MODEL 3
REMARK VINA RESULT:      -9.0      3.218      5.999
REMARK  Name = 9687
REMARK  8 active torsions:
REMARK  status: ('A' for Active; 'I' for Inactive)
REMARK    1  A    between atoms: P_1  and  O_27
REMARK    2  A    between atoms: C_7  and  O_29
REMARK    3  A    between atoms: C_9  and  N_11
REMARK    4  A    between atoms: C_22  and  C_24
REMARK    5  A    between atoms: C_24  and  C_25
REMARK    6  A    between atoms: O_29  and  C_31
REMARK    7  A    between atoms: C_31  and  C_32
REMARK    8  A    between atoms: C_32  and  C_33
REMARK                            x       y       z     vdW  Elec       q    Type
REMARK                         _______ _______ _______ _____ _____    ______ ____
ROOT
ATOM      1  P   UNL     1      36.550 -23.758 -11.690  0.00  0.00    +0.477 P 
ATOM      2  O   UNL     1      33.366 -24.076 -14.598  0.00  0.00    -0.332 OA
ATOM      3  O   UNL     1      36.589 -24.527 -13.123  0.00  0.00    -0.269 OA
ATOM      4  O   UNL     1      34.976 -23.609 -11.311  0.00  0.00    -0.271 OA
ATOM      5  O   UNL     1      37.378 -24.409 -10.620  0.00  0.00    -0.227 OA
ATOM      6  C   UNL     1      35.625 -24.114 -14.066  0.00  0.00    +0.200 C 
ATOM      7  C   UNL     1      35.501 -24.937 -15.328  0.00  0.00    +0.245 C 
ATOM      8  C   UNL     1      34.236 -24.265 -13.483  0.00  0.00    +0.179 C 
ATOM      9  C   UNL     1      34.054 -24.625 -15.754  0.00  0.00    +0.239 C 
ATOM     10  C   UNL     1      34.035 -23.293 -12.339  0.00  0.00    +0.186 C 
ENDROOT
BRANCH   9  11
ATOM     11  N   UNL     1      33.964 -23.681 -16.870  0.00  0.00    -0.246 N 
ATOM     12  N   UNL     1      33.082 -22.546 -18.574  0.00  0.00    -0.242 NA
ATOM     13  N   UNL     1      36.212 -22.761 -16.875  0.00  0.00    -0.228 NA
ATOM     14  N   UNL     1      36.486 -21.099 -18.641  0.00  0.00    -0.228 NA
ATOM     15  C   UNL     1      34.957 -22.867 -17.336  0.00  0.00    +0.152 C 
ATOM     16  C   UNL     1      32.858 -23.452 -17.645  0.00  0.00    +0.223 C 
ATOM     17  C   UNL     1      34.390 -22.172 -18.392  0.00  0.00    +0.140 C 
ATOM     18  C   UNL     1      35.205 -21.259 -19.054  0.00  0.00    +0.152 C 
ATOM     19  C   UNL     1      36.904 -21.849 -17.593  0.00  0.00    +0.253 C 
ATOM     20  O   UNL     1      36.547 -19.200 -20.778  0.00  0.00    -0.275 OA
ATOM     21  N   UNL     1      34.710 -20.520 -20.129  0.00  0.00    -0.268 N 
ATOM     22  C   UNL     1      35.382 -19.564 -20.908  0.00  0.00    +0.227 C 
ATOM     23  H   UNL     1      33.772 -20.691 -20.373  0.00  0.00    +0.156 HD
BRANCH  22  24
ATOM     24  C   UNL     1      34.462 -18.970 -21.967  0.00  0.00    +0.085 C 
BRANCH  24  25
ATOM     25  C   UNL     1      34.977 -19.132 -23.395  0.00  0.00    +0.010 C 
ATOM     26  C   UNL     1      34.998 -17.816 -24.161  0.00  0.00    +0.001 C 
ENDBRANCH  24  25
ENDBRANCH  22  24
ENDBRANCH   9  11
BRANCH   1  27
ATOM     27  O   UNL     1      37.013 -22.245 -12.033  0.00  0.00    -0.302 OA
ATOM     28  H   UNL     1      36.768 -22.030 -12.946  0.00  0.00    +0.222 HD
ENDBRANCH   1  27
BRANCH   7  29
ATOM     29  O   UNL     1      35.616 -26.324 -15.023  0.00  0.00    -0.445 OA
BRANCH  29  31
ATOM     30  O   UNL     1      36.827 -27.481 -16.611  0.00  0.00    -0.250 OA
ATOM     31  C   UNL     1      36.730 -26.950 -15.513  0.00  0.00    +0.317 C 
BRANCH  31  32
ATOM     32  C   UNL     1      37.831 -26.882 -14.478  0.00  0.00    +0.110 C 
BRANCH  32  33
ATOM     33  C   UNL     1      39.023 -26.062 -14.965  0.00  0.00    +0.012 C 
ATOM     34  C   UNL     1      39.816 -25.488 -13.803  0.00  0.00    +0.001 C 
ENDBRANCH  32  33
ENDBRANCH  31  32
ENDBRANCH  29  31
ENDBRANCH   7  29
TORSDOF 8
ENDMDL
MODEL 4
REMARK VINA RESULT:      -8.9      5.844      8.940
REMARK  Name = 9687
REMARK  8 active torsions:
REMARK  status: ('A' for Active; 'I' for Inactive)
REMARK    1  A    between atoms: P_1  and  O_27
REMARK    2  A    between atoms: C_7  and  O_29
REMARK    3  A    between atoms: C_9  and  N_11
REMARK    4  A    between atoms: C_22  and  C_24
REMARK    5  A    between atoms: C_24  and  C_25
REMARK    6  A    between atoms: O_29  and  C_31
REMARK    7  A    between atoms: C_31  and  C_32
REMARK    8  A    between atoms: C_32  and  C_33
REMARK                            x       y       z     vdW  Elec       q    Type
REMARK                         _______ _______ _______ _____ _____    ______ ____
ROOT
ATOM      1  P   UNL     1      33.293 -14.144 -22.514  0.00  0.00    +0.477 P 
ATOM      2  O   UNL     1      35.475 -17.444 -20.770  0.00  0.00    -0.332 OA
ATOM      3  O   UNL     1      33.459 -15.649 -23.110  0.00  0.00    -0.269 OA
ATOM      4  O   UNL     1      34.515 -13.949 -21.460  0.00  0.00    -0.271 OA
ATOM      5  O   UNL     1      33.213 -13.072 -23.563  0.00  0.00    -0.227 OA
ATOM      6  C   UNL     1      33.809 -16.643 -22.174  0.00  0.00    +0.200 C 
ATOM      7  C   UNL     1      34.166 -18.007 -22.720  0.00  0.00    +0.245 C 
ATOM      8  C   UNL     1      35.098 -16.263 -21.476  0.00  0.00    +0.179 C 
ATOM      9  C   UNL     1      35.049 -18.567 -21.589  0.00  0.00    +0.239 C 
ATOM     10  C   UNL     1      34.889 -15.037 -20.612  0.00  0.00    +0.186 C 
ENDROOT
BRANCH   9  11
ATOM     11  N   UNL     1      34.366 -19.553 -20.749  0.00  0.00    -0.246 N 
ATOM     12  N   UNL     1      32.698 -20.720 -19.842  0.00  0.00    -0.242 NA
ATOM     13  N   UNL     1      36.254 -20.569 -19.607  0.00  0.00    -0.228 NA
ATOM     14  N   UNL     1      35.524 -22.315 -18.067  0.00  0.00    -0.228 NA
ATOM     15  C   UNL     1      34.948 -20.428 -19.877  0.00  0.00    +0.152 C 
ATOM     16  C   UNL     1      33.015 -19.766 -20.693  0.00  0.00    +0.223 C 
ATOM     17  C   UNL     1      33.896 -21.143 -19.325  0.00  0.00    +0.140 C 
ATOM     18  C   UNL     1      34.222 -22.118 -18.387  0.00  0.00    +0.152 C 
ATOM     19  C   UNL     1      36.446 -21.540 -18.688  0.00  0.00    +0.253 C 
ATOM     20  O   UNL     1      34.413 -24.304 -16.340  0.00  0.00    -0.275 OA
ATOM     21  N   UNL     1      33.221 -22.879 -17.784  0.00  0.00    -0.268 N 
ATOM     22  C   UNL     1      33.363 -23.896 -16.826  0.00  0.00    +0.227 C 
ATOM     23  H   UNL     1      32.299 -22.679 -18.065  0.00  0.00    +0.156 HD
BRANCH  22  24
ATOM     24  C   UNL     1      32.012 -24.494 -16.452  0.00  0.00    +0.085 C 
BRANCH  24  25
ATOM     25  C   UNL     1      30.966 -23.458 -16.048  0.00  0.00    +0.010 C 
ATOM     26  C   UNL     1      31.258 -22.833 -14.691  0.00  0.00    +0.001 C 
ENDBRANCH  24  25
ENDBRANCH  22  24
ENDBRANCH   9  11
BRANCH   1  27
ATOM     27  O   UNL     1      31.977 -14.227 -21.574  0.00  0.00    -0.302 OA
ATOM     28  H   UNL     1      31.912 -13.422 -21.038  0.00  0.00    +0.222 HD
ENDBRANCH   1  27
BRANCH   7  29
ATOM     29  O   UNL     1      34.945 -17.872 -23.906  0.00  0.00    -0.445 OA
BRANCH  29  31
ATOM     30  O   UNL     1      33.592 -18.819 -25.518  0.00  0.00    -0.250 OA
ATOM     31  C   UNL     1      34.244 -17.880 -25.081  0.00  0.00    +0.317 C 
BRANCH  31  32
ATOM     32  C   UNL     1      34.400 -16.537 -25.760  0.00  0.00    +0.110 C 
BRANCH  32  33
ATOM     33  C   UNL     1      33.059 -15.965 -26.211  0.00  0.00    +0.012 C 
ATOM     34  C   UNL     1      33.170 -14.488 -26.550  0.00  0.00    +0.001 C 
ENDBRANCH  32  33
ENDBRANCH  31  32
ENDBRANCH  29  31
ENDBRANCH   7  29
TORSDOF 8
ENDMDL
MODEL 5
REMARK VINA RESULT:      -8.7      3.256      6.974
REMARK  Name = 9687
REMARK  8 active torsions:
REMARK  status: ('A' for Active; 'I' for Inactive)
REMARK    1  A    between atoms: P_1  and  O_27
REMARK    2  A    between atoms: C_7  and  O_29
REMARK    3  A    between atoms: C_9  and  N_11
REMARK    4  A    between atoms: C_22  and  C_24
REMARK    5  A    between atoms: C_24  and  C_25
REMARK    6  A    between atoms: O_29  and  C_31
REMARK    7  A    between atoms: C_31  and  C_32
REMARK    8  A    between atoms: C_32  and  C_33
REMARK                            x       y       z     vdW  Elec       q    Type
REMARK                         _______ _______ _______ _____ _____    ______ ____
ROOT
ATOM      1  P   UNL     1      30.621 -23.589 -13.761  0.00  0.00    +0.477 P 
ATOM      2  O   UNL     1      32.339 -24.112 -17.694  0.00  0.00    -0.332 OA
ATOM      3  O   UNL     1      32.142 -23.255 -14.231  0.00  0.00    -0.269 OA
ATOM      4  O   UNL     1      30.040 -24.641 -14.856  0.00  0.00    -0.271 OA
ATOM      5  O   UNL     1      30.505 -24.060 -12.339  0.00  0.00    -0.227 OA
ATOM      6  C   UNL     1      32.329 -23.076 -15.617  0.00  0.00    +0.200 C 
ATOM      7  C   UNL     1      33.754 -22.963 -16.109  0.00  0.00    +0.245 C 
ATOM      8  C   UNL     1      31.860 -24.306 -16.364  0.00  0.00    +0.179 C 
ATOM      9  C   UNL     1      33.606 -23.409 -17.576  0.00  0.00    +0.239 C 
ATOM     10  C   UNL     1      30.358 -24.460 -16.238  0.00  0.00    +0.186 C 
ENDROOT
BRANCH   9  11
ATOM     11  N   UNL     1      33.639 -22.300 -18.530  0.00  0.00    -0.246 N 
ATOM     12  N   UNL     1      32.897 -20.680 -19.870  0.00  0.00    -0.242 NA
ATOM     13  N   UNL     1      36.031 -22.077 -18.893  0.00  0.00    -0.228 NA
ATOM     14  N   UNL     1      36.525 -20.282 -20.470  0.00  0.00    -0.228 NA
ATOM     15  C   UNL     1      34.749 -21.736 -19.093  0.00  0.00    +0.152 C 
ATOM     16  C   UNL     1      32.552 -21.632 -19.028  0.00  0.00    +0.223 C 
ATOM     17  C   UNL     1      34.267 -20.734 -19.920  0.00  0.00    +0.140 C 
ATOM     18  C   UNL     1      35.210 -19.992 -20.625  0.00  0.00    +0.152 C 
ATOM     19  C   UNL     1      36.849 -21.291 -19.626  0.00  0.00    +0.253 C 
ATOM     20  O   UNL     1      36.835 -18.137 -22.335  0.00  0.00    -0.275 OA
ATOM     21  N   UNL     1      34.806 -18.967 -21.480  0.00  0.00    -0.268 N 
ATOM     22  C   UNL     1      35.611 -18.123 -22.263  0.00  0.00    +0.227 C 
ATOM     23  H   UNL     1      33.836 -18.816 -21.543  0.00  0.00    +0.156 HD
BRANCH  22  24
ATOM     24  C   UNL     1      34.766 -17.115 -23.033  0.00  0.00    +0.085 C 
BRANCH  24  25
ATOM     25  C   UNL     1      34.862 -17.256 -24.550  0.00  0.00    +0.010 C 
ATOM     26  C   UNL     1      34.335 -18.596 -25.046  0.00  0.00    +0.001 C 
ENDBRANCH  24  25
ENDBRANCH  22  24
ENDBRANCH   9  11
BRANCH   1  27
ATOM     27  O   UNL     1      29.800 -22.225 -14.057  0.00  0.00    -0.302 OA
ATOM     28  H   UNL     1      30.383 -21.583 -14.490  0.00  0.00    +0.222 HD
ENDBRANCH   1  27
BRANCH   7  29
ATOM     29  O   UNL     1      34.588 -23.888 -15.416  0.00  0.00    -0.445 OA
BRANCH  29  31
ATOM     30  O   UNL     1      36.394 -22.460 -15.575  0.00  0.00    -0.250 OA
ATOM     31  C   UNL     1      35.918 -23.568 -15.368  0.00  0.00    +0.317 C 
BRANCH  31  32
ATOM     32  C   UNL     1      36.712 -24.806 -15.014  0.00  0.00    +0.110 C 
BRANCH  32  33
ATOM     33  C   UNL     1      38.177 -24.484 -14.731  0.00  0.00    +0.012 C 
ATOM     34  C   UNL     1      38.753 -25.401 -13.665  0.00  0.00    +0.001 C 
ENDBRANCH  32  33
ENDBRANCH  31  32
ENDBRANCH  29  31
ENDBRANCH   7  29
TORSDOF 8
ENDMDL
MODEL 6
REMARK VINA RESULT:      -8.7      3.706      6.196
REMARK  Name = 9687
REMARK  8 active torsions:
REMARK  status: ('A' for Active; 'I' for Inactive)
REMARK    1  A    between atoms: P_1  and  O_27
REMARK    2  A    between atoms: C_7  and  O_29
REMARK    3  A    between atoms: C_9  and  N_11
REMARK    4  A    between atoms: C_22  and  C_24
REMARK    5  A    between atoms: C_24  and  C_25
REMARK    6  A    between atoms: O_29  and  C_31
REMARK    7  A    between atoms: C_31  and  C_32
REMARK    8  A    between atoms: C_32  and  C_33
REMARK                            x       y       z     vdW  Elec       q    Type
REMARK                         _______ _______ _______ _____ _____    ______ ____
ROOT
ATOM      1  P   UNL     1      36.340 -23.790 -11.325  0.00  0.00    +0.477 P 
ATOM      2  O   UNL     1      34.332 -23.651 -15.151  0.00  0.00    -0.332 OA
ATOM      3  O   UNL     1      36.883 -24.354 -12.751  0.00  0.00    -0.269 OA
ATOM      4  O   UNL     1      34.727 -23.669 -11.483  0.00  0.00    -0.271 OA
ATOM      5  O   UNL     1      36.780 -24.596 -10.136  0.00  0.00    -0.227 OA
ATOM      6  C   UNL     1      36.280 -23.800 -13.898  0.00  0.00    +0.200 C 
ATOM      7  C   UNL     1      36.614 -24.438 -15.227  0.00  0.00    +0.245 C 
ATOM      8  C   UNL     1      34.781 -24.007 -13.845  0.00  0.00    +0.179 C 
ATOM      9  C   UNL     1      35.386 -24.047 -16.070  0.00  0.00    +0.239 C 
ATOM     10  C   UNL     1      34.177 -23.199 -12.715  0.00  0.00    +0.186 C 
ENDROOT
BRANCH   9  11
ATOM     11  N   UNL     1      35.647 -22.957 -17.012  0.00  0.00    -0.246 N 
ATOM     12  N   UNL     1      36.688 -21.233 -17.968  0.00  0.00    -0.242 NA
ATOM     13  N   UNL     1      33.707 -23.129 -18.463  0.00  0.00    -0.228 NA
ATOM     14  N   UNL     1      33.760 -21.436 -20.220  0.00  0.00    -0.228 NA
ATOM     15  C   UNL     1      34.866 -22.583 -18.069  0.00  0.00    +0.152 C 
ATOM     16  C   UNL     1      36.729 -22.117 -16.993  0.00  0.00    +0.223 C 
ATOM     17  C   UNL     1      35.529 -21.513 -18.648  0.00  0.00    +0.140 C 
ATOM     18  C   UNL     1      34.934 -20.934 -19.765  0.00  0.00    +0.152 C 
ATOM     19  C   UNL     1      33.227 -22.487 -19.551  0.00  0.00    +0.253 C 
ATOM     20  O   UNL     1      34.059 -19.366 -22.170  0.00  0.00    -0.275 OA
ATOM     21  N   UNL     1      35.537 -19.851 -20.405  0.00  0.00    -0.268 N 
ATOM     22  C   UNL     1      35.085 -19.148 -21.534  0.00  0.00    +0.227 C 
ATOM     23  H   UNL     1      36.387 -19.541 -20.017  0.00  0.00    +0.156 HD
BRANCH  22  24
ATOM     24  C   UNL     1      36.063 -18.048 -21.927  0.00  0.00    +0.085 C 
BRANCH  24  25
ATOM     25  C   UNL     1      35.392 -16.788 -22.469  0.00  0.00    +0.010 C 
ATOM     26  C   UNL     1      34.659 -16.006 -21.388  0.00  0.00    +0.001 C 
ENDBRANCH  24  25
ENDBRANCH  22  24
ENDBRANCH   9  11
BRANCH   1  27
ATOM     27  O   UNL     1      36.844 -22.252 -11.283  0.00  0.00    -0.302 OA
ATOM     28  H   UNL     1      37.202 -22.005 -12.149  0.00  0.00    +0.222 HD
ENDBRANCH   1  27
BRANCH   7  29
ATOM     29  O   UNL     1      36.663 -25.856 -15.092  0.00  0.00    -0.445 OA
BRANCH  29  31
ATOM     30  O   UNL     1      38.151 -27.556 -14.623  0.00  0.00    -0.250 OA
ATOM     31  C   UNL     1      37.910 -26.394 -14.919  0.00  0.00    +0.317 C 
BRANCH  31  32
ATOM     32  C   UNL     1      38.949 -25.320 -15.151  0.00  0.00    +0.110 C 
BRANCH  32  33
ATOM     33  C   UNL     1      40.024 -25.321 -14.069  0.00  0.00    +0.012 C 
ATOM     34  C   UNL     1      40.971 -26.499 -14.225  0.00  0.00    +0.001 C 
ENDBRANCH  32  33
ENDBRANCH  31  32
ENDBRANCH  29  31
ENDBRANCH   7  29
TORSDOF 8
ENDMDL
MODEL 7
REMARK VINA RESULT:      -8.2      3.302      6.600
REMARK  Name = 9687
REMARK  8 active torsions:
REMARK  status: ('A' for Active; 'I' for Inactive)
REMARK    1  A    between atoms: P_1  and  O_27
REMARK    2  A    between atoms: C_7  and  O_29
REMARK    3  A    between atoms: C_9  and  N_11
REMARK    4  A    between atoms: C_22  and  C_24
REMARK    5  A    between atoms: C_24  and  C_25
REMARK    6  A    between atoms: O_29  and  C_31
REMARK    7  A    between atoms: C_31  and  C_32
REMARK    8  A    between atoms: C_32  and  C_33
REMARK                            x       y       z     vdW  Elec       q    Type
REMARK                         _______ _______ _______ _____ _____    ______ ____
ROOT
ATOM      1  P   UNL     1      31.122 -23.731 -13.606  0.00  0.00    +0.477 P 
ATOM      2  O   UNL     1      34.359 -24.480 -16.372  0.00  0.00    -0.332 OA
ATOM      3  O   UNL     1      32.653 -23.189 -13.511  0.00  0.00    -0.269 OA
ATOM      4  O   UNL     1      31.169 -25.018 -14.598  0.00  0.00    -0.271 OA
ATOM      5  O   UNL     1      30.483 -24.007 -12.275  0.00  0.00    -0.227 OA
ATOM      6  C   UNL     1      33.375 -23.178 -14.722  0.00  0.00    +0.200 C 
ATOM      7  C   UNL     1      34.853 -22.873 -14.639  0.00  0.00    +0.245 C 
ATOM      8  C   UNL     1      33.399 -24.568 -15.321  0.00  0.00    +0.179 C 
ATOM      9  C   UNL     1      35.376 -23.544 -15.923  0.00  0.00    +0.239 C 
ATOM     10  C   UNL     1      32.007 -24.980 -15.755  0.00  0.00    +0.186 C 
ENDROOT
BRANCH   9  11
ATOM     11  N   UNL     1      35.675 -22.595 -16.998  0.00  0.00    -0.246 N 
ATOM     12  N   UNL     1      36.819 -21.124 -18.220  0.00  0.00    -0.242 NA
ATOM     13  N   UNL     1      33.598 -22.656 -18.255  0.00  0.00    -0.228 NA
ATOM     14  N   UNL     1      33.686 -21.166 -20.186  0.00  0.00    -0.228 NA
ATOM     15  C   UNL     1      34.847 -22.229 -18.021  0.00  0.00    +0.152 C 
ATOM     16  C   UNL     1      36.847 -21.906 -17.161  0.00  0.00    +0.223 C 
ATOM     17  C   UNL     1      35.576 -21.317 -18.767  0.00  0.00    +0.140 C 
ATOM     18  C   UNL     1      34.950 -20.779 -19.888  0.00  0.00    +0.152 C 
ATOM     19  C   UNL     1      33.097 -22.067 -19.363  0.00  0.00    +0.253 C 
ATOM     20  O   UNL     1      34.043 -19.355 -22.370  0.00  0.00    -0.275 OA
ATOM     21  N   UNL     1      35.615 -19.852 -20.691  0.00  0.00    -0.268 N 
ATOM     22  C   UNL     1      35.144 -19.211 -21.849  0.00  0.00    +0.227 C 
ATOM     23  H   UNL     1      36.529 -19.618 -20.412  0.00  0.00    +0.156 HD
BRANCH  22  24
ATOM     24  C   UNL     1      36.205 -18.292 -22.441  0.00  0.00    +0.085 C 
BRANCH  24  25
ATOM     25  C   UNL     1      35.636 -17.130 -23.251  0.00  0.00    +0.010 C 
ATOM     26  C   UNL     1      34.949 -16.090 -22.377  0.00  0.00    +0.001 C 
ENDBRANCH  24  25
ENDBRANCH  22  24
ENDBRANCH   9  11
BRANCH   1  27
ATOM     27  O   UNL     1      30.349 -22.601 -14.470  0.00  0.00    -0.302 OA
ATOM     28  H   UNL     1      30.789 -21.746 -14.353  0.00  0.00    +0.222 HD
ENDBRANCH   1  27
BRANCH   7  29
ATOM     29  O   UNL     1      35.424 -23.516 -13.503  0.00  0.00    -0.445 OA
BRANCH  29  31
ATOM     30  O   UNL     1      37.598 -22.756 -13.657  0.00  0.00    -0.250 OA
ATOM     31  C   UNL     1      36.785 -23.661 -13.524  0.00  0.00    +0.317 C 
BRANCH  31  32
ATOM     32  C   UNL     1      37.130 -25.124 -13.354  0.00  0.00    +0.110 C 
BRANCH  32  33
ATOM     33  C   UNL     1      38.124 -25.603 -14.408  0.00  0.00    +0.012 C 
ATOM     34  C   UNL     1      39.543 -25.632 -13.865  0.00  0.00    +0.001 C 
ENDBRANCH  32  33
ENDBRANCH  31  32
ENDBRANCH  29  31
ENDBRANCH   7  29
TORSDOF 8
ENDMDL
MODEL 8
REMARK VINA RESULT:      -7.7      3.597      6.836
REMARK  Name = 9687
REMARK  8 active torsions:
REMARK  status: ('A' for Active; 'I' for Inactive)
REMARK    1  A    between atoms: P_1  and  O_27
REMARK    2  A    between atoms: C_7  and  O_29
REMARK    3  A    between atoms: C_9  and  N_11
REMARK    4  A    between atoms: C_22  and  C_24
REMARK    5  A    between atoms: C_24  and  C_25
REMARK    6  A    between atoms: O_29  and  C_31
REMARK    7  A    between atoms: C_31  and  C_32
REMARK    8  A    between atoms: C_32  and  C_33
REMARK                            x       y       z     vdW  Elec       q    Type
REMARK                         _______ _______ _______ _____ _____    ______ ____
ROOT
ATOM      1  P   UNL     1      32.215 -23.240 -14.151  0.00  0.00    +0.477 P 
ATOM      2  O   UNL     1      33.630 -23.589 -18.222  0.00  0.00    -0.332 OA
ATOM      3  O   UNL     1      33.753 -23.173 -14.675  0.00  0.00    -0.269 OA
ATOM      4  O   UNL     1      31.381 -23.995 -15.325  0.00  0.00    -0.271 OA
ATOM      5  O   UNL     1      32.054 -23.860 -12.792  0.00  0.00    -0.227 OA
ATOM      6  C   UNL     1      33.922 -22.856 -16.039  0.00  0.00    +0.200 C 
ATOM      7  C   UNL     1      35.318 -22.979 -16.606  0.00  0.00    +0.245 C 
ATOM      8  C   UNL     1      33.171 -23.852 -16.897  0.00  0.00    +0.179 C 
ATOM      9  C   UNL     1      35.022 -23.188 -18.103  0.00  0.00    +0.239 C 
ATOM     10  C   UNL     1      31.677 -23.705 -16.692  0.00  0.00    +0.186 C 
ENDROOT
BRANCH   9  11
ATOM     11  N   UNL     1      35.257 -21.994 -18.917  0.00  0.00    -0.246 N 
ATOM     12  N   UNL     1      36.372 -20.401 -20.007  0.00  0.00    -0.242 NA
ATOM     13  N   UNL     1      32.976 -21.293 -19.373  0.00  0.00    -0.228 NA
ATOM     14  N   UNL     1      32.926 -19.275 -20.744  0.00  0.00    -0.228 NA
ATOM     15  C   UNL     1      34.309 -21.177 -19.464  0.00  0.00    +0.152 C 
ATOM     16  C   UNL     1      36.479 -21.487 -19.271  0.00  0.00    +0.223 C 
ATOM     17  C   UNL     1      35.021 -20.196 -20.136  0.00  0.00    +0.140 C 
ATOM     18  C   UNL     1      34.280 -19.219 -20.793  0.00  0.00    +0.152 C 
ATOM     19  C   UNL     1      32.367 -20.293 -20.047  0.00  0.00    +0.253 C 
ATOM     20  O   UNL     1      33.141 -16.916 -22.346  0.00  0.00    -0.275 OA
ATOM     21  N   UNL     1      34.921 -18.195 -21.491  0.00  0.00    -0.268 N 
ATOM     22  C   UNL     1      34.340 -17.135 -22.206  0.00  0.00    +0.227 C 
ATOM     23  H   UNL     1      35.905 -18.219 -21.481  0.00  0.00    +0.156 HD
BRANCH  22  24
ATOM     24  C   UNL     1      35.404 -16.253 -22.847  0.00  0.00    +0.085 C 
BRANCH  24  25
ATOM     25  C   UNL     1      35.009 -15.701 -24.215  0.00  0.00    +0.010 C 
ATOM     26  C   UNL     1      34.756 -16.801 -25.237  0.00  0.00    +0.001 C 
ENDBRANCH  24  25
ENDBRANCH  22  24
ENDBRANCH   9  11
BRANCH   1  27
ATOM     27  O   UNL     1      31.696 -21.709 -14.227  0.00  0.00    -0.302 OA
ATOM     28  H   UNL     1      31.209 -21.491 -13.418  0.00  0.00    +0.222 HD
ENDBRANCH   1  27
BRANCH   7  29
ATOM     29  O   UNL     1      35.959 -24.140 -16.084  0.00  0.00    -0.445 OA
BRANCH  29  31
ATOM     30  O   UNL     1      37.636 -22.840 -15.175  0.00  0.00    -0.250 OA
ATOM     31  C   UNL     1      37.055 -23.910 -15.296  0.00  0.00    +0.317 C 
BRANCH  31  32
ATOM     32  C   UNL     1      37.437 -25.194 -14.594  0.00  0.00    +0.110 C 
BRANCH  32  33
ATOM     33  C   UNL     1      38.534 -24.973 -13.556  0.00  0.00    +0.012 C 
ATOM     34  C   UNL     1      37.952 -24.625 -12.196  0.00  0.00    +0.001 C 
ENDBRANCH  32  33
ENDBRANCH  31  32
ENDBRANCH  29  31
ENDBRANCH   7  29
TORSDOF 8
ENDMDL
MODEL 9
REMARK VINA RESULT:      -7.6      9.609     13.287
REMARK  Name = 9687
REMARK  8 active torsions:
REMARK  status: ('A' for Active; 'I' for Inactive)
REMARK    1  A    between atoms: P_1  and  O_27
REMARK    2  A    between atoms: C_7  and  O_29
REMARK    3  A    between atoms: C_9  and  N_11
REMARK    4  A    between atoms: C_22  and  C_24
REMARK    5  A    between atoms: C_24  and  C_25
REMARK    6  A    between atoms: O_29  and  C_31
REMARK    7  A    between atoms: C_31  and  C_32
REMARK    8  A    between atoms: C_32  and  C_33
REMARK                            x       y       z     vdW  Elec       q    Type
REMARK                         _______ _______ _______ _____ _____    ______ ____
ROOT
ATOM      1  P   UNL     1      34.718  -9.625 -24.761  0.00  0.00    +0.477 P 
ATOM      2  O   UNL     1      32.908 -13.530 -24.355  0.00  0.00    -0.332 OA
ATOM      3  O   UNL     1      33.790 -10.166 -23.539  0.00  0.00    -0.269 OA
ATOM      4  O   UNL     1      34.394 -10.595 -26.025  0.00  0.00    -0.271 OA
ATOM      5  O   UNL     1      34.556  -8.161 -25.056  0.00  0.00    -0.227 OA
ATOM      6  C   UNL     1      33.706 -11.567 -23.409  0.00  0.00    +0.200 C 
ATOM      7  C   UNL     1      32.701 -12.106 -22.416  0.00  0.00    +0.245 C 
ATOM      8  C   UNL     1      33.196 -12.176 -24.698  0.00  0.00    +0.179 C 
ATOM      9  C   UNL     1      32.443 -13.516 -22.978  0.00  0.00    +0.239 C 
ATOM     10  C   UNL     1      34.214 -11.995 -25.805  0.00  0.00    +0.186 C 
ENDROOT
BRANCH   9  11
ATOM     11  N   UNL     1      33.115 -14.577 -22.226  0.00  0.00    -0.246 N 
ATOM     12  N   UNL     1      33.866 -15.736 -20.476  0.00  0.00    -0.242 NA
ATOM     13  N   UNL     1      33.957 -15.962 -24.035  0.00  0.00    -0.228 NA
ATOM     14  N   UNL     1      35.176 -17.895 -23.180  0.00  0.00    -0.228 NA
ATOM     15  C   UNL     1      33.780 -15.653 -22.743  0.00  0.00    +0.152 C 
ATOM     16  C   UNL     1      33.194 -14.672 -20.862  0.00  0.00    +0.223 C 
ATOM     17  C   UNL     1      34.238 -16.359 -21.641  0.00  0.00    +0.140 C 
ATOM     18  C   UNL     1      34.960 -17.521 -21.895  0.00  0.00    +0.152 C 
ATOM     19  C   UNL     1      34.669 -17.104 -24.156  0.00  0.00    +0.253 C 
ATOM     20  O   UNL     1      36.552 -20.065 -21.926  0.00  0.00    -0.275 OA
ATOM     21  N   UNL     1      35.457 -18.287 -20.841  0.00  0.00    -0.268 N 
ATOM     22  C   UNL     1      36.201 -19.477 -20.908  0.00  0.00    +0.227 C 
ATOM     23  H   UNL     1      35.263 -17.953 -19.936  0.00  0.00    +0.156 HD
BRANCH  22  24
ATOM     24  C   UNL     1      36.520 -20.008 -19.516  0.00  0.00    +0.085 C 
BRANCH  24  25
ATOM     25  C   UNL     1      36.091 -21.456 -19.292  0.00  0.00    +0.010 C 
ATOM     26  C   UNL     1      34.584 -21.642 -19.403  0.00  0.00    +0.001 C 
ENDBRANCH  24  25
ENDBRANCH  22  24
ENDBRANCH   9  11
BRANCH   1  27
ATOM     27  O   UNL     1      36.225 -10.034 -24.333  0.00  0.00    -0.302 OA
ATOM     28  H   UNL     1      36.859  -9.464 -24.796  0.00  0.00    +0.222 HD
ENDBRANCH   1  27
BRANCH   7  29
ATOM     29  O   UNL     1      31.497 -11.346 -22.475  0.00  0.00    -0.445 OA
BRANCH  29  31
ATOM     30  O   UNL     1      30.564 -11.230 -20.368  0.00  0.00    -0.250 OA
ATOM     31  C   UNL     1      31.136 -10.712 -21.317  0.00  0.00    +0.317 C 
BRANCH  31  32
ATOM     32  C   UNL     1      31.560  -9.262 -21.394  0.00  0.00    +0.110 C 
BRANCH  32  33
ATOM     33  C   UNL     1      32.280  -8.809 -20.127  0.00  0.00    +0.012 C 
ATOM     34  C   UNL     1      32.584  -7.320 -20.160  0.00  0.00    +0.001 C 
ENDBRANCH  32  33
ENDBRANCH  31  32
ENDBRANCH  29  31
ENDBRANCH   7  29
TORSDOF 8
ENDMDL
