MODEL 1
REMARK VINA RESULT:      -7.8      0.000      0.000
REMARK  Name = 31211
REMARK  5 active torsions:
REMARK  status: ('A' for Active; 'I' for Inactive)
REMARK    1  A    between atoms: C_1  and  C_11
REMARK    2  A    between atoms: C_4  and  O_7
REMARK    3  A    between atoms: C_6  and  O_9
REMARK    4  A    between atoms: C_11  and  C_12
REMARK    5  A    between atoms: C_12  and  C_14
REMARK                            x       y       z     vdW  Elec       q    Type
REMARK                         _______ _______ _______ _____ _____    ______ ____
ROOT
ATOM      1  C   UNL     1      34.860 -18.675 -22.251  0.00  0.00    -0.019 C 
ATOM      2  C   UNL     1      34.994 -17.295 -22.236  0.00  0.00    +0.036 C 
ATOM      3  C   UNL     1      34.692 -19.367 -23.442  0.00  0.00    -0.001 C 
ATOM      4  C   UNL     1      34.960 -16.590 -23.440  0.00  0.00    +0.172 C 
ATOM      5  C   UNL     1      34.658 -18.662 -24.645  0.00  0.00    +0.039 C 
ATOM      6  C   UNL     1      34.792 -17.273 -24.644  0.00  0.00    +0.168 C 
ENDROOT
BRANCH   4   7
ATOM      7  O   UNL     1      35.092 -15.234 -23.426  0.00  0.00    -0.468 OA
ATOM      8  C   UNL     1      34.291 -14.514 -22.491  0.00  0.00    +0.253 C 
ENDBRANCH   4   7
BRANCH   6   9
ATOM      9  O   UNL     1      34.758 -16.595 -25.825  0.00  0.00    -0.503 OA
ATOM     10  H   UNL     1      34.062 -16.749 -26.433  0.00  0.00    +0.292 HD
ENDBRANCH   6   9
BRANCH   1  11
ATOM     11  C   UNL     1      34.896 -19.436 -20.951  0.00  0.00    +0.034 C 
BRANCH  11  12
ATOM     12  C   UNL     1      33.549 -20.085 -20.639  0.00  0.00    +0.069 C 
BRANCH  12  14
ATOM     13  O   UNL     1      32.707 -21.860 -19.228  0.00  0.00    -0.296 OA
ATOM     14  C   UNL     1      33.679 -21.267 -19.693  0.00  0.00    +0.151 C 
ATOM     15  C   UNL     1      35.084 -21.683 -19.341  0.00  0.00    +0.072 C 
ENDBRANCH  12  14
ENDBRANCH  11  12
ENDBRANCH   1  11
TORSDOF 5
ENDMDL
MODEL 2
REMARK VINA RESULT:      -7.8      1.355      6.111
REMARK  Name = 31211
REMARK  5 active torsions:
REMARK  status: ('A' for Active; 'I' for Inactive)
REMARK    1  A    between atoms: C_1  and  C_11
REMARK    2  A    between atoms: C_4  and  O_7
REMARK    3  A    between atoms: C_6  and  O_9
REMARK    4  A    between atoms: C_11  and  C_12
REMARK    5  A    between atoms: C_12  and  C_14
REMARK                            x       y       z     vdW  Elec       q    Type
REMARK                         _______ _______ _______ _____ _____    ______ ____
ROOT
ATOM      1  C   UNL     1      35.017 -19.607 -21.017  0.00  0.00    -0.019 C 
ATOM      2  C   UNL     1      35.683 -20.535 -20.230  0.00  0.00    +0.036 C 
ATOM      3  C   UNL     1      33.631 -19.570 -21.063  0.00  0.00    -0.001 C 
ATOM      4  C   UNL     1      34.947 -21.445 -19.471  0.00  0.00    +0.172 C 
ATOM      5  C   UNL     1      32.895 -20.480 -20.305  0.00  0.00    +0.039 C 
ATOM      6  C   UNL     1      33.553 -21.418 -19.508  0.00  0.00    +0.168 C 
ENDROOT
BRANCH   4   7
ATOM      7  O   UNL     1      35.601 -22.355 -18.698  0.00  0.00    -0.468 OA
ATOM      8  C   UNL     1      36.561 -21.850 -17.772  0.00  0.00    +0.253 C 
ENDBRANCH   4   7
BRANCH   6   9
ATOM      9  O   UNL     1      32.823 -22.301 -18.771  0.00  0.00    -0.503 OA
ATOM     10  H   UNL     1      33.149 -22.604 -17.947  0.00  0.00    +0.292 HD
ENDBRANCH   6   9
BRANCH   1  11
ATOM     11  C   UNL     1      35.812 -18.624 -21.837  0.00  0.00    +0.034 C 
BRANCH  11  12
ATOM     12  C   UNL     1      34.920 -17.831 -22.790  0.00  0.00    +0.069 C 
BRANCH  12  14
ATOM     13  O   UNL     1      35.230 -15.505 -23.376  0.00  0.00    -0.296 OA
ATOM     14  C   UNL     1      34.957 -16.338 -22.513  0.00  0.00    +0.151 C 
ATOM     15  C   UNL     1      34.641 -15.918 -21.101  0.00  0.00    +0.072 C 
ENDBRANCH  12  14
ENDBRANCH  11  12
ENDBRANCH   1  11
TORSDOF 5
ENDMDL
MODEL 3
REMARK VINA RESULT:      -7.2      1.297      1.659
REMARK  Name = 31211
REMARK  5 active torsions:
REMARK  status: ('A' for Active; 'I' for Inactive)
REMARK    1  A    between atoms: C_1  and  C_11
REMARK    2  A    between atoms: C_4  and  O_7
REMARK    3  A    between atoms: C_6  and  O_9
REMARK    4  A    between atoms: C_11  and  C_12
REMARK    5  A    between atoms: C_12  and  C_14
REMARK                            x       y       z     vdW  Elec       q    Type
REMARK                         _______ _______ _______ _____ _____    ______ ____
ROOT
ATOM      1  C   UNL     1      34.915 -17.439 -22.548  0.00  0.00    -0.019 C 
ATOM      2  C   UNL     1      34.584 -16.095 -22.639  0.00  0.00    +0.036 C 
ATOM      3  C   UNL     1      34.917 -18.255 -23.670  0.00  0.00    -0.001 C 
ATOM      4  C   UNL     1      34.248 -15.554 -23.881  0.00  0.00    +0.172 C 
ATOM      5  C   UNL     1      34.581 -17.714 -24.911  0.00  0.00    +0.039 C 
ATOM      6  C   UNL     1      34.246 -16.364 -25.017  0.00  0.00    +0.168 C 
ENDROOT
BRANCH   4   7
ATOM      7  O   UNL     1      33.923 -14.235 -23.971  0.00  0.00    -0.468 OA
ATOM      8  C   UNL     1      32.872 -13.766 -23.129  0.00  0.00    +0.253 C 
ENDBRANCH   4   7
BRANCH   6   9
ATOM      9  O   UNL     1      33.921 -15.847 -26.234  0.00  0.00    -0.503 OA
ATOM     10  H   UNL     1      33.056 -15.962 -26.576  0.00  0.00    +0.292 HD
ENDBRANCH   6   9
BRANCH   1  11
ATOM     11  C   UNL     1      35.277 -18.022 -21.207  0.00  0.00    +0.034 C 
BRANCH  11  12
ATOM     12  C   UNL     1      35.470 -19.536 -21.283  0.00  0.00    +0.069 C 
BRANCH  12  14
ATOM     13  O   UNL     1      34.826 -21.128 -19.580  0.00  0.00    -0.296 OA
ATOM     14  C   UNL     1      34.480 -20.292 -20.413  0.00  0.00    +0.151 C 
ATOM     15  C   UNL     1      33.025 -19.965 -20.627  0.00  0.00    +0.072 C 
ENDBRANCH  12  14
ENDBRANCH  11  12
ENDBRANCH   1  11
TORSDOF 5
ENDMDL
MODEL 4
REMARK VINA RESULT:      -7.1      1.121      1.485
REMARK  Name = 31211
REMARK  5 active torsions:
REMARK  status: ('A' for Active; 'I' for Inactive)
REMARK    1  A    between atoms: C_1  and  C_11
REMARK    2  A    between atoms: C_4  and  O_7
REMARK    3  A    between atoms: C_6  and  O_9
REMARK    4  A    between atoms: C_11  and  C_12
REMARK    5  A    between atoms: C_12  and  C_14
REMARK                            x       y       z     vdW  Elec       q    Type
REMARK                         _______ _______ _______ _____ _____    ______ ____
ROOT
ATOM      1  C   UNL     1      34.912 -18.753 -21.762  0.00  0.00    -0.019 C 
ATOM      2  C   UNL     1      34.766 -17.596 -21.012  0.00  0.00    +0.036 C 
ATOM      3  C   UNL     1      35.062 -18.701 -23.140  0.00  0.00    -0.001 C 
ATOM      4  C   UNL     1      34.770 -16.357 -21.655  0.00  0.00    +0.172 C 
ATOM      5  C   UNL     1      35.067 -17.463 -23.782  0.00  0.00    +0.039 C 
ATOM      6  C   UNL     1      34.921 -16.290 -23.040  0.00  0.00    +0.168 C 
ENDROOT
BRANCH   4   7
ATOM      7  O   UNL     1      34.627 -15.220 -20.918  0.00  0.00    -0.468 OA
ATOM      8  C   UNL     1      33.297 -14.812 -20.607  0.00  0.00    +0.253 C 
ENDBRANCH   4   7
BRANCH   6   9
ATOM      9  O   UNL     1      34.928 -15.087 -23.678  0.00  0.00    -0.503 OA
ATOM     10  H   UNL     1      34.175 -14.531 -23.636  0.00  0.00    +0.292 HD
ENDBRANCH   6   9
BRANCH   1  11
ATOM     11  C   UNL     1      34.907 -20.091 -21.068  0.00  0.00    +0.034 C 
BRANCH  11  12
ATOM     12  C   UNL     1      33.573 -20.362 -20.375  0.00  0.00    +0.069 C 
BRANCH  12  14
ATOM     13  O   UNL     1      32.645 -22.096 -18.968  0.00  0.00    -0.296 OA
ATOM     14  C   UNL     1      33.645 -21.537 -19.416  0.00  0.00    +0.151 C 
ATOM     15  C   UNL     1      35.028 -21.992 -19.027  0.00  0.00    +0.072 C 
ENDBRANCH  12  14
ENDBRANCH  11  12
ENDBRANCH   1  11
TORSDOF 5
ENDMDL
MODEL 5
REMARK VINA RESULT:      -7.1      0.963      2.176
REMARK  Name = 31211
REMARK  5 active torsions:
REMARK  status: ('A' for Active; 'I' for Inactive)
REMARK    1  A    between atoms: C_1  and  C_11
REMARK    2  A    between atoms: C_4  and  O_7
REMARK    3  A    between atoms: C_6  and  O_9
REMARK    4  A    between atoms: C_11  and  C_12
REMARK    5  A    between atoms: C_12  and  C_14
REMARK                            x       y       z     vdW  Elec       q    Type
REMARK                         _______ _______ _______ _____ _____    ______ ____
ROOT
ATOM      1  C   UNL     1      34.762 -18.322 -21.820  0.00  0.00    -0.019 C 
ATOM      2  C   UNL     1      34.843 -18.057 -23.179  0.00  0.00    +0.036 C 
ATOM      3  C   UNL     1      34.695 -17.293 -20.892  0.00  0.00    -0.001 C 
ATOM      4  C   UNL     1      34.856 -16.733 -23.621  0.00  0.00    +0.172 C 
ATOM      5  C   UNL     1      34.709 -15.970 -21.333  0.00  0.00    +0.039 C 
ATOM      6  C   UNL     1      34.789 -15.690 -22.698  0.00  0.00    +0.168 C 
ENDROOT
BRANCH   4   7
ATOM      7  O   UNL     1      34.934 -16.473 -24.955  0.00  0.00    -0.468 OA
ATOM      8  C   UNL     1      33.722 -16.125 -25.621  0.00  0.00    +0.253 C 
ENDBRANCH   4   7
BRANCH   6   9
ATOM      9  O   UNL     1      34.800 -14.394 -23.117  0.00  0.00    -0.503 OA
ATOM     10  H   UNL     1      35.170 -13.728 -22.571  0.00  0.00    +0.292 HD
ENDBRANCH   6   9
BRANCH   1  11
ATOM     11  C   UNL     1      34.748 -19.751 -21.344  0.00  0.00    +0.034 C 
BRANCH  11  12
ATOM     12  C   UNL     1      33.449 -20.092 -20.616  0.00  0.00    +0.069 C 
BRANCH  12  14
ATOM     13  O   UNL     1      32.655 -21.825 -19.129  0.00  0.00    -0.296 OA
ATOM     14  C   UNL     1      33.610 -21.257 -19.656  0.00  0.00    +0.151 C 
ATOM     15  C   UNL     1      35.024 -21.691 -19.370  0.00  0.00    +0.072 C 
ENDBRANCH  12  14
ENDBRANCH  11  12
ENDBRANCH   1  11
TORSDOF 5
ENDMDL
MODEL 6
REMARK VINA RESULT:      -7.0      5.835      8.851
REMARK  Name = 31211
REMARK  5 active torsions:
REMARK  status: ('A' for Active; 'I' for Inactive)
REMARK    1  A    between atoms: C_1  and  C_11
REMARK    2  A    between atoms: C_4  and  O_7
REMARK    3  A    between atoms: C_6  and  O_9
REMARK    4  A    between atoms: C_11  and  C_12
REMARK    5  A    between atoms: C_12  and  C_14
REMARK                            x       y       z     vdW  Elec       q    Type
REMARK                         _______ _______ _______ _____ _____    ______ ____
ROOT
ATOM      1  C   UNL     1      31.591 -23.178 -15.550  0.00  0.00    -0.019 C 
ATOM      2  C   UNL     1      31.855 -23.112 -16.910  0.00  0.00    +0.036 C 
ATOM      3  C   UNL     1      32.620 -23.255 -14.623  0.00  0.00    -0.001 C 
ATOM      4  C   UNL     1      33.179 -23.123 -17.353  0.00  0.00    +0.172 C 
ATOM      5  C   UNL     1      33.943 -23.265 -15.066  0.00  0.00    +0.039 C 
ATOM      6  C   UNL     1      34.222 -23.199 -16.431  0.00  0.00    +0.168 C 
ENDROOT
BRANCH   4   7
ATOM      7  O   UNL     1      33.438 -23.058 -18.689  0.00  0.00    -0.468 OA
ATOM      8  C   UNL     1      33.490 -21.760 -19.277  0.00  0.00    +0.253 C 
ENDBRANCH   4   7
BRANCH   6   9
ATOM      9  O   UNL     1      35.518 -23.209 -16.852  0.00  0.00    -0.503 OA
ATOM     10  H   UNL     1      36.046 -23.972 -16.722  0.00  0.00    +0.292 HD
ENDBRANCH   6   9
BRANCH   1  11
ATOM     11  C   UNL     1      30.162 -23.167 -15.072  0.00  0.00    +0.034 C 
BRANCH  11  12
ATOM     12  C   UNL     1      29.321 -24.227 -15.781  0.00  0.00    +0.069 C 
BRANCH  12  14
ATOM     13  O   UNL     1      27.726 -24.095 -17.593  0.00  0.00    -0.296 OA
ATOM     14  C   UNL     1      28.148 -23.627 -16.537  0.00  0.00    +0.151 C 
ATOM     15  C   UNL     1      27.516 -22.406 -15.921  0.00  0.00    +0.072 C 
ENDBRANCH  12  14
ENDBRANCH  11  12
ENDBRANCH   1  11
TORSDOF 5
ENDMDL
MODEL 7
REMARK VINA RESULT:      -7.0      2.131      3.480
REMARK  Name = 31211
REMARK  5 active torsions:
REMARK  status: ('A' for Active; 'I' for Inactive)
REMARK    1  A    between atoms: C_1  and  C_11
REMARK    2  A    between atoms: C_4  and  O_7
REMARK    3  A    between atoms: C_6  and  O_9
REMARK    4  A    between atoms: C_11  and  C_12
REMARK    5  A    between atoms: C_12  and  C_14
REMARK                            x       y       z     vdW  Elec       q    Type
REMARK                         _______ _______ _______ _____ _____    ______ ____
ROOT
ATOM      1  C   UNL     1      34.380 -16.327 -22.142  0.00  0.00    -0.019 C 
ATOM      2  C   UNL     1      34.393 -15.568 -23.303  0.00  0.00    +0.036 C 
ATOM      3  C   UNL     1      33.530 -16.015 -21.091  0.00  0.00    -0.001 C 
ATOM      4  C   UNL     1      33.536 -14.473 -23.416  0.00  0.00    +0.172 C 
ATOM      5  C   UNL     1      32.673 -14.921 -21.204  0.00  0.00    +0.039 C 
ATOM      6  C   UNL     1      32.676 -14.150 -22.367  0.00  0.00    +0.168 C 
ENDROOT
BRANCH   4   7
ATOM      7  O   UNL     1      33.548 -13.729 -24.556  0.00  0.00    -0.468 OA
ATOM      8  C   UNL     1      32.934 -14.299 -25.710  0.00  0.00    +0.253 C 
ENDBRANCH   4   7
BRANCH   6   9
ATOM      9  O   UNL     1      31.834 -13.084 -22.467  0.00  0.00    -0.503 OA
ATOM     10  H   UNL     1      32.178 -12.213 -22.460  0.00  0.00    +0.292 HD
ENDBRANCH   6   9
BRANCH   1  11
ATOM     11  C   UNL     1      35.307 -17.509 -22.020  0.00  0.00    +0.034 C 
BRANCH  11  12
ATOM     12  C   UNL     1      34.566 -18.830 -22.215  0.00  0.00    +0.069 C 
BRANCH  12  14
ATOM     13  O   UNL     1      35.454 -19.904 -20.238  0.00  0.00    -0.296 OA
ATOM     14  C   UNL     1      34.473 -19.640 -20.933  0.00  0.00    +0.151 C 
ATOM     15  C   UNL     1      33.097 -20.116 -20.547  0.00  0.00    +0.072 C 
ENDBRANCH  12  14
ENDBRANCH  11  12
ENDBRANCH   1  11
TORSDOF 5
ENDMDL
MODEL 8
REMARK VINA RESULT:      -6.8      2.300      5.590
REMARK  Name = 31211
REMARK  5 active torsions:
REMARK  status: ('A' for Active; 'I' for Inactive)
REMARK    1  A    between atoms: C_1  and  C_11
REMARK    2  A    between atoms: C_4  and  O_7
REMARK    3  A    between atoms: C_6  and  O_9
REMARK    4  A    between atoms: C_11  and  C_12
REMARK    5  A    between atoms: C_12  and  C_14
REMARK                            x       y       z     vdW  Elec       q    Type
REMARK                         _______ _______ _______ _____ _____    ______ ____
ROOT
ATOM      1  C   UNL     1      34.860 -17.259 -24.067  0.00  0.00    -0.019 C 
ATOM      2  C   UNL     1      34.964 -16.556 -22.877  0.00  0.00    +0.036 C 
ATOM      3  C   UNL     1      34.827 -18.646 -24.080  0.00  0.00    -0.001 C 
ATOM      4  C   UNL     1      35.036 -17.255 -21.671  0.00  0.00    +0.172 C 
ATOM      5  C   UNL     1      34.899 -19.344 -22.875  0.00  0.00    +0.039 C 
ATOM      6  C   UNL     1      35.004 -18.649 -21.670  0.00  0.00    +0.168 C 
ENDROOT
BRANCH   4   7
ATOM      7  O   UNL     1      35.138 -16.564 -20.502  0.00  0.00    -0.468 OA
ATOM      8  C   UNL     1      34.517 -15.281 -20.449  0.00  0.00    +0.253 C 
ENDBRANCH   4   7
BRANCH   6   9
ATOM      9  O   UNL     1      35.072 -19.342 -20.500  0.00  0.00    -0.503 OA
ATOM     10  H   UNL     1      35.426 -20.209 -20.489  0.00  0.00    +0.292 HD
ENDBRANCH   6   9
BRANCH   1  11
ATOM     11  C   UNL     1      34.783 -16.504 -25.369  0.00  0.00    +0.034 C 
BRANCH  11  12
ATOM     12  C   UNL     1      33.351 -16.082 -25.693  0.00  0.00    +0.069 C 
BRANCH  12  14
ATOM     13  O   UNL     1      32.913 -14.015 -24.516  0.00  0.00    -0.296 OA
ATOM     14  C   UNL     1      33.149 -14.580 -25.583  0.00  0.00    +0.151 C 
ATOM     15  C   UNL     1      33.249 -13.802 -26.869  0.00  0.00    +0.072 C 
ENDBRANCH  12  14
ENDBRANCH  11  12
ENDBRANCH   1  11
TORSDOF 5
ENDMDL
MODEL 9
REMARK VINA RESULT:      -6.7      2.422      4.191
REMARK  Name = 31211
REMARK  5 active torsions:
REMARK  status: ('A' for Active; 'I' for Inactive)
REMARK    1  A    between atoms: C_1  and  C_11
REMARK    2  A    between atoms: C_4  and  O_7
REMARK    3  A    between atoms: C_6  and  O_9
REMARK    4  A    between atoms: C_11  and  C_12
REMARK    5  A    between atoms: C_12  and  C_14
REMARK                            x       y       z     vdW  Elec       q    Type
REMARK                         _______ _______ _______ _____ _____    ______ ____
ROOT
ATOM      1  C   UNL     1      34.091 -15.714 -21.455  0.00  0.00    -0.019 C 
ATOM      2  C   UNL     1      34.124 -15.223 -22.751  0.00  0.00    +0.036 C 
ATOM      3  C   UNL     1      33.252 -15.159 -20.499  0.00  0.00    -0.001 C 
ATOM      4  C   UNL     1      33.298 -14.153 -23.101  0.00  0.00    +0.172 C 
ATOM      5  C   UNL     1      32.427 -14.090 -20.849  0.00  0.00    +0.039 C 
ATOM      6  C   UNL     1      32.450 -13.587 -22.150  0.00  0.00    +0.168 C 
ENDROOT
BRANCH   4   7
ATOM      7  O   UNL     1      33.330 -13.672 -24.375  0.00  0.00    -0.468 OA
ATOM      8  C   UNL     1      33.090 -14.604 -25.427  0.00  0.00    +0.253 C 
ENDBRANCH   4   7
BRANCH   6   9
ATOM      9  O   UNL     1      31.640 -12.543 -22.480  0.00  0.00    -0.503 OA
ATOM     10  H   UNL     1      30.867 -12.693 -22.987  0.00  0.00    +0.292 HD
ENDBRANCH   6   9
BRANCH   1  11
ATOM     11  C   UNL     1      34.982 -16.869 -21.078  0.00  0.00    +0.034 C 
BRANCH  11  12
ATOM     12  C   UNL     1      35.516 -17.597 -22.310  0.00  0.00    +0.069 C 
BRANCH  12  14
ATOM     13  O   UNL     1      34.844 -19.506 -23.634  0.00  0.00    -0.296 OA
ATOM     14  C   UNL     1      34.813 -18.922 -22.551  0.00  0.00    +0.151 C 
ATOM     15  C   UNL     1      34.059 -19.496 -21.381  0.00  0.00    +0.072 C 
ENDBRANCH  12  14
ENDBRANCH  11  12
ENDBRANCH   1  11
TORSDOF 5
ENDMDL
