MODEL 1
REMARK VINA RESULT:      -8.8      0.000      0.000
REMARK  Name = 23640756
REMARK  13 active torsions:
REMARK  status: ('A' for Active; 'I' for Inactive)
REMARK    1  A    between atoms: N_2  and  C_17
REMARK    2  A    between atoms: C_3  and  C_5
REMARK    3  A    between atoms: C_5  and  C_6
REMARK    4  A    between atoms: C_6  and  C_7
REMARK    5  A    between atoms: C_7  and  C_8
REMARK    6  A    between atoms: C_8  and  C_9
REMARK    7  A    between atoms: C_9  and  C_10
REMARK    8  A    between atoms: C_10  and  C_13
REMARK    9  A    between atoms: N_12  and  O_15
REMARK   10  A    between atoms: C_17  and  C_19
REMARK   11  A    between atoms: C_17  and  C_22
REMARK   12  A    between atoms: C_19  and  O_20
REMARK   13  A    between atoms: C_22  and  C_24
REMARK                            x       y       z     vdW  Elec       q    Type
REMARK                         _______ _______ _______ _____ _____    ______ ____
ROOT
ATOM      1  O   UNL     1      36.294 -22.006 -16.032  0.00  0.00    -0.275 OA
ATOM      2  N   UNL     1      34.776 -23.757 -16.178  0.00  0.00    -0.297 N 
ATOM      3  C   UNL     1      36.006 -23.191 -15.878  0.00  0.00    +0.223 C 
ATOM      4  H   UNL     1      34.648 -24.719 -16.017  0.00  0.00    +0.150 HD
ENDROOT
BRANCH   3   5
ATOM      5  C   UNL     1      36.970 -24.215 -15.301  0.00  0.00    +0.085 C 
BRANCH   5   6
ATOM      6  C   UNL     1      36.378 -25.620 -15.188  0.00  0.00    +0.010 C 
BRANCH   6   7
ATOM      7  C   UNL     1      37.235 -26.542 -14.313  0.00  0.00    +0.001 C 
BRANCH   7   8
ATOM      8  C   UNL     1      38.298 -25.794 -13.503  0.00  0.00    +0.001 C 
BRANCH   8   9
ATOM      9  C   UNL     1      37.954 -25.672 -12.018  0.00  0.00    +0.010 C 
BRANCH   9  10
ATOM     10  C   UNL     1      37.355 -24.303 -11.699  0.00  0.00    +0.087 C 
BRANCH  10  13
ATOM     11  O   UNL     1      35.277 -25.056 -10.713  0.00  0.00    -0.273 OA
ATOM     12  N   UNL     1      35.218 -23.508 -12.427  0.00  0.00    -0.197 N 
ATOM     13  C   UNL     1      35.847 -24.351 -11.542  0.00  0.00    +0.244 C 
ATOM     14  H   UNL     1      35.720 -22.961 -13.074  0.00  0.00    +0.182 HD
BRANCH  12  15
ATOM     15  O   UNL     1      33.820 -23.475 -12.354  0.00  0.00    -0.295 OA
ATOM     16  H   UNL     1      33.461 -24.336 -12.619  0.00  0.00    +0.241 HD
ENDBRANCH  12  15
ENDBRANCH  10  13
ENDBRANCH   9  10
ENDBRANCH   8   9
ENDBRANCH   7   8
ENDBRANCH   6   7
ENDBRANCH   5   6
ENDBRANCH   3   5
BRANCH   2  17
ATOM     17  C   UNL     1      33.676 -22.992 -16.717  0.00  0.00    +0.176 C 
BRANCH  17  19
ATOM     18  O   UNL     1      32.335 -23.816 -14.884  0.00  0.00    -0.248 OA
ATOM     19  C   UNL     1      32.375 -23.240 -15.967  0.00  0.00    +0.335 C 
BRANCH  19  20
ATOM     20  O   UNL     1      31.292 -22.766 -16.645  0.00  0.00    -0.443 OA
ATOM     21  C   UNL     1      30.030 -23.325 -16.269  0.00  0.00    +0.256 C 
ENDBRANCH  19  20
ENDBRANCH  17  19
BRANCH  17  22
ATOM     22  C   UNL     1      33.522 -23.223 -18.227  0.00  0.00    +0.057 C 
BRANCH  22  24
ATOM     23 BR   UNL     1      35.504 -18.569 -21.761  0.00  0.00    -0.049 Br
ATOM     24  C   UNL     1      34.007 -22.082 -19.093  0.00  0.00    -0.020 C 
ATOM     25  C   UNL     1      33.085 -21.198 -19.628  0.00  0.00    -0.004 C 
ATOM     26  C   UNL     1      35.363 -21.945 -19.333  0.00  0.00    -0.004 C 
ATOM     27  C   UNL     1      33.533 -20.146 -20.427  0.00  0.00    +0.006 C 
ATOM     28  C   UNL     1      35.812 -20.893 -20.132  0.00  0.00    +0.006 C 
ATOM     29  C   UNL     1      34.897 -19.994 -20.679  0.00  0.00    +0.035 C 
ENDBRANCH  22  24
ENDBRANCH  17  22
ENDBRANCH   2  17
TORSDOF 13
ENDMDL
MODEL 2
REMARK VINA RESULT:      -8.7      2.061      2.855
REMARK  Name = 23640756
REMARK  13 active torsions:
REMARK  status: ('A' for Active; 'I' for Inactive)
REMARK    1  A    between atoms: N_2  and  C_17
REMARK    2  A    between atoms: C_3  and  C_5
REMARK    3  A    between atoms: C_5  and  C_6
REMARK    4  A    between atoms: C_6  and  C_7
REMARK    5  A    between atoms: C_7  and  C_8
REMARK    6  A    between atoms: C_8  and  C_9
REMARK    7  A    between atoms: C_9  and  C_10
REMARK    8  A    between atoms: C_10  and  C_13
REMARK    9  A    between atoms: N_12  and  O_15
REMARK   10  A    between atoms: C_17  and  C_19
REMARK   11  A    between atoms: C_17  and  C_22
REMARK   12  A    between atoms: C_19  and  O_20
REMARK   13  A    between atoms: C_22  and  C_24
REMARK                            x       y       z     vdW  Elec       q    Type
REMARK                         _______ _______ _______ _____ _____    ______ ____
ROOT
ATOM      1  O   UNL     1      35.666 -22.453 -15.692  0.00  0.00    -0.275 OA
ATOM      2  N   UNL     1      33.739 -23.742 -15.827  0.00  0.00    -0.297 N 
ATOM      3  C   UNL     1      35.004 -23.430 -15.350  0.00  0.00    +0.223 C 
ATOM      4  H   UNL     1      33.294 -24.551 -15.488  0.00  0.00    +0.150 HD
ENDROOT
BRANCH   3   5
ATOM      5  C   UNL     1      35.478 -24.438 -14.316  0.00  0.00    +0.085 C 
BRANCH   5   6
ATOM      6  C   UNL     1      34.784 -24.302 -12.961  0.00  0.00    +0.010 C 
BRANCH   6   7
ATOM      7  C   UNL     1      35.784 -24.210 -11.803  0.00  0.00    +0.001 C 
BRANCH   7   8
ATOM      8  C   UNL     1      36.969 -23.285 -12.097  0.00  0.00    +0.001 C 
BRANCH   8   9
ATOM      9  C   UNL     1      38.327 -23.966 -11.921  0.00  0.00    +0.010 C 
BRANCH   9  10
ATOM     10  C   UNL     1      38.375 -25.305 -12.654  0.00  0.00    +0.087 C 
BRANCH  10  13
ATOM     11  O   UNL     1      38.999 -24.386 -14.804  0.00  0.00    -0.273 OA
ATOM     12  N   UNL     1      40.132 -26.229 -13.993  0.00  0.00    -0.197 N 
ATOM     13  C   UNL     1      39.182 -25.237 -13.937  0.00  0.00    +0.244 C 
ATOM     14  H   UNL     1      40.240 -26.889 -13.270  0.00  0.00    +0.182 HD
BRANCH  12  15
ATOM     15  O   UNL     1      40.937 -26.244 -15.139  0.00  0.00    -0.295 OA
ATOM     16  H   UNL     1      40.747 -27.042 -15.657  0.00  0.00    +0.241 HD
ENDBRANCH  12  15
ENDBRANCH  10  13
ENDBRANCH   9  10
ENDBRANCH   8   9
ENDBRANCH   7   8
ENDBRANCH   6   7
ENDBRANCH   5   6
ENDBRANCH   3   5
BRANCH   2  17
ATOM     17  C   UNL     1      33.051 -22.929 -16.802  0.00  0.00    +0.176 C 
BRANCH  17  19
ATOM     18  O   UNL     1      30.781 -22.241 -17.263  0.00  0.00    -0.248 OA
ATOM     19  C   UNL     1      31.540 -22.960 -16.620  0.00  0.00    +0.335 C 
BRANCH  19  20
ATOM     20  O   UNL     1      31.155 -23.854 -15.666  0.00  0.00    -0.443 OA
ATOM     21  C   UNL     1      30.378 -23.318 -14.590  0.00  0.00    +0.256 C 
ENDBRANCH  19  20
ENDBRANCH  17  19
BRANCH  17  22
ATOM     22  C   UNL     1      33.466 -23.301 -18.232  0.00  0.00    +0.057 C 
BRANCH  22  24
ATOM     23 BR   UNL     1      35.719 -18.621 -21.564  0.00  0.00    -0.049 Br
ATOM     24  C   UNL     1      34.017 -22.154 -19.049  0.00  0.00    -0.020 C 
ATOM     25  C   UNL     1      33.140 -21.293 -19.687  0.00  0.00    -0.004 C 
ATOM     26  C   UNL     1      35.388 -21.987 -19.141  0.00  0.00    -0.004 C 
ATOM     27  C   UNL     1      33.649 -20.235 -20.440  0.00  0.00    +0.006 C 
ATOM     28  C   UNL     1      35.898 -20.929 -19.894  0.00  0.00    +0.006 C 
ATOM     29  C   UNL     1      35.029 -20.054 -20.544  0.00  0.00    +0.035 C 
ENDBRANCH  22  24
ENDBRANCH  17  22
ENDBRANCH   2  17
TORSDOF 13
ENDMDL
MODEL 3
REMARK VINA RESULT:      -8.5      7.909     11.879
REMARK  Name = 23640756
REMARK  13 active torsions:
REMARK  status: ('A' for Active; 'I' for Inactive)
REMARK    1  A    between atoms: N_2  and  C_17
REMARK    2  A    between atoms: C_3  and  C_5
REMARK    3  A    between atoms: C_5  and  C_6
REMARK    4  A    between atoms: C_6  and  C_7
REMARK    5  A    between atoms: C_7  and  C_8
REMARK    6  A    between atoms: C_8  and  C_9
REMARK    7  A    between atoms: C_9  and  C_10
REMARK    8  A    between atoms: C_10  and  C_13
REMARK    9  A    between atoms: N_12  and  O_15
REMARK   10  A    between atoms: C_17  and  C_19
REMARK   11  A    between atoms: C_17  and  C_22
REMARK   12  A    between atoms: C_19  and  O_20
REMARK   13  A    between atoms: C_22  and  C_24
REMARK                            x       y       z     vdW  Elec       q    Type
REMARK                         _______ _______ _______ _____ _____    ______ ____
ROOT
ATOM      1  O   UNL     1      34.939 -15.550 -20.048  0.00  0.00    -0.275 OA
ATOM      2  N   UNL     1      33.689 -16.987 -21.376  0.00  0.00    -0.297 N 
ATOM      3  C   UNL     1      33.899 -15.831 -20.638  0.00  0.00    +0.223 C 
ATOM      4  H   UNL     1      32.816 -17.116 -21.811  0.00  0.00    +0.150 HD
ENDROOT
BRANCH   3   5
ATOM      5  C   UNL     1      32.682 -14.921 -20.662  0.00  0.00    +0.085 C 
BRANCH   5   6
ATOM      6  C   UNL     1      32.536 -14.124 -21.957  0.00  0.00    +0.010 C 
BRANCH   6   7
ATOM      7  C   UNL     1      31.977 -12.717 -21.714  0.00  0.00    +0.001 C 
BRANCH   7   8
ATOM      8  C   UNL     1      31.916 -12.337 -20.231  0.00  0.00    +0.001 C 
BRANCH   8   9
ATOM      9  C   UNL     1      31.454 -10.898 -19.993  0.00  0.00    +0.010 C 
BRANCH   9  10
ATOM     10  C   UNL     1      31.561 -10.064 -21.269  0.00  0.00    +0.087 C 
BRANCH  10  13
ATOM     11  O   UNL     1      33.032  -8.296 -22.022  0.00  0.00    -0.273 OA
ATOM     12  N   UNL     1      32.481  -8.429 -19.782  0.00  0.00    -0.197 N 
ATOM     13  C   UNL     1      32.442  -8.841 -21.092  0.00  0.00    +0.244 C 
ATOM     14  H   UNL     1      31.988  -8.900 -19.071  0.00  0.00    +0.182 HD
BRANCH  12  15
ATOM     15  O   UNL     1      33.263  -7.298 -19.518  0.00  0.00    -0.295 OA
ATOM     16  H   UNL     1      33.579  -7.329 -18.602  0.00  0.00    +0.241 HD
ENDBRANCH  12  15
ENDBRANCH  10  13
ENDBRANCH   9  10
ENDBRANCH   8   9
ENDBRANCH   7   8
ENDBRANCH   6   7
ENDBRANCH   5   6
ENDBRANCH   3   5
BRANCH   2  17
ATOM     17  C   UNL     1      34.699 -18.006 -21.532  0.00  0.00    +0.176 C 
BRANCH  17  19
ATOM     18  O   UNL     1      36.812 -18.210 -22.687  0.00  0.00    -0.248 OA
ATOM     19  C   UNL     1      35.723 -17.649 -22.600  0.00  0.00    +0.335 C 
BRANCH  19  20
ATOM     20  O   UNL     1      35.292 -16.643 -23.412  0.00  0.00    -0.443 OA
ATOM     21  C   UNL     1      34.675 -17.053 -24.636  0.00  0.00    +0.256 C 
ENDBRANCH  19  20
ENDBRANCH  17  19
BRANCH  17  22
ATOM     22  C   UNL     1      34.068 -19.384 -21.779  0.00  0.00    +0.057 C 
BRANCH  22  24
ATOM     23 BR   UNL     1      34.514 -23.306 -17.035  0.00  0.00    -0.049 Br
ATOM     24  C   UNL     1      34.176 -20.345 -20.616  0.00  0.00    -0.020 C 
ATOM     25  C   UNL     1      33.021 -20.835 -20.032  0.00  0.00    -0.004 C 
ATOM     26  C   UNL     1      35.430 -20.717 -20.161  0.00  0.00    -0.004 C 
ATOM     27  C   UNL     1      33.121 -21.722 -18.960  0.00  0.00    +0.006 C 
ATOM     28  C   UNL     1      35.531 -21.603 -19.088  0.00  0.00    +0.006 C 
ATOM     29  C   UNL     1      34.377 -22.106 -18.488  0.00  0.00    +0.035 C 
ENDBRANCH  22  24
ENDBRANCH  17  22
ENDBRANCH   2  17
TORSDOF 13
ENDMDL
MODEL 4
REMARK VINA RESULT:      -8.5      4.935      7.639
REMARK  Name = 23640756
REMARK  13 active torsions:
REMARK  status: ('A' for Active; 'I' for Inactive)
REMARK    1  A    between atoms: N_2  and  C_17
REMARK    2  A    between atoms: C_3  and  C_5
REMARK    3  A    between atoms: C_5  and  C_6
REMARK    4  A    between atoms: C_6  and  C_7
REMARK    5  A    between atoms: C_7  and  C_8
REMARK    6  A    between atoms: C_8  and  C_9
REMARK    7  A    between atoms: C_9  and  C_10
REMARK    8  A    between atoms: C_10  and  C_13
REMARK    9  A    between atoms: N_12  and  O_15
REMARK   10  A    between atoms: C_17  and  C_19
REMARK   11  A    between atoms: C_17  and  C_22
REMARK   12  A    between atoms: C_19  and  O_20
REMARK   13  A    between atoms: C_22  and  C_24
REMARK                            x       y       z     vdW  Elec       q    Type
REMARK                         _______ _______ _______ _____ _____    ______ ____
ROOT
ATOM      1  O   UNL     1      32.700 -20.447 -20.831  0.00  0.00    -0.275 OA
ATOM      2  N   UNL     1      34.821 -19.531 -20.597  0.00  0.00    -0.297 N 
ATOM      3  C   UNL     1      33.827 -20.464 -20.341  0.00  0.00    +0.223 C 
ATOM      4  H   UNL     1      35.692 -19.636 -20.152  0.00  0.00    +0.150 HD
ENDROOT
BRANCH   3   5
ATOM      5  C   UNL     1      34.305 -21.546 -19.387  0.00  0.00    +0.085 C 
BRANCH   5   6
ATOM      6  C   UNL     1      33.172 -22.283 -18.674  0.00  0.00    +0.010 C 
BRANCH   6   7
ATOM      7  C   UNL     1      33.673 -23.109 -17.485  0.00  0.00    +0.001 C 
BRANCH   7   8
ATOM      8  C   UNL     1      32.612 -23.316 -16.400  0.00  0.00    +0.001 C 
BRANCH   8   9
ATOM      9  C   UNL     1      31.255 -22.706 -16.755  0.00  0.00    +0.010 C 
BRANCH   9  10
ATOM     10  C   UNL     1      30.164 -23.188 -15.800  0.00  0.00    +0.087 C 
BRANCH  10  13
ATOM     11  O   UNL     1      28.101 -21.944 -15.569  0.00  0.00    -0.273 OA
ATOM     12  N   UNL     1      28.400 -23.302 -17.413  0.00  0.00    -0.197 N 
ATOM     13  C   UNL     1      28.780 -22.733 -16.222  0.00  0.00    +0.244 C 
ATOM     14  H   UNL     1      28.981 -23.930 -17.901  0.00  0.00    +0.182 HD
BRANCH  12  15
ATOM     15  O   UNL     1      27.136 -22.935 -17.893  0.00  0.00    -0.295 OA
ATOM     16  H   UNL     1      26.520 -23.676 -17.781  0.00  0.00    +0.241 HD
ENDBRANCH  12  15
ENDBRANCH  10  13
ENDBRANCH   9  10
ENDBRANCH   8   9
ENDBRANCH   7   8
ENDBRANCH   6   7
ENDBRANCH   5   6
ENDBRANCH   3   5
BRANCH   2  17
ATOM     17  C   UNL     1      34.630 -18.413 -21.490  0.00  0.00    +0.176 C 
BRANCH  17  19
ATOM     18  O   UNL     1      36.448 -18.552 -23.076  0.00  0.00    -0.248 OA
ATOM     19  C   UNL     1      35.244 -18.655 -22.863  0.00  0.00    +0.335 C 
BRANCH  19  20
ATOM     20  O   UNL     1      34.305 -18.976 -23.797  0.00  0.00    -0.443 OA
ATOM     21  C   UNL     1      34.312 -18.178 -24.984  0.00  0.00    +0.256 C 
ENDBRANCH  19  20
ENDBRANCH  17  19
BRANCH  17  22
ATOM     22  C   UNL     1      35.127 -17.104 -20.861  0.00  0.00    +0.057 C 
BRANCH  22  24
ATOM     23 BR   UNL     1      31.962 -12.076 -22.529  0.00  0.00    -0.049 Br
ATOM     24  C   UNL     1      34.352 -15.872 -21.271  0.00  0.00    -0.020 C 
ATOM     25  C   UNL     1      34.611 -15.285 -22.498  0.00  0.00    -0.004 C 
ATOM     26  C   UNL     1      33.398 -15.356 -20.410  0.00  0.00    -0.004 C 
ATOM     27  C   UNL     1      33.896 -14.148 -22.875  0.00  0.00    +0.006 C 
ATOM     28  C   UNL     1      32.682 -14.219 -20.787  0.00  0.00    +0.006 C 
ATOM     29  C   UNL     1      32.931 -13.615 -22.019  0.00  0.00    +0.035 C 
ENDBRANCH  22  24
ENDBRANCH  17  22
ENDBRANCH   2  17
TORSDOF 13
ENDMDL
MODEL 5
REMARK VINA RESULT:      -8.5      4.501      8.634
REMARK  Name = 23640756
REMARK  13 active torsions:
REMARK  status: ('A' for Active; 'I' for Inactive)
REMARK    1  A    between atoms: N_2  and  C_17
REMARK    2  A    between atoms: C_3  and  C_5
REMARK    3  A    between atoms: C_5  and  C_6
REMARK    4  A    between atoms: C_6  and  C_7
REMARK    5  A    between atoms: C_7  and  C_8
REMARK    6  A    between atoms: C_8  and  C_9
REMARK    7  A    between atoms: C_9  and  C_10
REMARK    8  A    between atoms: C_10  and  C_13
REMARK    9  A    between atoms: N_12  and  O_15
REMARK   10  A    between atoms: C_17  and  C_19
REMARK   11  A    between atoms: C_17  and  C_22
REMARK   12  A    between atoms: C_19  and  O_20
REMARK   13  A    between atoms: C_22  and  C_24
REMARK                            x       y       z     vdW  Elec       q    Type
REMARK                         _______ _______ _______ _____ _____    ______ ____
ROOT
ATOM      1  O   UNL     1      33.865 -23.969 -19.192  0.00  0.00    -0.275 OA
ATOM      2  N   UNL     1      33.326 -22.464 -17.508  0.00  0.00    -0.297 N 
ATOM      3  C   UNL     1      33.801 -22.820 -18.762  0.00  0.00    +0.223 C 
ATOM      4  H   UNL     1      33.317 -21.512 -17.260  0.00  0.00    +0.150 HD
ENDROOT
BRANCH   3   5
ATOM      5  C   UNL     1      34.218 -21.602 -19.570  0.00  0.00    +0.085 C 
BRANCH   5   6
ATOM      6  C   UNL     1      33.059 -20.672 -19.924  0.00  0.00    +0.010 C 
BRANCH   6   7
ATOM      7  C   UNL     1      33.466 -19.595 -20.936  0.00  0.00    +0.001 C 
BRANCH   7   8
ATOM      8  C   UNL     1      34.912 -19.734 -21.421  0.00  0.00    +0.001 C 
BRANCH   8   9
ATOM      9  C   UNL     1      35.205 -18.935 -22.692  0.00  0.00    +0.010 C 
BRANCH   9  10
ATOM     10  C   UNL     1      35.477 -17.466 -22.372  0.00  0.00    +0.087 C 
BRANCH  10  13
ATOM     11  O   UNL     1      35.006 -15.335 -23.418  0.00  0.00    -0.273 OA
ATOM     12  N   UNL     1      35.069 -17.242 -24.720  0.00  0.00    -0.197 N 
ATOM     13  C   UNL     1      35.157 -16.549 -23.537  0.00  0.00    +0.244 C 
ATOM     14  H   UNL     1      35.199 -18.218 -24.765  0.00  0.00    +0.182 HD
BRANCH  12  15
ATOM     15  O   UNL     1      34.786 -16.479 -25.860  0.00  0.00    -0.295 OA
ATOM     16  H   UNL     1      35.147 -16.921 -26.644  0.00  0.00    +0.241 HD
ENDBRANCH  12  15
ENDBRANCH  10  13
ENDBRANCH   9  10
ENDBRANCH   8   9
ENDBRANCH   7   8
ENDBRANCH   6   7
ENDBRANCH   5   6
ENDBRANCH   3   5
BRANCH   2  17
ATOM     17  C   UNL     1      32.843 -23.434 -16.553  0.00  0.00    +0.176 C 
BRANCH  17  19
ATOM     18  O   UNL     1      30.619 -22.611 -17.016  0.00  0.00    -0.248 OA
ATOM     19  C   UNL     1      31.324 -23.444 -16.454  0.00  0.00    +0.335 C 
BRANCH  19  20
ATOM     20  O   UNL     1      30.866 -24.459 -15.669  0.00  0.00    -0.443 OA
ATOM     21  C   UNL     1      29.471 -24.422 -15.356  0.00  0.00    +0.256 C 
ENDBRANCH  19  20
ENDBRANCH  17  19
BRANCH  17  22
ATOM     22  C   UNL     1      33.508 -23.246 -15.182  0.00  0.00    +0.057 C 
BRANCH  22  24
ATOM     23 BR   UNL     1      39.336 -25.247 -14.846  0.00  0.00    -0.049 Br
ATOM     24  C   UNL     1      34.936 -23.735 -15.100  0.00  0.00    -0.020 C 
ATOM     25  C   UNL     1      35.972 -22.822 -15.192  0.00  0.00    -0.004 C 
ATOM     26  C   UNL     1      35.179 -25.088 -14.933  0.00  0.00    -0.004 C 
ATOM     27  C   UNL     1      37.290 -23.273 -15.116  0.00  0.00    +0.006 C 
ATOM     28  C   UNL     1      36.496 -25.541 -14.857  0.00  0.00    +0.006 C 
ATOM     29  C   UNL     1      37.551 -24.634 -14.949  0.00  0.00    +0.035 C 
ENDBRANCH  22  24
ENDBRANCH  17  22
ENDBRANCH   2  17
TORSDOF 13
ENDMDL
MODEL 6
REMARK VINA RESULT:      -8.4      8.844     12.008
REMARK  Name = 23640756
REMARK  13 active torsions:
REMARK  status: ('A' for Active; 'I' for Inactive)
REMARK    1  A    between atoms: N_2  and  C_17
REMARK    2  A    between atoms: C_3  and  C_5
REMARK    3  A    between atoms: C_5  and  C_6
REMARK    4  A    between atoms: C_6  and  C_7
REMARK    5  A    between atoms: C_7  and  C_8
REMARK    6  A    between atoms: C_8  and  C_9
REMARK    7  A    between atoms: C_9  and  C_10
REMARK    8  A    between atoms: C_10  and  C_13
REMARK    9  A    between atoms: N_12  and  O_15
REMARK   10  A    between atoms: C_17  and  C_19
REMARK   11  A    between atoms: C_17  and  C_22
REMARK   12  A    between atoms: C_19  and  O_20
REMARK   13  A    between atoms: C_22  and  C_24
REMARK                            x       y       z     vdW  Elec       q    Type
REMARK                         _______ _______ _______ _____ _____    ______ ____
ROOT
ATOM      1  O   UNL     1      32.299 -13.638 -22.245  0.00  0.00    -0.275 OA
ATOM      2  N   UNL     1      34.188 -13.265 -23.544  0.00  0.00    -0.297 N 
ATOM      3  C   UNL     1      33.498 -13.797 -22.464  0.00  0.00    +0.223 C 
ATOM      4  H   UNL     1      35.150 -13.453 -23.627  0.00  0.00    +0.150 HD
ENDROOT
BRANCH   3   5
ATOM      5  C   UNL     1      34.403 -14.637 -21.579  0.00  0.00    +0.085 C 
BRANCH   5   6
ATOM      6  C   UNL     1      34.719 -16.017 -22.155  0.00  0.00    +0.010 C 
BRANCH   6   7
ATOM      7  C   UNL     1      34.120 -17.149 -21.313  0.00  0.00    +0.001 C 
BRANCH   7   8
ATOM      8  C   UNL     1      34.497 -18.545 -21.819  0.00  0.00    +0.001 C 
BRANCH   8   9
ATOM      9  C   UNL     1      33.907 -19.675 -20.974  0.00  0.00    +0.010 C 
BRANCH   9  10
ATOM     10  C   UNL     1      35.006 -20.541 -20.360  0.00  0.00    +0.087 C 
BRANCH  10  13
ATOM     11  O   UNL     1      35.166 -22.411 -18.832  0.00  0.00    -0.273 OA
ATOM     12  N   UNL     1      33.096 -21.482 -19.266  0.00  0.00    -0.197 N 
ATOM     13  C   UNL     1      34.459 -21.586 -19.406  0.00  0.00    +0.244 C 
ATOM     14  H   UNL     1      32.572 -20.802 -19.749  0.00  0.00    +0.182 HD
BRANCH  12  15
ATOM     15  O   UNL     1      32.496 -22.401 -18.396  0.00  0.00    -0.295 OA
ATOM     16  H   UNL     1      31.599 -22.103 -18.179  0.00  0.00    +0.241 HD
ENDBRANCH  12  15
ENDBRANCH  10  13
ENDBRANCH   9  10
ENDBRANCH   8   9
ENDBRANCH   7   8
ENDBRANCH   6   7
ENDBRANCH   5   6
ENDBRANCH   3   5
BRANCH   2  17
ATOM     17  C   UNL     1      33.552 -12.447 -24.549  0.00  0.00    +0.176 C 
BRANCH  17  19
ATOM     18  O   UNL     1      33.713 -12.762 -26.940  0.00  0.00    -0.248 OA
ATOM     19  C   UNL     1      33.336 -13.198 -25.856  0.00  0.00    +0.335 C 
BRANCH  19  20
ATOM     20  O   UNL     1      32.673 -14.374 -25.671  0.00  0.00    -0.443 OA
ATOM     21  C   UNL     1      33.442 -15.561 -25.888  0.00  0.00    +0.256 C 
ENDBRANCH  19  20
ENDBRANCH  17  19
BRANCH  17  22
ATOM     22  C   UNL     1      34.312 -11.130 -24.762  0.00  0.00    +0.057 C 
BRANCH  22  24
ATOM     23 BR   UNL     1      32.261  -6.398 -21.374  0.00  0.00    -0.049 Br
ATOM     24  C   UNL     1      33.810  -9.970 -23.932  0.00  0.00    -0.020 C 
ATOM     25  C   UNL     1      34.550  -8.801 -23.884  0.00  0.00    -0.004 C 
ATOM     26  C   UNL     1      32.620 -10.101 -23.237  0.00  0.00    -0.004 C 
ATOM     27  C   UNL     1      34.087  -7.731 -23.119  0.00  0.00    +0.006 C 
ATOM     28  C   UNL     1      32.156  -9.031 -22.471  0.00  0.00    +0.006 C 
ATOM     29  C   UNL     1      32.889  -7.847 -22.412  0.00  0.00    +0.035 C 
ENDBRANCH  22  24
ENDBRANCH  17  22
ENDBRANCH   2  17
TORSDOF 13
ENDMDL
MODEL 7
REMARK VINA RESULT:      -8.4      7.385     10.570
REMARK  Name = 23640756
REMARK  13 active torsions:
REMARK  status: ('A' for Active; 'I' for Inactive)
REMARK    1  A    between atoms: N_2  and  C_17
REMARK    2  A    between atoms: C_3  and  C_5
REMARK    3  A    between atoms: C_5  and  C_6
REMARK    4  A    between atoms: C_6  and  C_7
REMARK    5  A    between atoms: C_7  and  C_8
REMARK    6  A    between atoms: C_8  and  C_9
REMARK    7  A    between atoms: C_9  and  C_10
REMARK    8  A    between atoms: C_10  and  C_13
REMARK    9  A    between atoms: N_12  and  O_15
REMARK   10  A    between atoms: C_17  and  C_19
REMARK   11  A    between atoms: C_17  and  C_22
REMARK   12  A    between atoms: C_19  and  O_20
REMARK   13  A    between atoms: C_22  and  C_24
REMARK                            x       y       z     vdW  Elec       q    Type
REMARK                         _______ _______ _______ _____ _____    ______ ____
ROOT
ATOM      1  O   UNL     1      35.931 -16.239 -23.751  0.00  0.00    -0.275 OA
ATOM      2  N   UNL     1      33.723 -15.636 -24.147  0.00  0.00    -0.297 N 
ATOM      3  C   UNL     1      34.812 -16.495 -24.189  0.00  0.00    +0.223 C 
ATOM      4  H   UNL     1      32.868 -15.940 -24.528  0.00  0.00    +0.150 HD
ENDROOT
BRANCH   3   5
ATOM      5  C   UNL     1      34.452 -17.826 -24.828  0.00  0.00    +0.085 C 
BRANCH   5   6
ATOM      6  C   UNL     1      34.968 -19.039 -24.056  0.00  0.00    +0.010 C 
BRANCH   6   7
ATOM      7  C   UNL     1      34.506 -19.038 -22.594  0.00  0.00    +0.001 C 
BRANCH   7   8
ATOM      8  C   UNL     1      35.663 -19.085 -21.592  0.00  0.00    +0.001 C 
BRANCH   8   9
ATOM      9  C   UNL     1      35.572 -20.258 -20.615  0.00  0.00    +0.010 C 
BRANCH   9  10
ATOM     10  C   UNL     1      34.121 -20.555 -20.240  0.00  0.00    +0.087 C 
BRANCH  10  13
ATOM     11  O   UNL     1      34.945 -22.445 -18.973  0.00  0.00    -0.273 OA
ATOM     12  N   UNL     1      32.703 -21.901 -18.858  0.00  0.00    -0.197 N 
ATOM     13  C   UNL     1      33.994 -21.738 -19.298  0.00  0.00    +0.244 C 
ATOM     14  H   UNL     1      31.973 -21.306 -19.149  0.00  0.00    +0.182 HD
BRANCH  12  15
ATOM     15  O   UNL     1      32.485 -22.964 -17.974  0.00  0.00    -0.295 OA
ATOM     16  H   UNL     1      32.762 -23.795 -18.392  0.00  0.00    +0.241 HD
ENDBRANCH  12  15
ENDBRANCH  10  13
ENDBRANCH   9  10
ENDBRANCH   8   9
ENDBRANCH   7   8
ENDBRANCH   6   7
ENDBRANCH   5   6
ENDBRANCH   3   5
BRANCH   2  17
ATOM     17  C   UNL     1      33.794 -14.316 -23.567  0.00  0.00    +0.176 C 
BRANCH  17  19
ATOM     18  O   UNL     1      32.224 -14.197 -21.734  0.00  0.00    -0.248 OA
ATOM     19  C   UNL     1      33.391 -14.305 -22.099  0.00  0.00    +0.335 C 
BRANCH  19  20
ATOM     20  O   UNL     1      34.466 -14.410 -21.269  0.00  0.00    -0.443 OA
ATOM     21  C   UNL     1      34.591 -15.651 -20.567  0.00  0.00    +0.256 C 
ENDBRANCH  19  20
ENDBRANCH  17  19
BRANCH  17  22
ATOM     22  C   UNL     1      32.991 -13.300 -24.392  0.00  0.00    +0.057 C 
BRANCH  22  24
ATOM     23 BR   UNL     1      34.723  -7.425 -23.639  0.00  0.00    -0.049 Br
ATOM     24  C   UNL     1      33.415 -11.860 -24.206  0.00  0.00    -0.020 C 
ATOM     25  C   UNL     1      32.729 -11.062 -23.307  0.00  0.00    -0.004 C 
ATOM     26  C   UNL     1      34.481 -11.370 -24.940  0.00  0.00    -0.004 C 
ATOM     27  C   UNL     1      33.120  -9.734 -23.136  0.00  0.00    +0.006 C 
ATOM     28  C   UNL     1      34.873 -10.041 -24.770  0.00  0.00    +0.006 C 
ATOM     29  C   UNL     1      34.193  -9.224 -23.869  0.00  0.00    +0.035 C 
ENDBRANCH  22  24
ENDBRANCH  17  22
ENDBRANCH   2  17
TORSDOF 13
ENDMDL
MODEL 8
REMARK VINA RESULT:      -8.3      8.321     12.327
REMARK  Name = 23640756
REMARK  13 active torsions:
REMARK  status: ('A' for Active; 'I' for Inactive)
REMARK    1  A    between atoms: N_2  and  C_17
REMARK    2  A    between atoms: C_3  and  C_5
REMARK    3  A    between atoms: C_5  and  C_6
REMARK    4  A    between atoms: C_6  and  C_7
REMARK    5  A    between atoms: C_7  and  C_8
REMARK    6  A    between atoms: C_8  and  C_9
REMARK    7  A    between atoms: C_9  and  C_10
REMARK    8  A    between atoms: C_10  and  C_13
REMARK    9  A    between atoms: N_12  and  O_15
REMARK   10  A    between atoms: C_17  and  C_19
REMARK   11  A    between atoms: C_17  and  C_22
REMARK   12  A    between atoms: C_19  and  O_20
REMARK   13  A    between atoms: C_22  and  C_24
REMARK                            x       y       z     vdW  Elec       q    Type
REMARK                         _______ _______ _______ _____ _____    ______ ____
ROOT
ATOM      1  O   UNL     1      35.000 -15.924 -20.499  0.00  0.00    -0.275 OA
ATOM      2  N   UNL     1      33.639 -16.237 -22.353  0.00  0.00    -0.297 N 
ATOM      3  C   UNL     1      33.913 -15.815 -21.061  0.00  0.00    +0.223 C 
ATOM      4  H   UNL     1      32.732 -16.103 -22.710  0.00  0.00    +0.150 HD
ENDROOT
BRANCH   3   5
ATOM      5  C   UNL     1      32.701 -15.166 -20.413  0.00  0.00    +0.085 C 
BRANCH   5   6
ATOM      6  C   UNL     1      32.612 -13.658 -20.649  0.00  0.00    +0.010 C 
BRANCH   6   7
ATOM      7  C   UNL     1      32.000 -13.319 -22.013  0.00  0.00    +0.001 C 
BRANCH   7   8
ATOM      8  C   UNL     1      32.204 -11.857 -22.422  0.00  0.00    +0.001 C 
BRANCH   8   9
ATOM      9  C   UNL     1      31.124 -10.920 -21.879  0.00  0.00    +0.010 C 
BRANCH   9  10
ATOM     10  C   UNL     1      31.541 -10.308 -20.542  0.00  0.00    +0.087 C 
BRANCH  10  13
ATOM     11  O   UNL     1      32.599  -8.532 -21.800  0.00  0.00    -0.273 OA
ATOM     12  N   UNL     1      32.472  -8.365 -19.500  0.00  0.00    -0.197 N 
ATOM     13  C   UNL     1      32.262  -8.984 -20.708  0.00  0.00    +0.244 C 
ATOM     14  H   UNL     1      32.181  -8.768 -18.649  0.00  0.00    +0.182 HD
BRANCH  12  15
ATOM     15  O   UNL     1      33.124  -7.126 -19.550  0.00  0.00    -0.295 OA
ATOM     16  H   UNL     1      33.383  -6.934 -20.465  0.00  0.00    +0.241 HD
ENDBRANCH  12  15
ENDBRANCH  10  13
ENDBRANCH   9  10
ENDBRANCH   8   9
ENDBRANCH   7   8
ENDBRANCH   6   7
ENDBRANCH   5   6
ENDBRANCH   3   5
BRANCH   2  17
ATOM     17  C   UNL     1      34.629 -16.866 -23.195  0.00  0.00    +0.176 C 
BRANCH  17  19
ATOM     18  O   UNL     1      35.064 -16.863 -25.572  0.00  0.00    -0.248 OA
ATOM     19  C   UNL     1      34.694 -16.240 -24.581  0.00  0.00    +0.335 C 
BRANCH  19  20
ATOM     20  O   UNL     1      34.313 -14.931 -24.574  0.00  0.00    -0.443 OA
ATOM     21  C   UNL     1      33.164 -14.614 -25.365  0.00  0.00    +0.256 C 
ENDBRANCH  19  20
ENDBRANCH  17  19
BRANCH  17  22
ATOM     22  C   UNL     1      34.425 -18.386 -23.260  0.00  0.00    +0.057 C 
BRANCH  22  24
ATOM     23 BR   UNL     1      36.557 -21.487 -18.369  0.00  0.00    -0.049 Br
ATOM     24  C   UNL     1      34.948 -19.145 -22.061  0.00  0.00    -0.020 C 
ATOM     25  C   UNL     1      36.278 -19.011 -21.702  0.00  0.00    -0.004 C 
ATOM     26  C   UNL     1      34.085 -19.958 -21.347  0.00  0.00    -0.004 C 
ATOM     27  C   UNL     1      36.761 -19.712 -20.597  0.00  0.00    +0.006 C 
ATOM     28  C   UNL     1      34.567 -20.660 -20.241  0.00  0.00    +0.006 C 
ATOM     29  C   UNL     1      35.904 -20.537 -19.866  0.00  0.00    +0.035 C 
ENDBRANCH  22  24
ENDBRANCH  17  22
ENDBRANCH   2  17
TORSDOF 13
ENDMDL
MODEL 9
REMARK VINA RESULT:      -8.1      9.627     13.106
REMARK  Name = 23640756
REMARK  13 active torsions:
REMARK  status: ('A' for Active; 'I' for Inactive)
REMARK    1  A    between atoms: N_2  and  C_17
REMARK    2  A    between atoms: C_3  and  C_5
REMARK    3  A    between atoms: C_5  and  C_6
REMARK    4  A    between atoms: C_6  and  C_7
REMARK    5  A    between atoms: C_7  and  C_8
REMARK    6  A    between atoms: C_8  and  C_9
REMARK    7  A    between atoms: C_9  and  C_10
REMARK    8  A    between atoms: C_10  and  C_13
REMARK    9  A    between atoms: N_12  and  O_15
REMARK   10  A    between atoms: C_17  and  C_19
REMARK   11  A    between atoms: C_17  and  C_22
REMARK   12  A    between atoms: C_19  and  O_20
REMARK   13  A    between atoms: C_22  and  C_24
REMARK                            x       y       z     vdW  Elec       q    Type
REMARK                         _______ _______ _______ _____ _____    ______ ____
ROOT
ATOM      1  O   UNL     1      31.668 -12.811 -21.464  0.00  0.00    -0.275 OA
ATOM      2  N   UNL     1      33.338 -13.719 -22.797  0.00  0.00    -0.297 N 
ATOM      3  C   UNL     1      32.553 -13.641 -21.656  0.00  0.00    +0.223 C 
ATOM      4  H   UNL     1      34.022 -14.424 -22.851  0.00  0.00    +0.150 HD
ENDROOT
BRANCH   3   5
ATOM      5  C   UNL     1      32.899 -14.736 -20.661  0.00  0.00    +0.085 C 
BRANCH   5   6
ATOM      6  C   UNL     1      34.401 -14.925 -20.452  0.00  0.00    +0.010 C 
BRANCH   6   7
ATOM      7  C   UNL     1      34.924 -16.201 -21.121  0.00  0.00    +0.001 C 
BRANCH   7   8
ATOM      8  C   UNL     1      33.884 -17.325 -21.181  0.00  0.00    +0.001 C 
BRANCH   8   9
ATOM      9  C   UNL     1      34.433 -18.629 -21.761  0.00  0.00    +0.010 C 
BRANCH   9  10
ATOM     10  C   UNL     1      35.515 -18.358 -22.805  0.00  0.00    +0.087 C 
BRANCH  10  13
ATOM     11  O   UNL     1      34.343 -19.069 -24.799  0.00  0.00    -0.273 OA
ATOM     12  N   UNL     1      35.183 -16.920 -24.690  0.00  0.00    -0.197 N 
ATOM     13  C   UNL     1      34.947 -18.182 -24.200  0.00  0.00    +0.244 C 
ATOM     14  H   UNL     1      35.673 -16.242 -24.170  0.00  0.00    +0.182 HD
BRANCH  12  15
ATOM     15  O   UNL     1      34.687 -16.656 -25.972  0.00  0.00    -0.295 OA
ATOM     16  H   UNL     1      33.855 -17.139 -26.103  0.00  0.00    +0.241 HD
ENDBRANCH  12  15
ENDBRANCH  10  13
ENDBRANCH   9  10
ENDBRANCH   8   9
ENDBRANCH   7   8
ENDBRANCH   6   7
ENDBRANCH   5   6
ENDBRANCH   3   5
BRANCH   2  17
ATOM     17  C   UNL     1      33.193 -12.807 -23.907  0.00  0.00    +0.176 C 
BRANCH  17  19
ATOM     18  O   UNL     1      32.855 -14.717 -25.349  0.00  0.00    -0.248 OA
ATOM     19  C   UNL     1      33.145 -13.529 -25.247  0.00  0.00    +0.335 C 
BRANCH  19  20
ATOM     20  O   UNL     1      33.471 -12.708 -26.285  0.00  0.00    -0.443 OA
ATOM     21  C   UNL     1      33.584 -13.340 -27.564  0.00  0.00    +0.256 C 
ENDBRANCH  19  20
ENDBRANCH  17  19
BRANCH  17  22
ATOM     22  C   UNL     1      34.273 -11.717 -23.880  0.00  0.00    +0.057 C 
BRANCH  22  24
ATOM     23 BR   UNL     1      32.114  -5.952 -23.449  0.00  0.00    -0.049 Br
ATOM     24  C   UNL     1      33.743 -10.305 -23.774  0.00  0.00    -0.020 C 
ATOM     25  C   UNL     1      32.423 -10.102 -23.410  0.00  0.00    -0.004 C 
ATOM     26  C   UNL     1      34.590  -9.243 -24.042  0.00  0.00    -0.004 C 
ATOM     27  C   UNL     1      31.934  -8.799 -23.312  0.00  0.00    +0.006 C 
ATOM     28  C   UNL     1      34.102  -7.939 -23.945  0.00  0.00    +0.006 C 
ATOM     29  C   UNL     1      32.775  -7.717 -23.580  0.00  0.00    +0.035 C 
ENDBRANCH  22  24
ENDBRANCH  17  22
ENDBRANCH   2  17
TORSDOF 13
ENDMDL
