MODEL 1
REMARK VINA RESULT:      -3.5      0.000      0.000
REMARK  Name = 784
REMARK  1 active torsions:
REMARK  status: ('A' for Active; 'I' for Inactive)
REMARK    1  A    between atoms: O_1  and  O_3
REMARK                            x       y       z     vdW  Elec       q    Type
REMARK                         _______ _______ _______ _____ _____    ______ ____
ROOT
ATOM      1  O   UNL     1      36.002 -17.116 -10.649  0.00  0.00    -0.253 OA
ATOM      2  H   UNL     1      35.967 -18.085 -10.696  0.00  0.00    +0.253 HD
ENDROOT
BRANCH   1   3
ATOM      3  O   UNL     1      34.823 -16.560 -11.285  0.00  0.00    -0.253 OA
ATOM      4  H   UNL     1      35.060 -16.220 -12.162  0.00  0.00    +0.253 HD
ENDBRANCH   1   3
TORSDOF 1
ENDMDL
MODEL 2
REMARK VINA RESULT:      -2.7     12.142     12.309
REMARK  Name = 784
REMARK  1 active torsions:
REMARK  status: ('A' for Active; 'I' for Inactive)
REMARK    1  A    between atoms: O_1  and  O_3
REMARK                            x       y       z     vdW  Elec       q    Type
REMARK                         _______ _______ _______ _____ _____    ______ ____
ROOT
ATOM      1  O   UNL     1      36.799 -27.921 -17.397  0.00  0.00    -0.253 OA
ATOM      2  H   UNL     1      36.028 -28.509 -17.408  0.00  0.00    +0.253 HD
ENDROOT
BRANCH   1   3
ATOM      3  O   UNL     1      36.809 -27.162 -16.161  0.00  0.00    -0.253 OA
ATOM      4  H   UNL     1      37.109 -26.257 -16.340  0.00  0.00    +0.253 HD
ENDBRANCH   1   3
TORSDOF 1
ENDMDL
MODEL 3
REMARK VINA RESULT:      -2.6     12.070     12.200
REMARK  Name = 784
REMARK  1 active torsions:
REMARK  status: ('A' for Active; 'I' for Inactive)
REMARK    1  A    between atoms: O_1  and  O_3
REMARK                            x       y       z     vdW  Elec       q    Type
REMARK                         _______ _______ _______ _____ _____    ______ ____
ROOT
ATOM      1  O   UNL     1      34.000 -24.153 -19.694  0.00  0.00    -0.253 OA
ATOM      2  H   UNL     1      33.111 -23.768 -19.739  0.00  0.00    +0.253 HD
ENDROOT
BRANCH   1   3
ATOM      3  O   UNL     1      34.021 -25.409 -20.418  0.00  0.00    -0.253 OA
ATOM      4  H   UNL     1      34.940 -25.663 -20.598  0.00  0.00    +0.253 HD
ENDBRANCH   1   3
TORSDOF 1
ENDMDL
MODEL 4
REMARK VINA RESULT:      -2.5     12.275     12.401
REMARK  Name = 784
REMARK  1 active torsions:
REMARK  status: ('A' for Active; 'I' for Inactive)
REMARK    1  A    between atoms: O_1  and  O_3
REMARK                            x       y       z     vdW  Elec       q    Type
REMARK                         _______ _______ _______ _____ _____    ______ ____
ROOT
ATOM      1  O   UNL     1      25.945 -20.160 -18.001  0.00  0.00    -0.253 OA
ATOM      2  H   UNL     1      25.153 -19.782 -18.414  0.00  0.00    +0.253 HD
ENDROOT
BRANCH   1   3
ATOM      3  O   UNL     1      25.569 -21.307 -17.197  0.00  0.00    -0.253 OA
ATOM      4  H   UNL     1      25.147 -21.973 -17.762  0.00  0.00    +0.253 HD
ENDBRANCH   1   3
TORSDOF 1
ENDMDL
MODEL 5
REMARK VINA RESULT:      -2.5      6.557      6.653
REMARK  Name = 784
REMARK  1 active torsions:
REMARK  status: ('A' for Active; 'I' for Inactive)
REMARK    1  A    between atoms: O_1  and  O_3
REMARK                            x       y       z     vdW  Elec       q    Type
REMARK                         _______ _______ _______ _____ _____    ______ ____
ROOT
ATOM      1  O   UNL     1      40.833 -13.356 -13.025  0.00  0.00    -0.253 OA
ATOM      2  H   UNL     1      40.979 -13.928 -12.255  0.00  0.00    +0.253 HD
ENDROOT
BRANCH   1   3
ATOM      3  O   UNL     1      40.428 -14.166 -14.158  0.00  0.00    -0.253 OA
ATOM      4  H   UNL     1      39.760 -14.809 -13.873  0.00  0.00    +0.253 HD
ENDBRANCH   1   3
TORSDOF 1
ENDMDL
MODEL 6
REMARK VINA RESULT:      -2.4     11.609     11.719
REMARK  Name = 784
REMARK  1 active torsions:
REMARK  status: ('A' for Active; 'I' for Inactive)
REMARK    1  A    between atoms: O_1  and  O_3
REMARK                            x       y       z     vdW  Elec       q    Type
REMARK                         _______ _______ _______ _____ _____    ______ ____
ROOT
ATOM      1  O   UNL     1      40.416 -25.939 -16.104  0.00  0.00    -0.253 OA
ATOM      2  H   UNL     1      39.506 -26.259 -16.210  0.00  0.00    +0.253 HD
ENDROOT
BRANCH   1   3
ATOM      3  O   UNL     1      40.955 -26.423 -14.848  0.00  0.00    -0.253 OA
ATOM      4  H   UNL     1      40.361 -26.173 -14.123  0.00  0.00    +0.253 HD
ENDBRANCH   1   3
TORSDOF 1
ENDMDL
MODEL 7
REMARK VINA RESULT:      -2.4      7.644      8.005
REMARK  Name = 784
REMARK  1 active torsions:
REMARK  status: ('A' for Active; 'I' for Inactive)
REMARK    1  A    between atoms: O_1  and  O_3
REMARK                            x       y       z     vdW  Elec       q    Type
REMARK                         _______ _______ _______ _____ _____    ______ ____
ROOT
ATOM      1  O   UNL     1      35.288 -25.198 -10.463  0.00  0.00    -0.253 OA
ATOM      2  H   UNL     1      34.830 -24.781 -11.210  0.00  0.00    +0.253 HD
ENDROOT
BRANCH   1   3
ATOM      3  O   UNL     1      36.082 -24.203  -9.768  0.00  0.00    -0.253 OA
ATOM      4  H   UNL     1      36.918 -24.601  -9.480  0.00  0.00    +0.253 HD
ENDBRANCH   1   3
TORSDOF 1
ENDMDL
MODEL 8
REMARK VINA RESULT:      -2.3     12.035     12.197
REMARK  Name = 784
REMARK  1 active torsions:
REMARK  status: ('A' for Active; 'I' for Inactive)
REMARK    1  A    between atoms: O_1  and  O_3
REMARK                            x       y       z     vdW  Elec       q    Type
REMARK                         _______ _______ _______ _____ _____    ______ ____
ROOT
ATOM      1  O   UNL     1      25.570 -21.984 -15.544  0.00  0.00    -0.253 OA
ATOM      2  H   UNL     1      26.356 -22.488 -15.284  0.00  0.00    +0.253 HD
ENDROOT
BRANCH   1   3
ATOM      3  O   UNL     1      25.678 -21.605 -16.939  0.00  0.00    -0.253 OA
ATOM      4  H   UNL     1      26.395 -20.960 -17.044  0.00  0.00    +0.253 HD
ENDBRANCH   1   3
TORSDOF 1
ENDMDL
MODEL 9
REMARK VINA RESULT:      -2.3     17.104     17.104
REMARK  Name = 784
REMARK  1 active torsions:
REMARK  status: ('A' for Active; 'I' for Inactive)
REMARK    1  A    between atoms: O_1  and  O_3
REMARK                            x       y       z     vdW  Elec       q    Type
REMARK                         _______ _______ _______ _____ _____    ______ ____
ROOT
ATOM      1  O   UNL     1      42.125 -21.300 -26.061  0.00  0.00    -0.253 OA
ATOM      2  H   UNL     1      41.994 -22.082 -26.620  0.00  0.00    +0.253 HD
ENDROOT
BRANCH   1   3
ATOM      3  O   UNL     1      41.429 -20.169 -26.643  0.00  0.00    -0.253 OA
ATOM      4  H   UNL     1      41.957 -19.804 -27.370  0.00  0.00    +0.253 HD
ENDBRANCH   1   3
TORSDOF 1
ENDMDL
