MODEL 1
REMARK VINA RESULT:      -7.3      0.000      0.000
REMARK  Name = 3998
REMARK  4 active torsions:
REMARK  status: ('A' for Active; 'I' for Inactive)
REMARK    1  A    between atoms: C_1  and  S_7
REMARK    2  A    between atoms: C_2  and  C_13
REMARK    3  A    between atoms: S_7  and  N_10
REMARK    4  A    between atoms: C_13  and  N_14
REMARK                            x       y       z     vdW  Elec       q    Type
REMARK                         _______ _______ _______ _____ _____    ______ ____
ROOT
ATOM      1  C   UNL     1      34.234 -21.320 -19.688  0.00  0.00    +0.122 C 
ATOM      2  C   UNL     1      34.965 -19.060 -21.151  0.00  0.00    -0.044 C 
ATOM      3  C   UNL     1      33.251 -20.493 -20.231  0.00  0.00    +0.019 C 
ATOM      4  C   UNL     1      35.583 -21.018 -19.874  0.00  0.00    +0.019 C 
ATOM      5  C   UNL     1      33.618 -19.364 -20.963  0.00  0.00    -0.005 C 
ATOM      6  C   UNL     1      35.949 -19.888 -20.606  0.00  0.00    -0.005 C 
ENDROOT
BRANCH   1   7
ATOM      7  S   UNL     1      33.776 -22.734 -18.771  0.00  0.00    +0.057 S 
ATOM      8  O   UNL     1      32.473 -22.487 -18.167  0.00  0.00    -0.153 OA
ATOM      9  O   UNL     1      33.975 -23.911 -19.605  0.00  0.00    -0.153 OA
BRANCH   7  10
ATOM     10  N   UNL     1      34.963 -22.725 -17.542  0.00  0.00    -0.203 NA
ATOM     11  H   UNL     1      35.679 -23.419 -17.756  0.00  0.00    +0.144 HD
ATOM     12  H   UNL     1      34.527 -22.950 -16.647  0.00  0.00    +0.144 HD
ENDBRANCH   7  10
ENDBRANCH   1   7
BRANCH   2  13
ATOM     13  C   UNL     1      35.357 -17.852 -21.932  0.00  0.00    -0.059 C 
BRANCH  13  14
ATOM     14  N   UNL     1      36.109 -18.190 -23.143  0.00  0.00    +0.383 N 
ATOM     15  H   UNL     1      36.849 -17.503 -23.285  0.00  0.00    -0.089 HD
ATOM     16  H   UNL     1      35.481 -18.185 -23.946  0.00  0.00    -0.089 HD
ATOM     17  H   UNL     1      36.520 -19.117 -23.039  0.00  0.00    -0.089 HD
ENDBRANCH  13  14
ENDBRANCH   2  13
TORSDOF 4
ENDMDL
MODEL 2
REMARK VINA RESULT:      -7.3      0.010      1.395
REMARK  Name = 3998
REMARK  4 active torsions:
REMARK  status: ('A' for Active; 'I' for Inactive)
REMARK    1  A    between atoms: C_1  and  S_7
REMARK    2  A    between atoms: C_2  and  C_13
REMARK    3  A    between atoms: S_7  and  N_10
REMARK    4  A    between atoms: C_13  and  N_14
REMARK                            x       y       z     vdW  Elec       q    Type
REMARK                         _______ _______ _______ _____ _____    ______ ____
ROOT
ATOM      1  C   UNL     1      34.231 -21.321 -19.688  0.00  0.00    +0.122 C 
ATOM      2  C   UNL     1      34.956 -19.059 -21.152  0.00  0.00    -0.044 C 
ATOM      3  C   UNL     1      35.578 -21.015 -19.878  0.00  0.00    +0.019 C 
ATOM      4  C   UNL     1      33.245 -20.497 -20.230  0.00  0.00    +0.019 C 
ATOM      5  C   UNL     1      35.940 -19.885 -20.610  0.00  0.00    -0.005 C 
ATOM      6  C   UNL     1      33.607 -19.366 -20.962  0.00  0.00    -0.005 C 
ENDROOT
BRANCH   1   7
ATOM      7  S   UNL     1      33.778 -22.736 -18.772  0.00  0.00    +0.057 S 
ATOM      8  O   UNL     1      32.477 -22.493 -18.164  0.00  0.00    -0.153 OA
ATOM      9  O   UNL     1      33.978 -23.912 -19.607  0.00  0.00    -0.153 OA
BRANCH   7  10
ATOM     10  N   UNL     1      34.969 -22.726 -17.546  0.00  0.00    -0.203 NA
ATOM     11  H   UNL     1      35.850 -23.074 -17.925  0.00  0.00    +0.144 HD
ATOM     12  H   UNL     1      34.669 -23.325 -16.776  0.00  0.00    +0.144 HD
ENDBRANCH   7  10
ENDBRANCH   1   7
BRANCH   2  13
ATOM     13  C   UNL     1      35.342 -17.851 -21.936  0.00  0.00    -0.059 C 
BRANCH  13  14
ATOM     14  N   UNL     1      36.125 -18.187 -23.128  0.00  0.00    +0.383 N 
ATOM     15  H   UNL     1      36.683 -17.380 -23.405  0.00  0.00    -0.089 HD
ATOM     16  H   UNL     1      35.495 -18.442 -23.888  0.00  0.00    -0.089 HD
ATOM     17  H   UNL     1      36.741 -18.972 -22.920  0.00  0.00    -0.089 HD
ENDBRANCH  13  14
ENDBRANCH   2  13
TORSDOF 4
ENDMDL
MODEL 3
REMARK VINA RESULT:      -6.7      3.473      5.259
REMARK  Name = 3998
REMARK  4 active torsions:
REMARK  status: ('A' for Active; 'I' for Inactive)
REMARK    1  A    between atoms: C_1  and  S_7
REMARK    2  A    between atoms: C_2  and  C_13
REMARK    3  A    between atoms: S_7  and  N_10
REMARK    4  A    between atoms: C_13  and  N_14
REMARK                            x       y       z     vdW  Elec       q    Type
REMARK                         _______ _______ _______ _____ _____    ______ ____
ROOT
ATOM      1  C   UNL     1      34.705 -19.380 -21.256  0.00  0.00    +0.122 C 
ATOM      2  C   UNL     1      34.126 -21.475 -19.508  0.00  0.00    -0.044 C 
ATOM      3  C   UNL     1      35.741 -20.124 -20.692  0.00  0.00    +0.019 C 
ATOM      4  C   UNL     1      33.379 -19.682 -20.946  0.00  0.00    +0.019 C 
ATOM      5  C   UNL     1      35.451 -21.172 -19.818  0.00  0.00    -0.005 C 
ATOM      6  C   UNL     1      33.089 -20.730 -20.072  0.00  0.00    -0.005 C 
ENDROOT
BRANCH   1   7
ATOM      7  S   UNL     1      35.068 -18.068 -22.349  0.00  0.00    +0.057 S 
ATOM      8  O   UNL     1      34.453 -18.361 -23.637  0.00  0.00    -0.153 OA
ATOM      9  O   UNL     1      34.775 -16.810 -21.677  0.00  0.00    -0.153 OA
BRANCH   7  10
ATOM     10  N   UNL     1      36.763 -18.228 -22.499  0.00  0.00    -0.203 NA
ATOM     11  H   UNL     1      37.141 -18.651 -21.652  0.00  0.00    +0.144 HD
ATOM     12  H   UNL     1      37.180 -17.307 -22.635  0.00  0.00    +0.144 HD
ENDBRANCH   7  10
ENDBRANCH   1   7
BRANCH   2  13
ATOM     13  C   UNL     1      33.816 -22.595 -18.572  0.00  0.00    -0.059 C 
BRANCH  13  14
ATOM     14  N   UNL     1      32.441 -22.538 -18.071  0.00  0.00    +0.383 N 
ATOM     15  H   UNL     1      32.035 -21.630 -18.296  0.00  0.00    -0.089 HD
ATOM     16  H   UNL     1      32.442 -22.669 -17.059  0.00  0.00    -0.089 HD
ATOM     17  H   UNL     1      31.889 -23.275 -18.508  0.00  0.00    -0.089 HD
ENDBRANCH  13  14
ENDBRANCH   2  13
TORSDOF 4
ENDMDL
MODEL 4
REMARK VINA RESULT:      -6.7      3.479      5.205
REMARK  Name = 3998
REMARK  4 active torsions:
REMARK  status: ('A' for Active; 'I' for Inactive)
REMARK    1  A    between atoms: C_1  and  S_7
REMARK    2  A    between atoms: C_2  and  C_13
REMARK    3  A    between atoms: S_7  and  N_10
REMARK    4  A    between atoms: C_13  and  N_14
REMARK                            x       y       z     vdW  Elec       q    Type
REMARK                         _______ _______ _______ _____ _____    ______ ____
ROOT
ATOM      1  C   UNL     1      34.923 -19.623 -20.982  0.00  0.00    +0.122 C 
ATOM      2  C   UNL     1      34.097 -21.702 -19.315  0.00  0.00    -0.044 C 
ATOM      3  C   UNL     1      35.868 -20.464 -20.394  0.00  0.00    +0.019 C 
ATOM      4  C   UNL     1      33.565 -19.821 -20.736  0.00  0.00    +0.019 C 
ATOM      5  C   UNL     1      35.455 -21.503 -19.561  0.00  0.00    -0.005 C 
ATOM      6  C   UNL     1      33.151 -20.860 -19.903  0.00  0.00    -0.005 C 
ENDROOT
BRANCH   1   7
ATOM      7  S   UNL     1      35.441 -18.322 -22.024  0.00  0.00    +0.057 S 
ATOM      8  O   UNL     1      36.889 -18.397 -22.168  0.00  0.00    -0.153 OA
ATOM      9  O   UNL     1      34.596 -18.314 -23.210  0.00  0.00    -0.153 OA
BRANCH   7  10
ATOM     10  N   UNL     1      35.054 -16.962 -21.065  0.00  0.00    -0.203 NA
ATOM     11  H   UNL     1      34.051 -16.951 -20.880  0.00  0.00    +0.144 HD
ATOM     12  H   UNL     1      35.317 -16.110 -21.561  0.00  0.00    +0.144 HD
ENDBRANCH   7  10
ENDBRANCH   1   7
BRANCH   2  13
ATOM     13  C   UNL     1      33.654 -22.813 -18.424  0.00  0.00    -0.059 C 
BRANCH  13  14
ATOM     14  N   UNL     1      32.292 -22.617 -17.924  0.00  0.00    +0.383 N 
ATOM     15  H   UNL     1      31.877 -23.523 -17.707  0.00  0.00    -0.089 HD
ATOM     16  H   UNL     1      31.732 -22.148 -18.635  0.00  0.00    -0.089 HD
ATOM     17  H   UNL     1      32.318 -22.044 -17.080  0.00  0.00    -0.089 HD
ENDBRANCH  13  14
ENDBRANCH   2  13
TORSDOF 4
ENDMDL
MODEL 5
REMARK VINA RESULT:      -6.3      7.055      8.156
REMARK  Name = 3998
REMARK  4 active torsions:
REMARK  status: ('A' for Active; 'I' for Inactive)
REMARK    1  A    between atoms: C_1  and  S_7
REMARK    2  A    between atoms: C_2  and  C_13
REMARK    3  A    between atoms: S_7  and  N_10
REMARK    4  A    between atoms: C_13  and  N_14
REMARK                            x       y       z     vdW  Elec       q    Type
REMARK                         _______ _______ _______ _____ _____    ______ ____
ROOT
ATOM      1  C   UNL     1      29.473 -23.485 -15.634  0.00  0.00    +0.122 C 
ATOM      2  C   UNL     1      31.811 -24.275 -14.333  0.00  0.00    -0.044 C 
ATOM      3  C   UNL     1      29.474 -24.629 -14.836  0.00  0.00    +0.019 C 
ATOM      4  C   UNL     1      30.640 -22.737 -15.783  0.00  0.00    +0.019 C 
ATOM      5  C   UNL     1      30.643 -25.023 -14.185  0.00  0.00    -0.005 C 
ATOM      6  C   UNL     1      31.809 -23.131 -15.132  0.00  0.00    -0.005 C 
ENDROOT
BRANCH   1   7
ATOM      7  S   UNL     1      28.010 -22.992 -16.449  0.00  0.00    +0.057 S 
ATOM      8  O   UNL     1      26.938 -22.920 -15.465  0.00  0.00    -0.153 OA
ATOM      9  O   UNL     1      28.310 -21.833 -17.278  0.00  0.00    -0.153 OA
BRANCH   7  10
ATOM     10  N   UNL     1      27.734 -24.337 -17.467  0.00  0.00    -0.203 NA
ATOM     11  H   UNL     1      26.730 -24.482 -17.573  0.00  0.00    +0.144 HD
ATOM     12  H   UNL     1      28.157 -25.168 -17.053  0.00  0.00    +0.144 HD
ENDBRANCH   7  10
ENDBRANCH   1   7
BRANCH   2  13
ATOM     13  C   UNL     1      33.061 -24.698 -13.638  0.00  0.00    -0.059 C 
BRANCH  13  14
ATOM     14  N   UNL     1      34.000 -23.589 -13.456  0.00  0.00    +0.383 N 
ATOM     15  H   UNL     1      34.307 -23.559 -12.485  0.00  0.00    -0.089 HD
ATOM     16  H   UNL     1      33.539 -22.710 -13.694  0.00  0.00    -0.089 HD
ATOM     17  H   UNL     1      34.807 -23.724 -14.064  0.00  0.00    -0.089 HD
ENDBRANCH  13  14
ENDBRANCH   2  13
TORSDOF 4
ENDMDL
MODEL 6
REMARK VINA RESULT:      -6.2      4.533      6.682
REMARK  Name = 3998
REMARK  4 active torsions:
REMARK  status: ('A' for Active; 'I' for Inactive)
REMARK    1  A    between atoms: C_1  and  S_7
REMARK    2  A    between atoms: C_2  and  C_13
REMARK    3  A    between atoms: S_7  and  N_10
REMARK    4  A    between atoms: C_13  and  N_14
REMARK                            x       y       z     vdW  Elec       q    Type
REMARK                         _______ _______ _______ _____ _____    ______ ____
ROOT
ATOM      1  C   UNL     1      33.143 -23.071 -17.176  0.00  0.00    +0.122 C 
ATOM      2  C   UNL     1      31.818 -23.420 -14.746  0.00  0.00    -0.044 C 
ATOM      3  C   UNL     1      31.765 -22.870 -17.098  0.00  0.00    +0.019 C 
ATOM      4  C   UNL     1      33.859 -23.448 -16.040  0.00  0.00    +0.019 C 
ATOM      5  C   UNL     1      31.103 -23.044 -15.883  0.00  0.00    -0.005 C 
ATOM      6  C   UNL     1      33.196 -23.622 -14.825  0.00  0.00    -0.005 C 
ENDROOT
BRANCH   1   7
ATOM      7  S   UNL     1      33.971 -22.853 -18.697  0.00  0.00    +0.057 S 
ATOM      8  O   UNL     1      35.266 -22.241 -18.431  0.00  0.00    -0.153 OA
ATOM      9  O   UNL     1      33.900 -24.100 -19.446  0.00  0.00    -0.153 OA
BRANCH   7  10
ATOM     10  N   UNL     1      32.963 -21.701 -19.456  0.00  0.00    -0.203 NA
ATOM     11  H   UNL     1      31.990 -21.889 -19.215  0.00  0.00    +0.144 HD
ATOM     12  H   UNL     1      33.082 -21.759 -20.468  0.00  0.00    +0.144 HD
ENDBRANCH   7  10
ENDBRANCH   1   7
BRANCH   2  13
ATOM     13  C   UNL     1      31.109 -23.608 -13.447  0.00  0.00    -0.059 C 
BRANCH  13  14
ATOM     14  N   UNL     1      30.589 -24.967 -13.287  0.00  0.00    +0.383 N 
ATOM     15  H   UNL     1      31.120 -25.605 -13.879  0.00  0.00    -0.089 HD
ATOM     16  H   UNL     1      29.607 -24.990 -13.558  0.00  0.00    -0.089 HD
ATOM     17  H   UNL     1      30.680 -25.253 -12.312  0.00  0.00    -0.089 HD
ENDBRANCH  13  14
ENDBRANCH   2  13
TORSDOF 4
ENDMDL
MODEL 7
REMARK VINA RESULT:      -6.2      6.136      7.205
REMARK  Name = 3998
REMARK  4 active torsions:
REMARK  status: ('A' for Active; 'I' for Inactive)
REMARK    1  A    between atoms: C_1  and  S_7
REMARK    2  A    between atoms: C_2  and  C_13
REMARK    3  A    between atoms: S_7  and  N_10
REMARK    4  A    between atoms: C_13  and  N_14
REMARK                            x       y       z     vdW  Elec       q    Type
REMARK                         _______ _______ _______ _____ _____    ______ ____
ROOT
ATOM      1  C   UNL     1      36.477 -24.065 -13.585  0.00  0.00    +0.122 C 
ATOM      2  C   UNL     1      36.535 -22.696 -16.015  0.00  0.00    -0.044 C 
ATOM      3  C   UNL     1      37.677 -23.933 -14.283  0.00  0.00    +0.019 C 
ATOM      4  C   UNL     1      35.305 -23.514 -14.102  0.00  0.00    +0.019 C 
ATOM      5  C   UNL     1      37.706 -23.248 -15.498  0.00  0.00    -0.005 C 
ATOM      6  C   UNL     1      35.333 -22.829 -15.317  0.00  0.00    -0.005 C 
ENDROOT
BRANCH   1   7
ATOM      7  S   UNL     1      36.441 -24.923 -12.065  0.00  0.00    +0.057 S 
ATOM      8  O   UNL     1      37.514 -24.410 -11.224  0.00  0.00    -0.153 OA
ATOM      9  O   UNL     1      35.072 -24.929 -11.569  0.00  0.00    -0.153 OA
BRANCH   7  10
ATOM     10  N   UNL     1      36.848 -26.503 -12.572  0.00  0.00    -0.203 NA
ATOM     11  H   UNL     1      37.862 -26.587 -12.644  0.00  0.00    +0.144 HD
ATOM     12  H   UNL     1      36.426 -26.686 -13.483  0.00  0.00    +0.144 HD
ENDBRANCH   7  10
ENDBRANCH   1   7
BRANCH   2  13
ATOM     13  C   UNL     1      36.565 -21.965 -17.315  0.00  0.00    -0.059 C 
BRANCH  13  14
ATOM     14  N   UNL     1      37.265 -20.682 -17.217  0.00  0.00    +0.383 N 
ATOM     15  H   UNL     1      37.193 -20.328 -16.263  0.00  0.00    -0.089 HD
ATOM     16  H   UNL     1      36.842 -20.013 -17.860  0.00  0.00    -0.089 HD
ATOM     17  H   UNL     1      38.247 -20.811 -17.459  0.00  0.00    -0.089 HD
ENDBRANCH  13  14
ENDBRANCH   2  13
TORSDOF 4
ENDMDL
MODEL 8
REMARK VINA RESULT:      -6.1      4.611      5.978
REMARK  Name = 3998
REMARK  4 active torsions:
REMARK  status: ('A' for Active; 'I' for Inactive)
REMARK    1  A    between atoms: C_1  and  S_7
REMARK    2  A    between atoms: C_2  and  C_13
REMARK    3  A    between atoms: S_7  and  N_10
REMARK    4  A    between atoms: C_13  and  N_14
REMARK                            x       y       z     vdW  Elec       q    Type
REMARK                         _______ _______ _______ _____ _____    ______ ____
ROOT
ATOM      1  C   UNL     1      34.334 -16.557 -22.077  0.00  0.00    +0.122 C 
ATOM      2  C   UNL     1      33.105 -14.097 -22.547  0.00  0.00    -0.044 C 
ATOM      3  C   UNL     1      34.666 -15.817 -23.211  0.00  0.00    +0.019 C 
ATOM      4  C   UNL     1      33.387 -16.068 -21.177  0.00  0.00    +0.019 C 
ATOM      5  C   UNL     1      34.052 -14.588 -23.446  0.00  0.00    -0.005 C 
ATOM      6  C   UNL     1      32.773 -14.838 -21.412  0.00  0.00    -0.005 C 
ENDROOT
BRANCH   1   7
ATOM      7  S   UNL     1      35.103 -18.097 -21.783  0.00  0.00    +0.057 S 
ATOM      8  O   UNL     1      35.745 -18.048 -20.477  0.00  0.00    -0.153 OA
ATOM      9  O   UNL     1      34.148 -19.155 -22.081  0.00  0.00    -0.153 OA
BRANCH   7  10
ATOM     10  N   UNL     1      36.312 -18.093 -22.991  0.00  0.00    -0.203 NA
ATOM     11  H   UNL     1      36.889 -18.929 -22.896  0.00  0.00    +0.144 HD
ATOM     12  H   UNL     1      36.895 -17.263 -22.885  0.00  0.00    +0.144 HD
ENDBRANCH   7  10
ENDBRANCH   1   7
BRANCH   2  13
ATOM     13  C   UNL     1      32.447 -12.783 -22.799  0.00  0.00    -0.059 C 
BRANCH  13  14
ATOM     14  N   UNL     1      31.515 -12.412 -21.732  0.00  0.00    +0.383 N 
ATOM     15  H   UNL     1      31.077 -11.520 -21.959  0.00  0.00    -0.089 HD
ATOM     16  H   UNL     1      32.023 -12.328 -20.851  0.00  0.00    -0.089 HD
ATOM     17  H   UNL     1      30.798 -13.131 -21.642  0.00  0.00    -0.089 HD
ENDBRANCH  13  14
ENDBRANCH   2  13
TORSDOF 4
ENDMDL
MODEL 9
REMARK VINA RESULT:      -6.1      4.616      5.924
REMARK  Name = 3998
REMARK  4 active torsions:
REMARK  status: ('A' for Active; 'I' for Inactive)
REMARK    1  A    between atoms: C_1  and  S_7
REMARK    2  A    between atoms: C_2  and  C_13
REMARK    3  A    between atoms: S_7  and  N_10
REMARK    4  A    between atoms: C_13  and  N_14
REMARK                            x       y       z     vdW  Elec       q    Type
REMARK                         _______ _______ _______ _____ _____    ______ ____
ROOT
ATOM      1  C   UNL     1      34.337 -16.546 -22.090  0.00  0.00    +0.122 C 
ATOM      2  C   UNL     1      33.126 -14.079 -22.570  0.00  0.00    -0.044 C 
ATOM      3  C   UNL     1      33.356 -16.070 -21.220  0.00  0.00    +0.019 C 
ATOM      4  C   UNL     1      34.714 -15.790 -23.199  0.00  0.00    +0.019 C 
ATOM      5  C   UNL     1      32.751 -14.836 -21.461  0.00  0.00    -0.005 C 
ATOM      6  C   UNL     1      34.108 -14.556 -23.440  0.00  0.00    -0.005 C 
ENDROOT
BRANCH   1   7
ATOM      7  S   UNL     1      35.096 -18.090 -21.788  0.00  0.00    +0.057 S 
ATOM      8  O   UNL     1      35.712 -18.048 -20.469  0.00  0.00    -0.153 OA
ATOM      9  O   UNL     1      34.143 -19.144 -22.109  0.00  0.00    -0.153 OA
BRANCH   7  10
ATOM     10  N   UNL     1      36.327 -18.085 -22.972  0.00  0.00    -0.203 NA
ATOM     11  H   UNL     1      36.708 -17.143 -23.063  0.00  0.00    +0.144 HD
ATOM     12  H   UNL     1      35.939 -18.382 -23.868  0.00  0.00    +0.144 HD
ENDBRANCH   7  10
ENDBRANCH   1   7
BRANCH   2  13
ATOM     13  C   UNL     1      32.479 -12.760 -22.827  0.00  0.00    -0.059 C 
BRANCH  13  14
ATOM     14  N   UNL     1      31.507 -12.405 -21.791  0.00  0.00    +0.383 N 
ATOM     15  H   UNL     1      30.927 -13.216 -21.578  0.00  0.00    -0.089 HD
ATOM     16  H   UNL     1      30.917 -11.643 -22.124  0.00  0.00    -0.089 HD
ATOM     17  H   UNL     1      32.000 -12.109 -20.949  0.00  0.00    -0.089 HD
ENDBRANCH  13  14
ENDBRANCH   2  13
TORSDOF 4
ENDMDL
