MODEL 1
REMARK VINA RESULT:     -11.1      0.000      0.000
REMARK  Name = 57855696
REMARK  10 active torsions:
REMARK  status: ('A' for Active; 'I' for Inactive)
REMARK    1  A    between atoms: C_3  and  C_6
REMARK    2  A    between atoms: C_4  and  C_20
REMARK    3  A    between atoms: C_7  and  O_12
REMARK    4  A    between atoms: C_9  and  O_16
REMARK    5  A    between atoms: O_12  and  C_13
REMARK    6  A    between atoms: O_16  and  C_19
REMARK    7  A    between atoms: C_20  and  N_22
REMARK    8  A    between atoms: C_23  and  C_25
REMARK    9  A    between atoms: C_26  and  O_31
REMARK   10  A    between atoms: O_31  and  C_32
REMARK                            x       y       z     vdW  Elec       q    Type
REMARK                         _______ _______ _______ _____ _____    ______ ____
ROOT
ATOM      1  O   UNL     1      33.243 -19.656 -21.153  0.00  0.00    -0.444 OA
ATOM      2  N   UNL     1      35.461 -20.097 -21.204  0.00  0.00    -0.371 NA
ATOM      3  C   UNL     1      34.458 -19.422 -21.720  0.00  0.00    +0.277 C 
ATOM      4  C   UNL     1      34.861 -20.836 -20.216  0.00  0.00    +0.154 C 
ATOM      5  C   UNL     1      33.514 -20.570 -20.181  0.00  0.00    +0.264 C 
ENDROOT
BRANCH   3   6
ATOM      6  C   UNL     1      34.460 -18.469 -22.803  0.00  0.00    +0.069 C 
ATOM      7  C   UNL     1      34.420 -16.181 -23.577  0.00  0.00    +0.172 C 
ATOM      8  C   UNL     1      34.418 -17.102 -22.529  0.00  0.00    +0.046 C 
ATOM      9  C   UNL     1      34.464 -16.627 -24.898  0.00  0.00    +0.178 C 
ATOM     10  C   UNL     1      34.503 -18.916 -24.124  0.00  0.00    +0.009 C 
ATOM     11  C   UNL     1      34.505 -17.995 -25.171  0.00  0.00    +0.040 C 
BRANCH   7  12
ATOM     12  O   UNL     1      34.379 -14.848 -23.298  0.00  0.00    -0.476 OA
BRANCH  12  13
ATOM     13  C   UNL     1      33.203 -14.356 -22.658  0.00  0.00    +0.166 C 
ATOM     14  C   UNL     1      33.449 -14.268 -21.159  0.00  0.00    +0.047 C 
ATOM     15  C   UNL     1      32.836 -13.005 -23.253  0.00  0.00    +0.047 C 
ENDBRANCH  12  13
ENDBRANCH   7  12
BRANCH   9  16
ATOM     16  O   UNL     1      34.466 -15.737 -25.930  0.00  0.00    -0.421 OA
BRANCH  16  19
ATOM     17  F   UNL     1      33.461 -14.263 -27.289  0.00  0.00    -0.155 F 
ATOM     18  F   UNL     1      32.348 -16.029 -26.678  0.00  0.00    -0.155 F 
ATOM     19  C   UNL     1      33.234 -15.098 -26.243  0.00  0.00    +0.509 C 
ENDBRANCH  16  19
ENDBRANCH   9  16
ENDBRANCH   3   6
BRANCH   4  20
ATOM     20  C   UNL     1      35.642 -21.751 -19.372  0.00  0.00    +0.149 C 
BRANCH  20  22
ATOM     21  O   UNL     1      33.768 -23.889 -18.973  0.00  0.00    -0.270 OA
ATOM     22  N   UNL     1      34.972 -22.095 -18.134  0.00  0.00    -0.295 N 
ATOM     23  C   UNL     1      34.082 -23.150 -18.044  0.00  0.00    +0.249 C 
ATOM     24  H   UNL     1      35.158 -21.560 -17.328  0.00  0.00    +0.150 HD
BRANCH  23  25
ATOM     25  C   UNL     1      33.459 -23.356 -16.711  0.00  0.00    +0.087 C 
ATOM     26  C   UNL     1      34.219 -23.788 -15.625  0.00  0.00    +0.143 C 
ATOM     27  C   UNL     1      32.095 -23.111 -16.555  0.00  0.00    +0.008 C 
ATOM     28  C   UNL     1      33.615 -23.976 -14.381  0.00  0.00    +0.037 C 
ATOM     29  C   UNL     1      31.490 -23.298 -15.312  0.00  0.00    +0.000 C 
ATOM     30  C   UNL     1      32.251 -23.730 -14.225  0.00  0.00    +0.003 C 
BRANCH  26  31
ATOM     31  O   UNL     1      35.553 -24.034 -15.757  0.00  0.00    -0.475 OA
BRANCH  31  32
ATOM     32  C   UNL     1      36.439 -23.242 -14.968  0.00  0.00    +0.206 C 
ATOM     33  C   UNL     1      37.581 -22.765 -15.839  0.00  0.00    +0.051 C 
ENDBRANCH  31  32
ENDBRANCH  26  31
ENDBRANCH  23  25
ENDBRANCH  20  22
ENDBRANCH   4  20
TORSDOF 10
ENDMDL
MODEL 2
REMARK VINA RESULT:     -10.7      3.891     10.008
REMARK  Name = 57855696
REMARK  10 active torsions:
REMARK  status: ('A' for Active; 'I' for Inactive)
REMARK    1  A    between atoms: C_3  and  C_6
REMARK    2  A    between atoms: C_4  and  C_20
REMARK    3  A    between atoms: C_7  and  O_12
REMARK    4  A    between atoms: C_9  and  O_16
REMARK    5  A    between atoms: O_12  and  C_13
REMARK    6  A    between atoms: O_16  and  C_19
REMARK    7  A    between atoms: C_20  and  N_22
REMARK    8  A    between atoms: C_23  and  C_25
REMARK    9  A    between atoms: C_26  and  O_31
REMARK   10  A    between atoms: O_31  and  C_32
REMARK                            x       y       z     vdW  Elec       q    Type
REMARK                         _______ _______ _______ _____ _____    ______ ____
ROOT
ATOM      1  O   UNL     1      36.318 -19.342 -20.711  0.00  0.00    -0.444 OA
ATOM      2  N   UNL     1      34.434 -19.195 -21.954  0.00  0.00    -0.371 NA
ATOM      3  C   UNL     1      35.034 -19.741 -20.920  0.00  0.00    +0.277 C 
ATOM      4  C   UNL     1      35.399 -18.367 -22.470  0.00  0.00    +0.154 C 
ATOM      5  C   UNL     1      36.544 -18.453 -21.717  0.00  0.00    +0.264 C 
ENDROOT
BRANCH   3   6
ATOM      6  C   UNL     1      34.526 -20.705 -19.975  0.00  0.00    +0.069 C 
ATOM      7  C   UNL     1      34.908 -22.296 -18.198  0.00  0.00    +0.172 C 
ATOM      8  C   UNL     1      35.401 -21.364 -19.111  0.00  0.00    +0.046 C 
ATOM      9  C   UNL     1      33.541 -22.570 -18.148  0.00  0.00    +0.178 C 
ATOM     10  C   UNL     1      33.158 -20.979 -19.925  0.00  0.00    +0.009 C 
ATOM     11  C   UNL     1      32.666 -21.911 -19.012  0.00  0.00    +0.040 C 
BRANCH   7  12
ATOM     12  O   UNL     1      35.772 -22.934 -17.360  0.00  0.00    -0.476 OA
BRANCH  12  13
ATOM     13  C   UNL     1      36.139 -22.249 -16.163  0.00  0.00    +0.166 C 
ATOM     14  C   UNL     1      35.663 -23.051 -14.962  0.00  0.00    +0.047 C 
ATOM     15  C   UNL     1      37.646 -22.043 -16.146  0.00  0.00    +0.047 C 
ENDBRANCH  12  13
ENDBRANCH   7  12
BRANCH   9  16
ATOM     16  O   UNL     1      33.049 -23.478 -17.260  0.00  0.00    -0.421 OA
BRANCH  16  19
ATOM     17  F   UNL     1      31.137 -24.194 -16.333  0.00  0.00    -0.155 F 
ATOM     18  F   UNL     1      32.320 -22.723 -15.253  0.00  0.00    -0.155 F 
ATOM     19  C   UNL     1      31.914 -23.093 -16.493  0.00  0.00    +0.509 C 
ENDBRANCH  16  19
ENDBRANCH   9  16
ENDBRANCH   3   6
BRANCH   4  20
ATOM     20  C   UNL     1      35.139 -17.547 -23.661  0.00  0.00    +0.149 C 
BRANCH  20  22
ATOM     21  O   UNL     1      33.582 -15.858 -25.383  0.00  0.00    -0.270 OA
ATOM     22  N   UNL     1      34.623 -16.231 -23.345  0.00  0.00    -0.295 N 
ATOM     23  C   UNL     1      33.879 -15.493 -24.249  0.00  0.00    +0.249 C 
ATOM     24  H   UNL     1      34.808 -15.848 -22.457  0.00  0.00    +0.150 HD
BRANCH  23  25
ATOM     25  C   UNL     1      33.446 -14.150 -23.782  0.00  0.00    +0.087 C 
ATOM     26  C   UNL     1      32.703 -14.003 -22.612  0.00  0.00    +0.143 C 
ATOM     27  C   UNL     1      33.795 -13.027 -24.534  0.00  0.00    +0.008 C 
ATOM     28  C   UNL     1      32.306 -12.733 -22.192  0.00  0.00    +0.037 C 
ATOM     29  C   UNL     1      33.399 -11.757 -24.114  0.00  0.00    +0.000 C 
ATOM     30  C   UNL     1      32.655 -11.611 -22.942  0.00  0.00    +0.003 C 
BRANCH  26  31
ATOM     31  O   UNL     1      32.353 -15.088 -21.865  0.00  0.00    -0.475 OA
BRANCH  31  32
ATOM     32  C   UNL     1      32.725 -15.074 -20.488  0.00  0.00    +0.206 C 
ATOM     33  C   UNL     1      34.218 -15.302 -20.379  0.00  0.00    +0.051 C 
ENDBRANCH  31  32
ENDBRANCH  26  31
ENDBRANCH  23  25
ENDBRANCH  20  22
ENDBRANCH   4  20
TORSDOF 10
ENDMDL
MODEL 3
REMARK VINA RESULT:     -10.6      2.949      4.736
REMARK  Name = 57855696
REMARK  10 active torsions:
REMARK  status: ('A' for Active; 'I' for Inactive)
REMARK    1  A    between atoms: C_3  and  C_6
REMARK    2  A    between atoms: C_4  and  C_20
REMARK    3  A    between atoms: C_7  and  O_12
REMARK    4  A    between atoms: C_9  and  O_16
REMARK    5  A    between atoms: O_12  and  C_13
REMARK    6  A    between atoms: O_16  and  C_19
REMARK    7  A    between atoms: C_20  and  N_22
REMARK    8  A    between atoms: C_23  and  C_25
REMARK    9  A    between atoms: C_26  and  O_31
REMARK   10  A    between atoms: O_31  and  C_32
REMARK                            x       y       z     vdW  Elec       q    Type
REMARK                         _______ _______ _______ _____ _____    ______ ____
ROOT
ATOM      1  O   UNL     1      34.593 -17.288 -23.077  0.00  0.00    -0.444 OA
ATOM      2  N   UNL     1      35.387 -17.196 -20.961  0.00  0.00    -0.371 NA
ATOM      3  C   UNL     1      34.611 -16.653 -21.873  0.00  0.00    +0.277 C 
ATOM      4  C   UNL     1      35.924 -18.276 -21.614  0.00  0.00    +0.154 C 
ATOM      5  C   UNL     1      35.444 -18.336 -22.899  0.00  0.00    +0.264 C 
ENDROOT
BRANCH   3   6
ATOM      6  C   UNL     1      33.777 -15.480 -21.781  0.00  0.00    +0.069 C 
ATOM      7  C   UNL     1      32.810 -13.514 -22.800  0.00  0.00    +0.172 C 
ATOM      8  C   UNL     1      33.617 -14.649 -22.889  0.00  0.00    +0.046 C 
ATOM      9  C   UNL     1      32.163 -13.211 -21.601  0.00  0.00    +0.178 C 
ATOM     10  C   UNL     1      33.131 -15.177 -20.582  0.00  0.00    +0.009 C 
ATOM     11  C   UNL     1      32.324 -14.043 -20.492  0.00  0.00    +0.040 C 
BRANCH   7  12
ATOM     12  O   UNL     1      32.661 -12.710 -23.889  0.00  0.00    -0.476 OA
BRANCH  12  13
ATOM     13  C   UNL     1      33.821 -12.015 -24.344  0.00  0.00    +0.166 C 
ATOM     14  C   UNL     1      33.848 -12.031 -25.865  0.00  0.00    +0.047 C 
ATOM     15  C   UNL     1      33.805 -10.597 -23.792  0.00  0.00    +0.047 C 
ENDBRANCH  12  13
ENDBRANCH   7  12
BRANCH   9  16
ATOM     16  O   UNL     1      31.373 -12.106 -21.501  0.00  0.00    -0.421 OA
BRANCH  16  19
ATOM     17  F   UNL     1      31.200  -9.934 -20.974  0.00  0.00    -0.155 F 
ATOM     18  F   UNL     1      31.255 -11.387 -19.357  0.00  0.00    -0.155 F 
ATOM     19  C   UNL     1      31.771 -11.100 -20.578  0.00  0.00    +0.509 C 
ENDBRANCH  16  19
ENDBRANCH   9  16
ENDBRANCH   3   6
BRANCH   4  20
ATOM     20  C   UNL     1      36.869 -19.178 -20.940  0.00  0.00    +0.149 C 
BRANCH  20  22
ATOM     21  O   UNL     1      37.376 -21.921 -20.262  0.00  0.00    -0.270 OA
ATOM     22  N   UNL     1      36.267 -19.926 -19.855  0.00  0.00    -0.295 N 
ATOM     23  C   UNL     1      36.580 -21.251 -19.610  0.00  0.00    +0.249 C 
ATOM     24  H   UNL     1      35.613 -19.476 -19.273  0.00  0.00    +0.150 HD
BRANCH  23  25
ATOM     25  C   UNL     1      35.857 -21.884 -18.477  0.00  0.00    +0.087 C 
ATOM     26  C   UNL     1      34.502 -22.197 -18.577  0.00  0.00    +0.143 C 
ATOM     27  C   UNL     1      36.554 -22.167 -17.302  0.00  0.00    +0.008 C 
ATOM     28  C   UNL     1      33.842 -22.791 -17.501  0.00  0.00    +0.037 C 
ATOM     29  C   UNL     1      35.894 -22.762 -16.225  0.00  0.00    +0.000 C 
ATOM     30  C   UNL     1      34.538 -23.074 -16.326  0.00  0.00    +0.003 C 
BRANCH  26  31
ATOM     31  O   UNL     1      33.804 -21.928 -19.715  0.00  0.00    -0.475 OA
BRANCH  31  32
ATOM     32  C   UNL     1      32.807 -20.911 -19.640  0.00  0.00    +0.206 C 
ATOM     33  C   UNL     1      32.867 -20.067 -20.895  0.00  0.00    +0.051 C 
ENDBRANCH  31  32
ENDBRANCH  26  31
ENDBRANCH  23  25
ENDBRANCH  20  22
ENDBRANCH   4  20
TORSDOF 10
ENDMDL
MODEL 4
REMARK VINA RESULT:     -10.6      4.366     10.432
REMARK  Name = 57855696
REMARK  10 active torsions:
REMARK  status: ('A' for Active; 'I' for Inactive)
REMARK    1  A    between atoms: C_3  and  C_6
REMARK    2  A    between atoms: C_4  and  C_20
REMARK    3  A    between atoms: C_7  and  O_12
REMARK    4  A    between atoms: C_9  and  O_16
REMARK    5  A    between atoms: O_12  and  C_13
REMARK    6  A    between atoms: O_16  and  C_19
REMARK    7  A    between atoms: C_20  and  N_22
REMARK    8  A    between atoms: C_23  and  C_25
REMARK    9  A    between atoms: C_26  and  O_31
REMARK   10  A    between atoms: O_31  and  C_32
REMARK                            x       y       z     vdW  Elec       q    Type
REMARK                         _______ _______ _______ _____ _____    ______ ____
ROOT
ATOM      1  O   UNL     1      32.798 -20.981 -19.936  0.00  0.00    -0.444 OA
ATOM      2  N   UNL     1      35.000 -20.477 -20.059  0.00  0.00    -0.371 NA
ATOM      3  C   UNL     1      34.054 -21.141 -19.434  0.00  0.00    +0.277 C 
ATOM      4  C   UNL     1      34.315 -19.826 -21.054  0.00  0.00    +0.154 C 
ATOM      5  C   UNL     1      32.979 -20.130 -20.983  0.00  0.00    +0.264 C 
ENDROOT
BRANCH   3   6
ATOM      6  C   UNL     1      34.154 -22.016 -18.292  0.00  0.00    +0.069 C 
ATOM      7  C   UNL     1      33.112 -23.483 -16.680  0.00  0.00    +0.172 C 
ATOM      8  C   UNL     1      33.013 -22.637 -17.785  0.00  0.00    +0.046 C 
ATOM      9  C   UNL     1      34.352 -23.707 -16.081  0.00  0.00    +0.178 C 
ATOM     10  C   UNL     1      35.395 -22.240 -17.693  0.00  0.00    +0.009 C 
ATOM     11  C   UNL     1      35.493 -23.085 -16.588  0.00  0.00    +0.040 C 
BRANCH   7  12
ATOM     12  O   UNL     1      31.990 -24.083 -16.194  0.00  0.00    -0.476 OA
BRANCH  12  13
ATOM     13  C   UNL     1      30.944 -23.229 -15.735  0.00  0.00    +0.166 C 
ATOM     14  C   UNL     1      29.607 -23.929 -15.926  0.00  0.00    +0.047 C 
ATOM     15  C   UNL     1      31.193 -22.869 -14.278  0.00  0.00    +0.047 C 
ENDBRANCH  12  13
ENDBRANCH   7  12
BRANCH   9  16
ATOM     16  O   UNL     1      34.460 -24.530 -15.002  0.00  0.00    -0.421 OA
BRANCH  16  19
ATOM     17  F   UNL     1      35.782 -25.168 -13.306  0.00  0.00    -0.155 F 
ATOM     18  F   UNL     1      35.987 -26.189 -15.215  0.00  0.00    -0.155 F 
ATOM     19  C   UNL     1      35.765 -24.976 -14.649  0.00  0.00    +0.509 C 
ENDBRANCH  16  19
ENDBRANCH   9  16
ENDBRANCH   3   6
BRANCH   4  20
ATOM     20  C   UNL     1      35.012 -18.951 -22.008  0.00  0.00    +0.149 C 
BRANCH  20  22
ATOM     21  O   UNL     1      35.289 -16.629 -20.343  0.00  0.00    -0.270 OA
ATOM     22  N   UNL     1      34.357 -17.672 -22.192  0.00  0.00    -0.295 N 
ATOM     23  C   UNL     1      34.558 -16.609 -21.330  0.00  0.00    +0.249 C 
ATOM     24  H   UNL     1      33.749 -17.555 -22.958  0.00  0.00    +0.150 HD
BRANCH  23  25
ATOM     25  C   UNL     1      33.792 -15.374 -21.640  0.00  0.00    +0.087 C 
ATOM     26  C   UNL     1      33.836 -14.805 -22.913  0.00  0.00    +0.143 C 
ATOM     27  C   UNL     1      33.022 -14.785 -20.638  0.00  0.00    +0.008 C 
ATOM     28  C   UNL     1      33.110 -13.645 -23.184  0.00  0.00    +0.037 C 
ATOM     29  C   UNL     1      32.295 -13.624 -20.908  0.00  0.00    +0.000 C 
ATOM     30  C   UNL     1      32.339 -13.055 -22.182  0.00  0.00    +0.003 C 
BRANCH  26  31
ATOM     31  O   UNL     1      34.583 -15.366 -23.904  0.00  0.00    -0.475 OA
BRANCH  31  32
ATOM     32  C   UNL     1      33.899 -15.738 -25.099  0.00  0.00    +0.206 C 
ATOM     33  C   UNL     1      34.290 -17.152 -25.471  0.00  0.00    +0.051 C 
ENDBRANCH  31  32
ENDBRANCH  26  31
ENDBRANCH  23  25
ENDBRANCH  20  22
ENDBRANCH   4  20
TORSDOF 10
ENDMDL
MODEL 5
REMARK VINA RESULT:     -10.6      5.804      8.969
REMARK  Name = 57855696
REMARK  10 active torsions:
REMARK  status: ('A' for Active; 'I' for Inactive)
REMARK    1  A    between atoms: C_3  and  C_6
REMARK    2  A    between atoms: C_4  and  C_20
REMARK    3  A    between atoms: C_7  and  O_12
REMARK    4  A    between atoms: C_9  and  O_16
REMARK    5  A    between atoms: O_12  and  C_13
REMARK    6  A    between atoms: O_16  and  C_19
REMARK    7  A    between atoms: C_20  and  N_22
REMARK    8  A    between atoms: C_23  and  C_25
REMARK    9  A    between atoms: C_26  and  O_31
REMARK   10  A    between atoms: O_31  and  C_32
REMARK                            x       y       z     vdW  Elec       q    Type
REMARK                         _______ _______ _______ _____ _____    ______ ____
ROOT
ATOM      1  O   UNL     1      33.931 -11.455 -26.294  0.00  0.00    -0.444 OA
ATOM      2  N   UNL     1      33.277 -12.964 -24.740  0.00  0.00    -0.371 NA
ATOM      3  C   UNL     1      33.547 -11.707 -25.012  0.00  0.00    +0.277 C 
ATOM      4  C   UNL     1      33.500 -13.594 -25.938  0.00  0.00    +0.154 C 
ATOM      5  C   UNL     1      33.896 -12.682 -26.884  0.00  0.00    +0.264 C 
ENDROOT
BRANCH   3   6
ATOM      6  C   UNL     1      33.496 -10.554 -24.147  0.00  0.00    +0.069 C 
ATOM      7  C   UNL     1      32.597  -9.432 -22.206  0.00  0.00    +0.172 C 
ATOM      8  C   UNL     1      32.646 -10.547 -23.042  0.00  0.00    +0.046 C 
ATOM      9  C   UNL     1      33.399  -8.323 -22.474  0.00  0.00    +0.178 C 
ATOM     10  C   UNL     1      34.299  -9.445 -24.416  0.00  0.00    +0.009 C 
ATOM     11  C   UNL     1      34.251  -8.329 -23.580  0.00  0.00    +0.040 C 
BRANCH   7  12
ATOM     12  O   UNL     1      31.762  -9.437 -21.130  0.00  0.00    -0.476 OA
BRANCH  12  13
ATOM     13  C   UNL     1      31.610 -10.673 -20.433  0.00  0.00    +0.166 C 
ATOM     14  C   UNL     1      31.549 -10.399 -18.938  0.00  0.00    +0.047 C 
ATOM     15  C   UNL     1      30.358 -11.379 -20.932  0.00  0.00    +0.047 C 
ENDBRANCH  12  13
ENDBRANCH   7  12
BRANCH   9  16
ATOM     16  O   UNL     1      33.360  -7.228 -21.665  0.00  0.00    -0.421 OA
BRANCH  16  19
ATOM     17  F   UNL     1      31.587  -6.717 -22.939  0.00  0.00    -0.155 F 
ATOM     18  F   UNL     1      31.621  -6.006 -20.884  0.00  0.00    -0.155 F 
ATOM     19  C   UNL     1      32.401  -6.223 -21.972  0.00  0.00    +0.509 C 
ENDBRANCH  16  19
ENDBRANCH   9  16
ENDBRANCH   3   6
BRANCH   4  20
ATOM     20  C   UNL     1      33.310 -15.045 -26.079  0.00  0.00    +0.149 C 
BRANCH  20  22
ATOM     21  O   UNL     1      35.121 -17.262 -25.862  0.00  0.00    -0.270 OA
ATOM     22  N   UNL     1      33.634 -15.783 -24.875  0.00  0.00    -0.295 N 
ATOM     23  C   UNL     1      34.524 -16.841 -24.874  0.00  0.00    +0.249 C 
ATOM     24  H   UNL     1      33.206 -15.521 -24.028  0.00  0.00    +0.150 HD
BRANCH  23  25
ATOM     25  C   UNL     1      34.728 -17.511 -23.564  0.00  0.00    +0.087 C 
ATOM     26  C   UNL     1      34.932 -16.766 -22.403  0.00  0.00    +0.143 C 
ATOM     27  C   UNL     1      34.713 -18.905 -23.506  0.00  0.00    +0.008 C 
ATOM     28  C   UNL     1      35.122 -17.415 -21.182  0.00  0.00    +0.037 C 
ATOM     29  C   UNL     1      34.903 -19.554 -22.285  0.00  0.00    +0.000 C 
ATOM     30  C   UNL     1      35.107 -18.808 -21.124  0.00  0.00    +0.003 C 
BRANCH  26  31
ATOM     31  O   UNL     1      34.950 -15.404 -22.440  0.00  0.00    -0.475 OA
BRANCH  31  32
ATOM     32  C   UNL     1      34.386 -14.718 -21.324  0.00  0.00    +0.206 C 
ATOM     33  C   UNL     1      32.904 -14.525 -21.562  0.00  0.00    +0.051 C 
ENDBRANCH  31  32
ENDBRANCH  26  31
ENDBRANCH  23  25
ENDBRANCH  20  22
ENDBRANCH   4  20
TORSDOF 10
ENDMDL
MODEL 6
REMARK VINA RESULT:     -10.5      4.959     11.282
REMARK  Name = 57855696
REMARK  10 active torsions:
REMARK  status: ('A' for Active; 'I' for Inactive)
REMARK    1  A    between atoms: C_3  and  C_6
REMARK    2  A    between atoms: C_4  and  C_20
REMARK    3  A    between atoms: C_7  and  O_12
REMARK    4  A    between atoms: C_9  and  O_16
REMARK    5  A    between atoms: O_12  and  C_13
REMARK    6  A    between atoms: O_16  and  C_19
REMARK    7  A    between atoms: C_20  and  N_22
REMARK    8  A    between atoms: C_23  and  C_25
REMARK    9  A    between atoms: C_26  and  O_31
REMARK   10  A    between atoms: O_31  and  C_32
REMARK                            x       y       z     vdW  Elec       q    Type
REMARK                         _______ _______ _______ _____ _____    ______ ____
ROOT
ATOM      1  O   UNL     1      34.714 -22.490 -18.449  0.00  0.00    -0.444 OA
ATOM      2  N   UNL     1      36.593 -21.261 -18.176  0.00  0.00    -0.371 NA
ATOM      3  C   UNL     1      35.762 -22.136 -17.656  0.00  0.00    +0.277 C 
ATOM      4  C   UNL     1      36.052 -21.016 -19.412  0.00  0.00    +0.154 C 
ATOM      5  C   UNL     1      34.912 -21.761 -19.583  0.00  0.00    +0.264 C 
ENDROOT
BRANCH   3   6
ATOM      6  C   UNL     1      35.801 -22.776 -16.364  0.00  0.00    +0.069 C 
ATOM      7  C   UNL     1      37.056 -23.802 -14.573  0.00  0.00    +0.172 C 
ATOM      8  C   UNL     1      37.020 -23.184 -15.822  0.00  0.00    +0.046 C 
ATOM      9  C   UNL     1      35.873 -24.012 -13.864  0.00  0.00    +0.178 C 
ATOM     10  C   UNL     1      34.617 -22.986 -15.655  0.00  0.00    +0.009 C 
ATOM     11  C   UNL     1      34.653 -23.605 -14.406  0.00  0.00    +0.040 C 
BRANCH   7  12
ATOM     12  O   UNL     1      38.252 -24.196 -14.054  0.00  0.00    -0.476 OA
BRANCH  12  13
ATOM     13  C   UNL     1      38.918 -25.276 -14.708  0.00  0.00    +0.166 C 
ATOM     14  C   UNL     1      40.296 -25.461 -14.091  0.00  0.00    +0.047 C 
ATOM     15  C   UNL     1      38.070 -26.533 -14.591  0.00  0.00    +0.047 C 
ENDBRANCH  12  13
ENDBRANCH   7  12
BRANCH   9  16
ATOM     16  O   UNL     1      35.895 -24.616 -12.643  0.00  0.00    -0.421 OA
BRANCH  16  19
ATOM     17  F   UNL     1      35.562 -24.611 -10.425  0.00  0.00    -0.155 F 
ATOM     18  F   UNL     1      36.745 -23.006 -11.294  0.00  0.00    -0.155 F 
ATOM     19  C   UNL     1      35.661 -23.795 -11.505  0.00  0.00    +0.509 C 
ENDBRANCH  16  19
ENDBRANCH   9  16
ENDBRANCH   3   6
BRANCH   4  20
ATOM     20  C   UNL     1      36.684 -20.073 -20.346  0.00  0.00    +0.149 C 
BRANCH  20  22
ATOM     21  O   UNL     1      36.817 -18.354 -22.641  0.00  0.00    -0.270 OA
ATOM     22  N   UNL     1      35.887 -18.887 -20.585  0.00  0.00    -0.295 N 
ATOM     23  C   UNL     1      36.027 -18.122 -21.729  0.00  0.00    +0.249 C 
ATOM     24  H   UNL     1      35.223 -18.617 -19.911  0.00  0.00    +0.150 HD
BRANCH  23  25
ATOM     25  C   UNL     1      35.155 -16.922 -21.812  0.00  0.00    +0.087 C 
ATOM     26  C   UNL     1      34.821 -16.364 -23.046  0.00  0.00    +0.143 C 
ATOM     27  C   UNL     1      34.669 -16.355 -20.634  0.00  0.00    +0.008 C 
ATOM     28  C   UNL     1      34.001 -15.236 -23.102  0.00  0.00    +0.037 C 
ATOM     29  C   UNL     1      33.849 -15.227 -20.690  0.00  0.00    +0.000 C 
ATOM     30  C   UNL     1      33.515 -14.669 -21.925  0.00  0.00    +0.003 C 
BRANCH  26  31
ATOM     31  O   UNL     1      35.287 -16.903 -24.207  0.00  0.00    -0.475 OA
BRANCH  31  32
ATOM     32  C   UNL     1      34.318 -17.439 -25.106  0.00  0.00    +0.206 C 
ATOM     33  C   UNL     1      34.266 -18.943 -24.936  0.00  0.00    +0.051 C 
ENDBRANCH  31  32
ENDBRANCH  26  31
ENDBRANCH  23  25
ENDBRANCH  20  22
ENDBRANCH   4  20
TORSDOF 10
ENDMDL
MODEL 7
REMARK VINA RESULT:     -10.5      4.705     11.473
REMARK  Name = 57855696
REMARK  10 active torsions:
REMARK  status: ('A' for Active; 'I' for Inactive)
REMARK    1  A    between atoms: C_3  and  C_6
REMARK    2  A    between atoms: C_4  and  C_20
REMARK    3  A    between atoms: C_7  and  O_12
REMARK    4  A    between atoms: C_9  and  O_16
REMARK    5  A    between atoms: O_12  and  C_13
REMARK    6  A    between atoms: O_16  and  C_19
REMARK    7  A    between atoms: C_20  and  N_22
REMARK    8  A    between atoms: C_23  and  C_25
REMARK    9  A    between atoms: C_26  and  O_31
REMARK   10  A    between atoms: O_31  and  C_32
REMARK                            x       y       z     vdW  Elec       q    Type
REMARK                         _______ _______ _______ _____ _____    ______ ____
ROOT
ATOM      1  O   UNL     1      32.720 -13.638 -20.430  0.00  0.00    -0.444 OA
ATOM      2  N   UNL     1      32.033 -12.946 -22.472  0.00  0.00    -0.371 NA
ATOM      3  C   UNL     1      32.707 -13.835 -21.777  0.00  0.00    +0.277 C 
ATOM      4  C   UNL     1      31.562 -12.092 -21.507  0.00  0.00    +0.154 C 
ATOM      5  C   UNL     1      31.976 -12.509 -20.266  0.00  0.00    +0.264 C 
ENDROOT
BRANCH   3   6
ATOM      6  C   UNL     1      33.437 -14.991 -22.238  0.00  0.00    +0.069 C 
ATOM      7  C   UNL     1      34.491 -17.117 -21.786  0.00  0.00    +0.172 C 
ATOM      8  C   UNL     1      33.785 -16.000 -21.340  0.00  0.00    +0.046 C 
ATOM      9  C   UNL     1      34.848 -17.226 -23.130  0.00  0.00    +0.178 C 
ATOM     10  C   UNL     1      33.795 -15.099 -23.582  0.00  0.00    +0.009 C 
ATOM     11  C   UNL     1      34.500 -16.216 -24.028  0.00  0.00    +0.040 C 
BRANCH   7  12
ATOM     12  O   UNL     1      34.825 -18.096 -20.900  0.00  0.00    -0.476 OA
BRANCH  12  13
ATOM     13  C   UNL     1      34.327 -19.407 -21.163  0.00  0.00    +0.166 C 
ATOM     14  C   UNL     1      35.227 -20.429 -20.486  0.00  0.00    +0.047 C 
ATOM     15  C   UNL     1      32.890 -19.504 -20.673  0.00  0.00    +0.047 C 
ENDBRANCH  12  13
ENDBRANCH   7  12
BRANCH   9  16
ATOM     16  O   UNL     1      35.538 -18.312 -23.578  0.00  0.00    -0.421 OA
BRANCH  16  19
ATOM     17  F   UNL     1      35.238 -20.343 -24.481  0.00  0.00    -0.155 F 
ATOM     18  F   UNL     1      33.642 -18.879 -24.679  0.00  0.00    -0.155 F 
ATOM     19  C   UNL     1      34.991 -19.023 -24.682  0.00  0.00    +0.509 C 
ENDBRANCH  16  19
ENDBRANCH   9  16
ENDBRANCH   3   6
BRANCH   4  20
ATOM     20  C   UNL     1      30.739 -10.927 -21.860  0.00  0.00    +0.149 C 
BRANCH  20  22
ATOM     21  O   UNL     1      32.170  -8.609 -20.954  0.00  0.00    -0.270 OA
ATOM     22  N   UNL     1      31.438  -9.964 -22.687  0.00  0.00    -0.295 N 
ATOM     23  C   UNL     1      32.101  -8.875 -22.151  0.00  0.00    +0.249 C 
ATOM     24  H   UNL     1      31.441 -10.090 -23.664  0.00  0.00    +0.150 HD
BRANCH  23  25
ATOM     25  C   UNL     1      32.746  -7.966 -23.134  0.00  0.00    +0.087 C 
ATOM     26  C   UNL     1      33.927  -8.330 -23.779  0.00  0.00    +0.143 C 
ATOM     27  C   UNL     1      32.152  -6.733 -23.408  0.00  0.00    +0.008 C 
ATOM     28  C   UNL     1      34.517  -7.461 -24.698  0.00  0.00    +0.037 C 
ATOM     29  C   UNL     1      32.741  -5.864 -24.327  0.00  0.00    +0.000 C 
ATOM     30  C   UNL     1      33.923  -6.230 -24.973  0.00  0.00    +0.003 C 
BRANCH  26  31
ATOM     31  O   UNL     1      34.522  -9.529 -23.524  0.00  0.00    -0.475 OA
BRANCH  31  32
ATOM     32  C   UNL     1      35.017 -10.258 -24.646  0.00  0.00    +0.206 C 
ATOM     33  C   UNL     1      34.058 -11.384 -24.964  0.00  0.00    +0.051 C 
ENDBRANCH  31  32
ENDBRANCH  26  31
ENDBRANCH  23  25
ENDBRANCH  20  22
ENDBRANCH   4  20
TORSDOF 10
ENDMDL
MODEL 8
REMARK VINA RESULT:     -10.5      4.911     11.947
REMARK  Name = 57855696
REMARK  10 active torsions:
REMARK  status: ('A' for Active; 'I' for Inactive)
REMARK    1  A    between atoms: C_3  and  C_6
REMARK    2  A    between atoms: C_4  and  C_20
REMARK    3  A    between atoms: C_7  and  O_12
REMARK    4  A    between atoms: C_9  and  O_16
REMARK    5  A    between atoms: O_12  and  C_13
REMARK    6  A    between atoms: O_16  and  C_19
REMARK    7  A    between atoms: C_20  and  N_22
REMARK    8  A    between atoms: C_23  and  C_25
REMARK    9  A    between atoms: C_26  and  O_31
REMARK   10  A    between atoms: O_31  and  C_32
REMARK                            x       y       z     vdW  Elec       q    Type
REMARK                         _______ _______ _______ _____ _____    ______ ____
ROOT
ATOM      1  O   UNL     1      32.675 -13.732 -20.371  0.00  0.00    -0.444 OA
ATOM      2  N   UNL     1      32.070 -12.964 -22.411  0.00  0.00    -0.371 NA
ATOM      3  C   UNL     1      32.705 -13.887 -21.723  0.00  0.00    +0.277 C 
ATOM      4  C   UNL     1      31.582 -12.132 -21.435  0.00  0.00    +0.154 C 
ATOM      5  C   UNL     1      31.946 -12.595 -20.196  0.00  0.00    +0.264 C 
ENDROOT
BRANCH   3   6
ATOM      6  C   UNL     1      33.429 -15.041 -22.196  0.00  0.00    +0.069 C 
ATOM      7  C   UNL     1      34.477 -17.175 -21.767  0.00  0.00    +0.172 C 
ATOM      8  C   UNL     1      33.776 -16.059 -21.309  0.00  0.00    +0.046 C 
ATOM      9  C   UNL     1      34.831 -17.272 -23.113  0.00  0.00    +0.178 C 
ATOM     10  C   UNL     1      33.783 -15.138 -23.542  0.00  0.00    +0.009 C 
ATOM     11  C   UNL     1      34.484 -16.253 -24.001  0.00  0.00    +0.040 C 
BRANCH   7  12
ATOM     12  O   UNL     1      34.811 -18.163 -20.891  0.00  0.00    -0.476 OA
BRANCH  12  13
ATOM     13  C   UNL     1      34.310 -19.470 -21.166  0.00  0.00    +0.166 C 
ATOM     14  C   UNL     1      35.222 -20.501 -20.518  0.00  0.00    +0.047 C 
ATOM     15  C   UNL     1      32.881 -19.578 -20.659  0.00  0.00    +0.047 C 
ENDBRANCH  12  13
ENDBRANCH   7  12
BRANCH   9  16
ATOM     16  O   UNL     1      35.515 -18.357 -23.572  0.00  0.00    -0.421 OA
BRANCH  16  19
ATOM     17  F   UNL     1      35.244 -20.370 -24.522  0.00  0.00    -0.155 F 
ATOM     18  F   UNL     1      33.615 -18.936 -24.660  0.00  0.00    -0.155 F 
ATOM     19  C   UNL     1      34.966 -19.052 -24.685  0.00  0.00    +0.509 C 
ENDBRANCH  16  19
ENDBRANCH   9  16
ENDBRANCH   3   6
BRANCH   4  20
ATOM     20  C   UNL     1      30.791 -10.942 -21.778  0.00  0.00    +0.149 C 
BRANCH  20  22
ATOM     21  O   UNL     1      32.478  -8.801 -20.875  0.00  0.00    -0.270 OA
ATOM     22  N   UNL     1      31.512  -9.998 -22.609  0.00  0.00    -0.295 N 
ATOM     23  C   UNL     1      32.303  -8.997 -22.075  0.00  0.00    +0.249 C 
ATOM     24  H   UNL     1      31.436 -10.073 -23.588  0.00  0.00    +0.150 HD
BRANCH  23  25
ATOM     25  C   UNL     1      32.954  -8.095 -23.060  0.00  0.00    +0.087 C 
ATOM     26  C   UNL     1      32.251  -7.038 -23.636  0.00  0.00    +0.143 C 
ATOM     27  C   UNL     1      34.287  -8.318 -23.404  0.00  0.00    +0.008 C 
ATOM     28  C   UNL     1      32.880  -6.202 -24.559  0.00  0.00    +0.037 C 
ATOM     29  C   UNL     1      34.918  -7.482 -24.327  0.00  0.00    +0.000 C 
ATOM     30  C   UNL     1      34.213  -6.424 -24.904  0.00  0.00    +0.003 C 
BRANCH  26  31
ATOM     31  O   UNL     1      30.948  -6.805 -23.312  0.00  0.00    -0.475 OA
BRANCH  31  32
ATOM     32  C   UNL     1      30.642  -5.543 -22.723  0.00  0.00    +0.206 C 
ATOM     33  C   UNL     1      30.988  -5.590 -21.250  0.00  0.00    +0.051 C 
ENDBRANCH  31  32
ENDBRANCH  26  31
ENDBRANCH  23  25
ENDBRANCH  20  22
ENDBRANCH   4  20
TORSDOF 10
ENDMDL
MODEL 9
REMARK VINA RESULT:     -10.4      1.450      2.464
REMARK  Name = 57855696
REMARK  10 active torsions:
REMARK  status: ('A' for Active; 'I' for Inactive)
REMARK    1  A    between atoms: C_3  and  C_6
REMARK    2  A    between atoms: C_4  and  C_20
REMARK    3  A    between atoms: C_7  and  O_12
REMARK    4  A    between atoms: C_9  and  O_16
REMARK    5  A    between atoms: O_12  and  C_13
REMARK    6  A    between atoms: O_16  and  C_19
REMARK    7  A    between atoms: C_20  and  N_22
REMARK    8  A    between atoms: C_23  and  C_25
REMARK    9  A    between atoms: C_26  and  O_31
REMARK   10  A    between atoms: O_31  and  C_32
REMARK                            x       y       z     vdW  Elec       q    Type
REMARK                         _______ _______ _______ _____ _____    ______ ____
ROOT
ATOM      1  O   UNL     1      33.161 -19.117 -21.250  0.00  0.00    -0.444 OA
ATOM      2  N   UNL     1      35.339 -19.122 -20.638  0.00  0.00    -0.371 NA
ATOM      3  C   UNL     1      34.347 -18.452 -21.181  0.00  0.00    +0.277 C 
ATOM      4  C   UNL     1      34.763 -20.327 -20.323  0.00  0.00    +0.154 C 
ATOM      5  C   UNL     1      33.441 -20.327 -20.692  0.00  0.00    +0.264 C 
ENDROOT
BRANCH   3   6
ATOM      6  C   UNL     1      34.335 -17.112 -21.715  0.00  0.00    +0.069 C 
ATOM      7  C   UNL     1      34.363 -15.614 -23.609  0.00  0.00    +0.172 C 
ATOM      8  C   UNL     1      34.374 -16.910 -23.094  0.00  0.00    +0.046 C 
ATOM      9  C   UNL     1      34.312 -14.520 -22.745  0.00  0.00    +0.178 C 
ATOM     10  C   UNL     1      34.284 -16.018 -20.850  0.00  0.00    +0.009 C 
ATOM     11  C   UNL     1      34.273 -14.722 -21.365  0.00  0.00    +0.040 C 
BRANCH   7  12
ATOM     12  O   UNL     1      34.402 -15.429 -24.958  0.00  0.00    -0.476 OA
BRANCH  12  13
ATOM     13  C   UNL     1      33.165 -15.145 -25.610  0.00  0.00    +0.166 C 
ATOM     14  C   UNL     1      33.334 -13.915 -26.489  0.00  0.00    +0.047 C 
ATOM     15  C   UNL     1      32.731 -16.361 -26.413  0.00  0.00    +0.047 C 
ENDBRANCH  12  13
ENDBRANCH   7  12
BRANCH   9  16
ATOM     16  O   UNL     1      34.300 -13.249 -23.237  0.00  0.00    -0.421 OA
BRANCH  16  19
ATOM     17  F   UNL     1      33.115 -11.487 -23.956  0.00  0.00    -0.155 F 
ATOM     18  F   UNL     1      32.036 -13.254 -23.292  0.00  0.00    -0.155 F 
ATOM     19  C   UNL     1      33.120 -12.481 -23.033  0.00  0.00    +0.509 C 
ENDBRANCH  16  19
ENDBRANCH   9  16
ENDBRANCH   3   6
BRANCH   4  20
ATOM     20  C   UNL     1      35.541 -21.396 -19.681  0.00  0.00    +0.149 C 
BRANCH  20  22
ATOM     21  O   UNL     1      33.823 -23.662 -19.284  0.00  0.00    -0.270 OA
ATOM     22  N   UNL     1      34.971 -21.840 -18.425  0.00  0.00    -0.295 N 
ATOM     23  C   UNL     1      34.151 -22.951 -18.338  0.00  0.00    +0.249 C 
ATOM     24  H   UNL     1      35.176 -21.334 -17.605  0.00  0.00    +0.150 HD
BRANCH  23  25
ATOM     25  C   UNL     1      33.626 -23.259 -16.983  0.00  0.00    +0.087 C 
ATOM     26  C   UNL     1      34.480 -23.671 -15.960  0.00  0.00    +0.143 C 
ATOM     27  C   UNL     1      32.258 -23.131 -16.741  0.00  0.00    +0.008 C 
ATOM     28  C   UNL     1      33.967 -23.956 -14.694  0.00  0.00    +0.037 C 
ATOM     29  C   UNL     1      31.744 -23.416 -15.475  0.00  0.00    +0.000 C 
ATOM     30  C   UNL     1      32.599 -23.828 -14.452  0.00  0.00    +0.003 C 
BRANCH  26  31
ATOM     31  O   UNL     1      35.819 -23.802 -16.177  0.00  0.00    -0.475 OA
BRANCH  31  32
ATOM     32  C   UNL     1      36.689 -23.071 -15.315  0.00  0.00    +0.206 C 
ATOM     33  C   UNL     1      37.554 -22.152 -16.151  0.00  0.00    +0.051 C 
ENDBRANCH  31  32
ENDBRANCH  26  31
ENDBRANCH  23  25
ENDBRANCH  20  22
ENDBRANCH   4  20
TORSDOF 10
ENDMDL
