MODEL 1
REMARK VINA RESULT:      -8.6      0.000      0.000
REMARK  Name = 57050
REMARK  0 active torsions:
REMARK  status: ('A' for Active; 'I' for Inactive)
REMARK                            x       y       z     vdW  Elec       q    Type
REMARK                         _______ _______ _______ _____ _____    ______ ____
ROOT
ATOM      1  O   UNL     1      35.313  -3.259 -28.218  0.00  0.00    -0.296 OA
ATOM      2  O   UNL     1      32.933  -7.093 -19.396  0.00  0.00    -0.287 OA
ATOM      3  C   UNL     1      32.078  -4.606 -24.866  0.00  0.00    +0.001 C 
ATOM      4  C   UNL     1      33.013  -3.678 -25.646  0.00  0.00    +0.007 C 
ATOM      5  C   UNL     1      32.912  -5.823 -24.313  0.00  0.00    +0.007 C 
ATOM      6  C   UNL     1      33.652  -4.394 -26.850  0.00  0.00    +0.052 C 
ATOM      7  C   UNL     1      32.006  -6.823 -23.476  0.00  0.00    +0.030 C 
ATOM      8  C   UNL     1      33.782  -6.474 -25.422  0.00  0.00    +0.001 C 
ATOM      9  C   UNL     1      34.565  -5.482 -26.301  0.00  0.00    +0.007 C 
ATOM     10  C   UNL     1      31.369  -3.849 -23.731  0.00  0.00    +0.004 C 
ATOM     11  C   UNL     1      32.474  -2.376 -26.231  0.00  0.00    +0.008 C 
ATOM     12  C   UNL     1      34.335  -3.197 -27.485  0.00  0.00    +0.150 C 
ATOM     13  C   UNL     1      31.382  -5.932 -22.381  0.00  0.00    -0.038 C 
ATOM     14  C   UNL     1      33.628  -1.902 -27.126  0.00  0.00    +0.064 C 
ATOM     15  C   UNL     1      30.536  -4.773 -22.849  0.00  0.00    +0.022 C 
ATOM     16  C   UNL     1      32.678  -4.956 -27.901  0.00  0.00    +0.007 C 
ATOM     17  C   UNL     1      32.797  -7.997 -22.846  0.00  0.00    -0.038 C 
ATOM     18  C   UNL     1      30.869  -7.441 -24.330  0.00  0.00    +0.008 C 
ATOM     19  C   UNL     1      31.659  -6.044 -21.073  0.00  0.00    +0.034 C 
ATOM     20  C   UNL     1      33.085  -8.065 -21.535  0.00  0.00    +0.034 C 
ATOM     21  C   UNL     1      33.159  -9.205 -23.681  0.00  0.00    +0.027 C 
ATOM     22  C   UNL     1      32.597  -7.062 -20.575  0.00  0.00    +0.195 C 
ENDROOT
TORSDOF 0
ENDMDL
MODEL 2
REMARK VINA RESULT:      -8.6      6.700     11.103
REMARK  Name = 57050
REMARK  0 active torsions:
REMARK  status: ('A' for Active; 'I' for Inactive)
REMARK                            x       y       z     vdW  Elec       q    Type
REMARK                         _______ _______ _______ _____ _____    ______ ____
ROOT
ATOM      1  O   UNL     1      35.885 -18.256 -20.479  0.00  0.00    -0.296 OA
ATOM      2  O   UNL     1      35.280 -10.329 -26.394  0.00  0.00    -0.287 OA
ATOM      3  C   UNL     1      33.810 -15.739 -24.067  0.00  0.00    +0.001 C 
ATOM      4  C   UNL     1      34.726 -16.768 -23.397  0.00  0.00    +0.007 C 
ATOM      5  C   UNL     1      34.119 -14.314 -23.468  0.00  0.00    +0.007 C 
ATOM      6  C   UNL     1      34.490 -16.837 -21.877  0.00  0.00    +0.052 C 
ATOM      7  C   UNL     1      33.214 -13.190 -24.130  0.00  0.00    +0.030 C 
ATOM      8  C   UNL     1      34.135 -14.335 -21.916  0.00  0.00    +0.001 C 
ATOM      9  C   UNL     1      34.922 -15.501 -21.289  0.00  0.00    +0.007 C 
ATOM     10  C   UNL     1      33.983 -15.756 -25.594  0.00  0.00    +0.004 C 
ATOM     11  C   UNL     1      34.684 -18.225 -23.847  0.00  0.00    +0.008 C 
ATOM     12  C   UNL     1      35.376 -18.029 -21.568  0.00  0.00    +0.150 C 
ATOM     13  C   UNL     1      33.505 -13.320 -25.640  0.00  0.00    -0.038 C 
ATOM     14  C   UNL     1      35.527 -18.935 -22.777  0.00  0.00    +0.064 C 
ATOM     15  C   UNL     1      33.188 -14.651 -26.281  0.00  0.00    +0.022 C 
ATOM     16  C   UNL     1      33.067 -17.214 -21.428  0.00  0.00    +0.007 C 
ATOM     17  C   UNL     1      33.537 -11.760 -23.628  0.00  0.00    -0.038 C 
ATOM     18  C   UNL     1      31.703 -13.433 -23.885  0.00  0.00    +0.008 C 
ATOM     19  C   UNL     1      34.138 -12.387 -26.367  0.00  0.00    +0.034 C 
ATOM     20  C   UNL     1      34.201 -10.857 -24.370  0.00  0.00    +0.034 C 
ATOM     21  C   UNL     1      32.977 -11.273 -22.310  0.00  0.00    +0.027 C 
ATOM     22  C   UNL     1      34.606 -11.132 -25.758  0.00  0.00    +0.195 C 
ENDROOT
TORSDOF 0
ENDMDL
MODEL 3
REMARK VINA RESULT:      -8.6     19.375     21.734
REMARK  Name = 57050
REMARK  0 active torsions:
REMARK  status: ('A' for Active; 'I' for Inactive)
REMARK                            x       y       z     vdW  Elec       q    Type
REMARK                         _______ _______ _______ _____ _____    ______ ____
ROOT
ATOM      1  O   UNL     1      29.670 -24.395 -15.106  0.00  0.00    -0.296 OA
ATOM      2  O   UNL     1      39.266 -26.847 -14.798  0.00  0.00    -0.287 OA
ATOM      3  C   UNL     1      34.384 -23.268 -15.251  0.00  0.00    +0.001 C 
ATOM      4  C   UNL     1      32.990 -23.622 -15.778  0.00  0.00    +0.007 C 
ATOM      5  C   UNL     1      34.852 -24.394 -14.252  0.00  0.00    +0.007 C 
ATOM      6  C   UNL     1      31.954 -23.701 -14.642  0.00  0.00    +0.052 C 
ATOM      7  C   UNL     1      36.302 -24.101 -13.676  0.00  0.00    +0.030 C 
ATOM      8  C   UNL     1      33.762 -24.713 -13.195  0.00  0.00    +0.001 C 
ATOM      9  C   UNL     1      32.338 -24.880 -13.758  0.00  0.00    +0.007 C 
ATOM     10  C   UNL     1      35.383 -23.090 -16.406  0.00  0.00    +0.004 C 
ATOM     11  C   UNL     1      32.328 -22.731 -16.825  0.00  0.00    +0.008 C 
ATOM     12  C   UNL     1      30.706 -23.871 -15.489  0.00  0.00    +0.150 C 
ATOM     13  C   UNL     1      37.183 -23.964 -14.937  0.00  0.00    -0.038 C 
ATOM     14  C   UNL     1      30.892 -23.274 -16.873  0.00  0.00    +0.064 C 
ATOM     15  C   UNL     1      36.809 -22.874 -15.911  0.00  0.00    +0.022 C 
ATOM     16  C   UNL     1      31.756 -22.419 -13.814  0.00  0.00    +0.007 C 
ATOM     17  C   UNL     1      36.838 -25.220 -12.749  0.00  0.00    -0.038 C 
ATOM     18  C   UNL     1      36.359 -22.774 -12.876  0.00  0.00    +0.008 C 
ATOM     19  C   UNL     1      38.152 -24.829 -15.274  0.00  0.00    +0.034 C 
ATOM     20  C   UNL     1      37.789 -26.091 -13.127  0.00  0.00    +0.034 C 
ATOM     21  C   UNL     1      36.401 -25.283 -11.301  0.00  0.00    +0.027 C 
ATOM     22  C   UNL     1      38.457 -25.998 -14.435  0.00  0.00    +0.195 C 
ENDROOT
TORSDOF 0
ENDMDL
MODEL 4
REMARK VINA RESULT:      -8.1      2.465      4.171
REMARK  Name = 57050
REMARK  0 active torsions:
REMARK  status: ('A' for Active; 'I' for Inactive)
REMARK                            x       y       z     vdW  Elec       q    Type
REMARK                         _______ _______ _______ _____ _____    ______ ____
ROOT
ATOM      1  O   UNL     1      29.674  -3.217 -25.478  0.00  0.00    -0.296 OA
ATOM      2  O   UNL     1      33.624 -12.260 -24.582  0.00  0.00    -0.287 OA
ATOM      3  C   UNL     1      33.307  -6.205 -24.300  0.00  0.00    +0.001 C 
ATOM      4  C   UNL     1      32.471  -5.254 -25.162  0.00  0.00    +0.007 C 
ATOM      5  C   UNL     1      32.391  -7.393 -23.816  0.00  0.00    +0.007 C 
ATOM      6  C   UNL     1      31.297  -4.650 -24.370  0.00  0.00    +0.052 C 
ATOM      7  C   UNL     1      33.198  -8.431 -22.926  0.00  0.00    +0.030 C 
ATOM      8  C   UNL     1      31.059  -6.880 -23.207  0.00  0.00    +0.001 C 
ATOM      9  C   UNL     1      30.346  -5.788 -24.026  0.00  0.00    +0.007 C 
ATOM     10  C   UNL     1      34.532  -6.719 -25.073  0.00  0.00    +0.004 C 
ATOM     11  C   UNL     1      33.135  -4.050 -25.823  0.00  0.00    +0.008 C 
ATOM     12  C   UNL     1      30.813  -3.658 -25.412  0.00  0.00    +0.150 C 
ATOM     13  C   UNL     1      34.372  -8.863 -23.831  0.00  0.00    -0.038 C 
ATOM     14  C   UNL     1      31.935  -3.248 -26.349  0.00  0.00    +0.064 C 
ATOM     15  C   UNL     1      35.310  -7.773 -24.292  0.00  0.00    +0.022 C 
ATOM     16  C   UNL     1      31.671  -3.833 -23.121  0.00  0.00    +0.007 C 
ATOM     17  C   UNL     1      32.359  -9.659 -22.491  0.00  0.00    -0.038 C 
ATOM     18  C   UNL     1      33.767  -7.783 -21.638  0.00  0.00    +0.008 C 
ATOM     19  C   UNL     1      34.520 -10.099 -24.332  0.00  0.00    +0.034 C 
ATOM     20  C   UNL     1      32.510 -10.879 -23.035  0.00  0.00    +0.034 C 
ATOM     21  C   UNL     1      31.416  -9.556 -21.312  0.00  0.00    +0.027 C 
ATOM     22  C   UNL     1      33.549 -11.163 -24.037  0.00  0.00    +0.195 C 
ENDROOT
TORSDOF 0
ENDMDL
MODEL 5
REMARK VINA RESULT:      -7.5      5.013      9.187
REMARK  Name = 57050
REMARK  0 active torsions:
REMARK  status: ('A' for Active; 'I' for Inactive)
REMARK                            x       y       z     vdW  Elec       q    Type
REMARK                         _______ _______ _______ _____ _____    ______ ____
ROOT
ATOM      1  O   UNL     1      35.050 -17.008 -20.614  0.00  0.00    -0.296 OA
ATOM      2  O   UNL     1      33.440  -7.250 -21.236  0.00  0.00    -0.287 OA
ATOM      3  C   UNL     1      33.008 -13.128 -22.687  0.00  0.00    +0.001 C 
ATOM      4  C   UNL     1      34.033 -14.243 -22.457  0.00  0.00    +0.007 C 
ATOM      5  C   UNL     1      32.856 -12.294 -21.359  0.00  0.00    +0.007 C 
ATOM      6  C   UNL     1      33.585 -15.209 -21.345  0.00  0.00    +0.052 C 
ATOM      7  C   UNL     1      31.817 -11.105 -21.528  0.00  0.00    +0.030 C 
ATOM      8  C   UNL     1      32.632 -13.211 -20.127  0.00  0.00    +0.001 C 
ATOM      9  C   UNL     1      33.574 -14.426 -20.040  0.00  0.00    +0.007 C 
ATOM     10  C   UNL     1      33.419 -12.234 -23.868  0.00  0.00    +0.004 C 
ATOM     11  C   UNL     1      34.426 -15.160 -23.612  0.00  0.00    +0.008 C 
ATOM     12  C   UNL     1      34.679 -16.249 -21.499  0.00  0.00    +0.150 C 
ATOM     13  C   UNL     1      32.366 -10.299 -22.725  0.00  0.00    -0.038 C 
ATOM     14  C   UNL     1      35.239 -16.258 -22.911  0.00  0.00    +0.064 C 
ATOM     15  C   UNL     1      32.494 -11.034 -24.037  0.00  0.00    +0.022 C 
ATOM     16  C   UNL     1      32.248 -15.935 -21.576  0.00  0.00    +0.007 C 
ATOM     17  C   UNL     1      31.691 -10.208 -20.271  0.00  0.00    -0.038 C 
ATOM     18  C   UNL     1      30.394 -11.614 -21.874  0.00  0.00    +0.008 C 
ATOM     19  C   UNL     1      32.854  -9.053 -22.631  0.00  0.00    +0.034 C 
ATOM     20  C   UNL     1      32.219  -8.974 -20.197  0.00  0.00    +0.034 C 
ATOM     21  C   UNL     1      30.827 -10.645 -19.109  0.00  0.00    +0.027 C 
ATOM     22  C   UNL     1      32.894  -8.344 -21.343  0.00  0.00    +0.195 C 
ENDROOT
TORSDOF 0
ENDMDL
MODEL 6
REMARK VINA RESULT:      -7.3      4.116      6.623
REMARK  Name = 57050
REMARK  0 active torsions:
REMARK  status: ('A' for Active; 'I' for Inactive)
REMARK                            x       y       z     vdW  Elec       q    Type
REMARK                         _______ _______ _______ _____ _____    ______ ____
ROOT
ATOM      1  O   UNL     1      34.023  -6.382 -23.787  0.00  0.00    -0.296 OA
ATOM      2  O   UNL     1      34.944 -15.607 -20.286  0.00  0.00    -0.287 OA
ATOM      3  C   UNL     1      32.159 -10.517 -22.071  0.00  0.00    +0.001 C 
ATOM      4  C   UNL     1      32.694  -9.082 -22.049  0.00  0.00    +0.007 C 
ATOM      5  C   UNL     1      33.259 -11.462 -22.689  0.00  0.00    +0.007 C 
ATOM      6  C   UNL     1      33.009  -8.570 -23.466  0.00  0.00    +0.052 C 
ATOM      7  C   UNL     1      32.779 -12.974 -22.728  0.00  0.00    +0.030 C 
ATOM      8  C   UNL     1      33.815 -10.899 -24.025  0.00  0.00    +0.001 C 
ATOM      9  C   UNL     1      34.167  -9.400 -24.003  0.00  0.00    +0.007 C 
ATOM     10  C   UNL     1      31.752 -10.976 -20.661  0.00  0.00    +0.004 C 
ATOM     11  C   UNL     1      31.852  -7.970 -21.429  0.00  0.00    +0.008 C 
ATOM     12  C   UNL     1      33.319  -7.125 -23.118  0.00  0.00    +0.150 C 
ATOM     13  C   UNL     1      32.424 -13.290 -21.259  0.00  0.00    -0.038 C 
ATOM     14  C   UNL     1      32.611  -6.700 -21.843  0.00  0.00    +0.064 C 
ATOM     15  C   UNL     1      31.345 -12.446 -20.625  0.00  0.00    +0.022 C 
ATOM     16  C   UNL     1      31.831  -8.544 -24.456  0.00  0.00    +0.007 C 
ATOM     17  C   UNL     1      33.857 -13.953 -23.256  0.00  0.00    -0.038 C 
ATOM     18  C   UNL     1      31.515 -13.167 -23.604  0.00  0.00    +0.008 C 
ATOM     19  C   UNL     1      33.101 -14.158 -20.493  0.00  0.00    +0.034 C 
ATOM     20  C   UNL     1      34.541 -14.790 -22.457  0.00  0.00    +0.034 C 
ATOM     21  C   UNL     1      34.082 -14.106 -24.745  0.00  0.00    +0.027 C 
ATOM     22  C   UNL     1      34.259 -14.898 -21.017  0.00  0.00    +0.195 C 
ENDROOT
TORSDOF 0
ENDMDL
MODEL 7
REMARK VINA RESULT:      -6.7     17.354     20.261
REMARK  Name = 57050
REMARK  0 active torsions:
REMARK  status: ('A' for Active; 'I' for Inactive)
REMARK                            x       y       z     vdW  Elec       q    Type
REMARK                         _______ _______ _______ _____ _____    ______ ____
ROOT
ATOM      1  O   UNL     1      33.722 -21.001 -19.827  0.00  0.00    -0.296 OA
ATOM      2  O   UNL     1      37.029 -22.766 -10.654  0.00  0.00    -0.287 OA
ATOM      3  C   UNL     1      33.940 -23.690 -15.797  0.00  0.00    +0.001 C 
ATOM      4  C   UNL     1      33.402 -22.650 -16.784  0.00  0.00    +0.007 C 
ATOM      5  C   UNL     1      35.434 -23.332 -15.442  0.00  0.00    +0.007 C 
ATOM      6  C   UNL     1      34.207 -22.641 -18.097  0.00  0.00    +0.052 C 
ATOM      7  C   UNL     1      36.053 -24.363 -14.406  0.00  0.00    +0.030 C 
ATOM      8  C   UNL     1      36.280 -23.071 -16.717  0.00  0.00    +0.001 C 
ATOM      9  C   UNL     1      35.614 -22.161 -17.765  0.00  0.00    +0.007 C 
ATOM     10  C   UNL     1      33.064 -23.759 -14.535  0.00  0.00    +0.004 C 
ATOM     11  C   UNL     1      31.948 -22.718 -17.239  0.00  0.00    +0.008 C 
ATOM     12  C   UNL     1      33.335 -21.682 -18.887  0.00  0.00    +0.150 C 
ATOM     13  C   UNL     1      35.086 -24.310 -13.204  0.00  0.00    -0.038 C 
ATOM     14  C   UNL     1      31.902 -21.696 -18.385  0.00  0.00    +0.064 C 
ATOM     15  C   UNL     1      33.648 -24.684 -13.473  0.00  0.00    +0.022 C 
ATOM     16  C   UNL     1      34.236 -23.963 -18.884  0.00  0.00    +0.007 C 
ATOM     17  C   UNL     1      37.496 -24.009 -13.967  0.00  0.00    -0.038 C 
ATOM     18  C   UNL     1      36.085 -25.809 -14.963  0.00  0.00    +0.008 C 
ATOM     19  C   UNL     1      35.414 -23.827 -11.996  0.00  0.00    +0.034 C 
ATOM     20  C   UNL     1      37.788 -23.497 -12.759  0.00  0.00    +0.034 C 
ATOM     21  C   UNL     1      38.670 -24.368 -14.851  0.00  0.00    +0.027 C 
ATOM     22  C   UNL     1      36.762 -23.308 -11.722  0.00  0.00    +0.195 C 
ENDROOT
TORSDOF 0
ENDMDL
MODEL 8
REMARK VINA RESULT:      -6.6      3.165      6.742
REMARK  Name = 57050
REMARK  0 active torsions:
REMARK  status: ('A' for Active; 'I' for Inactive)
REMARK                            x       y       z     vdW  Elec       q    Type
REMARK                         _______ _______ _______ _____ _____    ______ ____
ROOT
ATOM      1  O   UNL     1      33.029 -14.159 -24.811  0.00  0.00    -0.296 OA
ATOM      2  O   UNL     1      30.443  -4.611 -24.228  0.00  0.00    -0.287 OA
ATOM      3  C   UNL     1      32.756  -9.933 -22.448  0.00  0.00    +0.001 C 
ATOM      4  C   UNL     1      32.352 -11.342 -22.891  0.00  0.00    +0.007 C 
ATOM      5  C   UNL     1      32.910  -9.021 -23.724  0.00  0.00    +0.007 C 
ATOM      6  C   UNL     1      33.419 -11.982 -23.798  0.00  0.00    +0.052 C 
ATOM      7  C   UNL     1      33.314  -7.535 -23.338  0.00  0.00    +0.030 C 
ATOM      8  C   UNL     1      33.792  -9.696 -24.809  0.00  0.00    +0.001 C 
ATOM      9  C   UNL     1      33.463 -11.174 -25.088  0.00  0.00    +0.007 C 
ATOM     10  C   UNL     1      31.732  -9.350 -21.461  0.00  0.00    +0.004 C 
ATOM     11  C   UNL     1      32.064 -12.413 -21.843  0.00  0.00    +0.008 C 
ATOM     12  C   UNL     1      32.824 -13.375 -23.894  0.00  0.00    +0.150 C 
ATOM     13  C   UNL     1      32.198  -7.087 -22.369  0.00  0.00    -0.038 C 
ATOM     14  C   UNL     1      31.964 -13.694 -22.684  0.00  0.00    +0.064 C 
ATOM     15  C   UNL     1      32.030  -7.897 -21.106  0.00  0.00    +0.022 C 
ATOM     16  C   UNL     1      34.822 -12.141 -23.187  0.00  0.00    +0.007 C 
ATOM     17  C   UNL     1      33.401  -6.581 -24.556  0.00  0.00    -0.038 C 
ATOM     18  C   UNL     1      34.676  -7.468 -22.603  0.00  0.00    +0.008 C 
ATOM     19  C   UNL     1      31.302  -6.128 -22.647  0.00  0.00    +0.034 C 
ATOM     20  C   UNL     1      32.470  -5.650 -24.824  0.00  0.00    +0.034 C 
ATOM     21  C   UNL     1      34.640  -6.569 -25.425  0.00  0.00    +0.027 C 
ATOM     22  C   UNL     1      31.327  -5.408 -23.930  0.00  0.00    +0.195 C 
ENDROOT
TORSDOF 0
ENDMDL
MODEL 9
REMARK VINA RESULT:      -6.3     16.342     19.562
REMARK  Name = 57050
REMARK  0 active torsions:
REMARK  status: ('A' for Active; 'I' for Inactive)
REMARK                            x       y       z     vdW  Elec       q    Type
REMARK                         _______ _______ _______ _____ _____    ______ ____
ROOT
ATOM      1  O   UNL     1      34.939 -20.157 -20.503  0.00  0.00    -0.296 OA
ATOM      2  O   UNL     1      36.251 -22.963 -11.091  0.00  0.00    -0.287 OA
ATOM      3  C   UNL     1      34.190 -23.192 -16.796  0.00  0.00    +0.001 C 
ATOM      4  C   UNL     1      33.923 -22.031 -17.759  0.00  0.00    +0.007 C 
ATOM      5  C   UNL     1      35.603 -22.986 -16.128  0.00  0.00    +0.007 C 
ATOM      6  C   UNL     1      34.971 -21.973 -18.885  0.00  0.00    +0.052 C 
ATOM      7  C   UNL     1      35.941 -24.149 -15.101  0.00  0.00    +0.030 C 
ATOM      8  C   UNL     1      36.699 -22.685 -17.185  0.00  0.00    +0.001 C 
ATOM      9  C   UNL     1      36.310 -21.637 -18.245  0.00  0.00    +0.007 C 
ATOM     10  C   UNL     1      33.079 -23.299 -15.738  0.00  0.00    +0.004 C 
ATOM     11  C   UNL     1      32.586 -21.944 -18.488  0.00  0.00    +0.008 C 
ATOM     12  C   UNL     1      34.333 -20.883 -19.727  0.00  0.00    +0.150 C 
ATOM     13  C   UNL     1      34.760 -24.123 -14.107  0.00  0.00    -0.038 C 
ATOM     14  C   UNL     1      32.831 -20.826 -19.513  0.00  0.00    +0.064 C 
ATOM     15  C   UNL     1      33.383 -24.356 -14.682  0.00  0.00    +0.022 C 
ATOM     16  C   UNL     1      35.073 -23.221 -19.781  0.00  0.00    +0.007 C 
ATOM     17  C   UNL     1      37.287 -23.949 -14.361  0.00  0.00    -0.038 C 
ATOM     18  C   UNL     1      35.993 -25.539 -15.784  0.00  0.00    +0.008 C 
ATOM     19  C   UNL     1      34.871 -23.773 -12.817  0.00  0.00    +0.034 C 
ATOM     20  C   UNL     1      37.365 -23.568 -13.074  0.00  0.00    +0.034 C 
ATOM     21  C   UNL     1      38.589 -24.323 -15.036  0.00  0.00    +0.027 C 
ATOM     22  C   UNL     1      36.168 -23.388 -12.239  0.00  0.00    +0.195 C 
ENDROOT
TORSDOF 0
ENDMDL
