MODEL 1
REMARK VINA RESULT:      -5.9      0.000      0.000
REMARK  Name = 9015
REMARK  2 active torsions:
REMARK  status: ('A' for Active; 'I' for Inactive)
REMARK    1  A    between atoms: C_1  and  O_7
REMARK    2  A    between atoms: C_4  and  O_9
REMARK                            x       y       z     vdW  Elec       q    Type
REMARK                         _______ _______ _______ _____ _____    ______ ____
ROOT
ATOM      1  C   UNL     1      35.281 -19.625 -20.938  0.00  0.00    +0.139 C 
ATOM      2  C   UNL     1      33.900 -19.463 -21.043  0.00  0.00    +0.040 C 
ATOM      3  C   UNL     1      35.805 -20.659 -20.162  0.00  0.00    +0.040 C 
ATOM      4  C   UNL     1      33.566 -21.369 -19.596  0.00  0.00    +0.134 C 
ATOM      5  C   UNL     1      33.042 -20.335 -20.372  0.00  0.00    +0.040 C 
ATOM      6  C   UNL     1      34.947 -21.531 -19.491  0.00  0.00    +0.040 C 
ENDROOT
BRANCH   1   7
ATOM      7  O   UNL     1      36.118 -18.775 -21.593  0.00  0.00    -0.471 OA
ATOM      8  C   UNL     1      35.671 -18.260 -22.846  0.00  0.00    +0.252 C 
ENDBRANCH   1   7
BRANCH   4   9
ATOM      9  O   UNL     1      32.730 -22.219 -18.940  0.00  0.00    -0.506 OA
ATOM     10  H   UNL     1      32.746 -23.135 -19.136  0.00  0.00    +0.292 HD
ENDBRANCH   4   9
TORSDOF 2
ENDMDL
MODEL 2
REMARK VINA RESULT:      -5.9      0.028      1.611
REMARK  Name = 9015
REMARK  2 active torsions:
REMARK  status: ('A' for Active; 'I' for Inactive)
REMARK    1  A    between atoms: C_1  and  O_7
REMARK    2  A    between atoms: C_4  and  O_9
REMARK                            x       y       z     vdW  Elec       q    Type
REMARK                         _______ _______ _______ _____ _____    ______ ____
ROOT
ATOM      1  C   UNL     1      35.287 -19.639 -20.937  0.00  0.00    +0.139 C 
ATOM      2  C   UNL     1      35.817 -20.676 -20.168  0.00  0.00    +0.040 C 
ATOM      3  C   UNL     1      33.905 -19.471 -21.021  0.00  0.00    +0.040 C 
ATOM      4  C   UNL     1      33.583 -21.374 -19.569  0.00  0.00    +0.134 C 
ATOM      5  C   UNL     1      34.965 -21.543 -19.484  0.00  0.00    +0.040 C 
ATOM      6  C   UNL     1      33.053 -20.338 -20.338  0.00  0.00    +0.040 C 
ENDROOT
BRANCH   1   7
ATOM      7  O   UNL     1      36.118 -18.793 -21.604  0.00  0.00    -0.471 OA
ATOM      8  C   UNL     1      35.649 -18.266 -22.844  0.00  0.00    +0.252 C 
ENDBRANCH   1   7
BRANCH   4   9
ATOM      9  O   UNL     1      32.751 -22.221 -18.903  0.00  0.00    -0.506 OA
ATOM     10  H   UNL     1      32.340 -21.944 -18.108  0.00  0.00    +0.292 HD
ENDBRANCH   4   9
TORSDOF 2
ENDMDL
MODEL 3
REMARK VINA RESULT:      -5.9      0.839      4.240
REMARK  Name = 9015
REMARK  2 active torsions:
REMARK  status: ('A' for Active; 'I' for Inactive)
REMARK    1  A    between atoms: C_1  and  O_7
REMARK    2  A    between atoms: C_4  and  O_9
REMARK                            x       y       z     vdW  Elec       q    Type
REMARK                         _______ _______ _______ _____ _____    ______ ____
ROOT
ATOM      1  C   UNL     1      33.605 -21.457 -19.515  0.00  0.00    +0.139 C 
ATOM      2  C   UNL     1      34.986 -21.638 -19.437  0.00  0.00    +0.040 C 
ATOM      3  C   UNL     1      33.081 -20.403 -20.263  0.00  0.00    +0.040 C 
ATOM      4  C   UNL     1      35.319 -19.711 -20.856  0.00  0.00    +0.134 C 
ATOM      5  C   UNL     1      35.843 -20.764 -20.108  0.00  0.00    +0.040 C 
ATOM      6  C   UNL     1      33.938 -19.530 -20.933  0.00  0.00    +0.040 C 
ENDROOT
BRANCH   1   7
ATOM      7  O   UNL     1      32.769 -22.309 -18.861  0.00  0.00    -0.471 OA
ATOM      8  C   UNL     1      33.319 -23.051 -17.773  0.00  0.00    +0.252 C 
ENDBRANCH   1   7
BRANCH   4   9
ATOM      9  O   UNL     1      36.154 -18.857 -21.509  0.00  0.00    -0.506 OA
ATOM     10  H   UNL     1      36.951 -19.178 -21.884  0.00  0.00    +0.292 HD
ENDBRANCH   4   9
TORSDOF 2
ENDMDL
MODEL 4
REMARK VINA RESULT:      -5.6      1.358      4.109
REMARK  Name = 9015
REMARK  2 active torsions:
REMARK  status: ('A' for Active; 'I' for Inactive)
REMARK    1  A    between atoms: C_1  and  O_7
REMARK    2  A    between atoms: C_4  and  O_9
REMARK                            x       y       z     vdW  Elec       q    Type
REMARK                         _______ _______ _______ _____ _____    ______ ____
ROOT
ATOM      1  C   UNL     1      34.472 -21.840 -19.251  0.00  0.00    +0.139 C 
ATOM      2  C   UNL     1      35.642 -21.291 -19.775  0.00  0.00    +0.040 C 
ATOM      3  C   UNL     1      33.234 -21.291 -19.584  0.00  0.00    +0.040 C 
ATOM      4  C   UNL     1      34.335 -19.643 -20.965  0.00  0.00    +0.134 C 
ATOM      5  C   UNL     1      35.574 -20.192 -20.633  0.00  0.00    +0.040 C 
ATOM      6  C   UNL     1      33.165 -20.192 -20.441  0.00  0.00    +0.040 C 
ENDROOT
BRANCH   1   7
ATOM      7  O   UNL     1      34.538 -22.911 -18.415  0.00  0.00    -0.471 OA
ATOM      8  C   UNL     1      33.382 -23.195 -17.629  0.00  0.00    +0.252 C 
ENDBRANCH   1   7
BRANCH   4   9
ATOM      9  O   UNL     1      34.268 -18.571 -21.801  0.00  0.00    -0.506 OA
ATOM     10  H   UNL     1      33.490 -18.050 -21.832  0.00  0.00    +0.292 HD
ENDBRANCH   4   9
TORSDOF 2
ENDMDL
MODEL 5
REMARK VINA RESULT:      -5.5      2.226      4.976
REMARK  Name = 9015
REMARK  2 active torsions:
REMARK  status: ('A' for Active; 'I' for Inactive)
REMARK    1  A    between atoms: C_1  and  O_7
REMARK    2  A    between atoms: C_4  and  O_9
REMARK                            x       y       z     vdW  Elec       q    Type
REMARK                         _______ _______ _______ _____ _____    ______ ____
ROOT
ATOM      1  C   UNL     1      35.020 -18.238 -22.006  0.00  0.00    +0.139 C 
ATOM      2  C   UNL     1      35.100 -16.864 -22.233  0.00  0.00    +0.040 C 
ATOM      3  C   UNL     1      34.833 -19.112 -23.078  0.00  0.00    +0.040 C 
ATOM      4  C   UNL     1      34.806 -17.238 -24.602  0.00  0.00    +0.134 C 
ATOM      5  C   UNL     1      34.993 -16.364 -23.531  0.00  0.00    +0.040 C 
ATOM      6  C   UNL     1      34.726 -18.612 -24.375  0.00  0.00    +0.040 C 
ENDROOT
BRANCH   1   7
ATOM      7  O   UNL     1      35.124 -18.726 -20.741  0.00  0.00    -0.471 OA
ATOM      8  C   UNL     1      35.044 -20.142 -20.582  0.00  0.00    +0.252 C 
ENDBRANCH   1   7
BRANCH   4   9
ATOM      9  O   UNL     1      34.700 -16.750 -25.868  0.00  0.00    -0.506 OA
ATOM     10  H   UNL     1      34.298 -15.917 -26.017  0.00  0.00    +0.292 HD
ENDBRANCH   4   9
TORSDOF 2
ENDMDL
MODEL 6
REMARK VINA RESULT:      -5.5      2.221      5.038
REMARK  Name = 9015
REMARK  2 active torsions:
REMARK  status: ('A' for Active; 'I' for Inactive)
REMARK    1  A    between atoms: C_1  and  O_7
REMARK    2  A    between atoms: C_4  and  O_9
REMARK                            x       y       z     vdW  Elec       q    Type
REMARK                         _______ _______ _______ _____ _____    ______ ____
ROOT
ATOM      1  C   UNL     1      35.018 -18.258 -22.003  0.00  0.00    +0.139 C 
ATOM      2  C   UNL     1      34.832 -19.129 -23.076  0.00  0.00    +0.040 C 
ATOM      3  C   UNL     1      35.110 -16.884 -22.227  0.00  0.00    +0.040 C 
ATOM      4  C   UNL     1      34.829 -17.252 -24.598  0.00  0.00    +0.134 C 
ATOM      5  C   UNL     1      34.737 -18.625 -24.375  0.00  0.00    +0.040 C 
ATOM      6  C   UNL     1      35.015 -16.381 -23.524  0.00  0.00    +0.040 C 
ENDROOT
BRANCH   1   7
ATOM      7  O   UNL     1      35.110 -18.748 -20.737  0.00  0.00    -0.471 OA
ATOM      8  C   UNL     1      34.818 -20.133 -20.554  0.00  0.00    +0.252 C 
ENDBRANCH   1   7
BRANCH   4   9
ATOM      9  O   UNL     1      34.738 -16.760 -25.864  0.00  0.00    -0.506 OA
ATOM     10  H   UNL     1      34.707 -17.348 -26.594  0.00  0.00    +0.292 HD
ENDBRANCH   4   9
TORSDOF 2
ENDMDL
MODEL 7
REMARK VINA RESULT:      -5.5      3.583      5.018
REMARK  Name = 9015
REMARK  2 active torsions:
REMARK  status: ('A' for Active; 'I' for Inactive)
REMARK    1  A    between atoms: C_1  and  O_7
REMARK    2  A    between atoms: C_4  and  O_9
REMARK                            x       y       z     vdW  Elec       q    Type
REMARK                         _______ _______ _______ _____ _____    ______ ____
ROOT
ATOM      1  C   UNL     1      34.594 -16.829 -24.649  0.00  0.00    +0.139 C 
ATOM      2  C   UNL     1      34.915 -18.163 -24.399  0.00  0.00    +0.040 C 
ATOM      3  C   UNL     1      34.615 -15.900 -23.608  0.00  0.00    +0.040 C 
ATOM      4  C   UNL     1      35.278 -17.640 -22.069  0.00  0.00    +0.134 C 
ATOM      5  C   UNL     1      35.257 -18.569 -23.109  0.00  0.00    +0.040 C 
ATOM      6  C   UNL     1      34.958 -16.306 -22.318  0.00  0.00    +0.040 C 
ENDROOT
BRANCH   1   7
ATOM      7  O   UNL     1      34.260 -16.433 -25.907  0.00  0.00    -0.471 OA
ATOM      8  C   UNL     1      33.354 -15.337 -26.024  0.00  0.00    +0.252 C 
ENDBRANCH   1   7
BRANCH   4   9
ATOM      9  O   UNL     1      35.611 -18.035 -20.809  0.00  0.00    -0.506 OA
ATOM     10  H   UNL     1      36.289 -17.588 -20.342  0.00  0.00    +0.292 HD
ENDBRANCH   4   9
TORSDOF 2
ENDMDL
MODEL 8
REMARK VINA RESULT:      -5.5      3.597      4.910
REMARK  Name = 9015
REMARK  2 active torsions:
REMARK  status: ('A' for Active; 'I' for Inactive)
REMARK    1  A    between atoms: C_1  and  O_7
REMARK    2  A    between atoms: C_4  and  O_9
REMARK                            x       y       z     vdW  Elec       q    Type
REMARK                         _______ _______ _______ _____ _____    ______ ____
ROOT
ATOM      1  C   UNL     1      34.583 -16.802 -24.632  0.00  0.00    +0.139 C 
ATOM      2  C   UNL     1      34.585 -15.869 -23.596  0.00  0.00    +0.040 C 
ATOM      3  C   UNL     1      34.916 -18.132 -24.373  0.00  0.00    +0.040 C 
ATOM      4  C   UNL     1      35.254 -17.594 -22.042  0.00  0.00    +0.134 C 
ATOM      5  C   UNL     1      34.921 -16.265 -22.300  0.00  0.00    +0.040 C 
ATOM      6  C   UNL     1      35.252 -18.528 -23.078  0.00  0.00    +0.040 C 
ENDROOT
BRANCH   1   7
ATOM      7  O   UNL     1      34.255 -16.417 -25.895  0.00  0.00    -0.471 OA
ATOM      8  C   UNL     1      33.357 -15.315 -26.025  0.00  0.00    +0.252 C 
ENDBRANCH   1   7
BRANCH   4   9
ATOM      9  O   UNL     1      35.583 -17.981 -20.779  0.00  0.00    -0.506 OA
ATOM     10  H   UNL     1      36.106 -18.747 -20.645  0.00  0.00    +0.292 HD
ENDBRANCH   4   9
TORSDOF 2
ENDMDL
MODEL 9
REMARK VINA RESULT:      -5.3      2.987      5.537
REMARK  Name = 9015
REMARK  2 active torsions:
REMARK  status: ('A' for Active; 'I' for Inactive)
REMARK    1  A    between atoms: C_1  and  O_7
REMARK    2  A    between atoms: C_4  and  O_9
REMARK                            x       y       z     vdW  Elec       q    Type
REMARK                         _______ _______ _______ _____ _____    ______ ____
ROOT
ATOM      1  C   UNL     1      35.164 -17.233 -22.483  0.00  0.00    +0.139 C 
ATOM      2  C   UNL     1      34.721 -15.922 -22.657  0.00  0.00    +0.040 C 
ATOM      3  C   UNL     1      35.165 -18.118 -23.562  0.00  0.00    +0.040 C 
ATOM      4  C   UNL     1      34.281 -16.380 -24.988  0.00  0.00    +0.134 C 
ATOM      5  C   UNL     1      34.280 -15.495 -23.910  0.00  0.00    +0.040 C 
ATOM      6  C   UNL     1      34.724 -17.691 -24.814  0.00  0.00    +0.040 C 
ENDROOT
BRANCH   1   7
ATOM      7  O   UNL     1      35.595 -17.649 -21.261  0.00  0.00    -0.471 OA
ATOM      8  C   UNL     1      35.960 -19.023 -21.135  0.00  0.00    +0.252 C 
ENDBRANCH   1   7
BRANCH   4   9
ATOM      9  O   UNL     1      33.850 -15.965 -26.211  0.00  0.00    -0.506 OA
ATOM     10  H   UNL     1      34.221 -16.334 -26.988  0.00  0.00    +0.292 HD
ENDBRANCH   4   9
TORSDOF 2
ENDMDL
