MODEL 1
REMARK VINA RESULT:     -10.0      0.000      0.000
REMARK  Name = 16725726
REMARK  8 active torsions:
REMARK  status: ('A' for Active; 'I' for Inactive)
REMARK    1  A    between atoms: N_1  and  C_18
REMARK    2  A    between atoms: C_4  and  O_27
REMARK    3  A    between atoms: C_7  and  C_14
REMARK    4  A    between atoms: C_9  and  C_20
REMARK    5  A    between atoms: C_21  and  C_22
REMARK    6  A    between atoms: C_22  and  O_25
REMARK    7  A    between atoms: O_27  and  C_28
REMARK    8  A    between atoms: C_28  and  C_30
REMARK                            x       y       z     vdW  Elec       q    Type
REMARK                         _______ _______ _______ _____ _____    ______ ____
ROOT
ATOM      1  N   UNL     1      34.314 -15.780 -24.038  0.00  0.00    -0.271 N 
ATOM      2  N   UNL     1      33.217 -13.925 -23.491  0.00  0.00    -0.385 NA
ATOM      3  N   UNL     1      33.678 -15.213 -20.049  0.00  0.00    -0.230 NA
ATOM      4  C   UNL     1      34.657 -16.704 -21.713  0.00  0.00    +0.160 C 
ATOM      5  C   UNL     1      34.218 -15.800 -22.671  0.00  0.00    +0.188 C 
ATOM      6  C   UNL     1      33.530 -14.633 -22.355  0.00  0.00    +0.161 C 
ATOM      7  C   UNL     1      33.701 -14.641 -24.482  0.00  0.00    +0.208 C 
ATOM      8  C   UNL     1      34.345 -16.336 -20.413  0.00  0.00    +0.134 C 
ATOM      9  C   UNL     1      33.265 -14.353 -21.013  0.00  0.00    +0.150 C 
ENDROOT
BRANCH   7  14
ATOM     10  O   UNL     1      33.356 -14.380 -28.041  0.00  0.00    -0.240 OA
ATOM     11  N   UNL     1      33.413 -15.141 -26.872  0.00  0.00    -0.043 NA
ATOM     12  N   UNL     1      33.499 -13.019 -27.764  0.00  0.00    -0.033 NA
ATOM     13  N   UNL     1      33.810 -11.843 -25.695  0.00  0.00    -0.339 N 
ATOM     14  C   UNL     1      33.587 -14.246 -25.901  0.00  0.00    +0.200 A 
ATOM     15  C   UNL     1      33.640 -12.962 -26.440  0.00  0.00    +0.192 A 
ATOM     16  H   UNL     1      33.840 -10.961 -26.131  0.00  0.00    +0.144 HD
ATOM     17  H   UNL     1      33.905 -11.912 -24.718  0.00  0.00    +0.144 HD
ENDBRANCH   7  14
BRANCH   1  18
ATOM     18  C   UNL     1      34.949 -16.783 -24.865  0.00  0.00    +0.094 C 
ATOM     19  C   UNL     1      34.007 -17.922 -25.212  0.00  0.00    +0.023 C 
ENDBRANCH   1  18
BRANCH   9  20
ATOM     20  C   UNL     1      32.569 -13.183 -20.618  0.00  0.00    -0.041 C 
ATOM     21  C   UNL     1      31.980 -12.191 -20.282  0.00  0.00    -0.060 C 
BRANCH  21  22
ATOM     22  C   UNL     1      31.258 -10.974 -19.873  0.00  0.00    +0.142 C 
ATOM     23  C   UNL     1      31.874  -9.745 -20.540  0.00  0.00    +0.043 C 
ATOM     24  C   UNL     1      31.275 -10.824 -18.352  0.00  0.00    +0.043 C 
BRANCH  22  25
ATOM     25  O   UNL     1      29.900 -11.059 -20.306  0.00  0.00    -0.375 OA
ATOM     26  H   UNL     1      29.481 -11.838 -19.907  0.00  0.00    +0.211 HD
ENDBRANCH  22  25
ENDBRANCH  21  22
ENDBRANCH   9  20
BRANCH   4  27
ATOM     27  O   UNL     1      35.337 -17.862 -22.000  0.00  0.00    -0.476 OA
BRANCH  27  28
ATOM     28  C   UNL     1      34.571 -19.047 -22.117  0.00  0.00    +0.203 C 
BRANCH  28  30
ATOM     29  N   UNL     1      35.713 -21.320 -19.256  0.00  0.00    +0.384 N 
ATOM     30  C   UNL     1      34.522 -19.730 -20.753  0.00  0.00    +0.022 C 
ATOM     31  C   UNL     1      33.230 -20.543 -20.599  0.00  0.00    -0.001 C 
ATOM     32  C   UNL     1      35.750 -20.630 -20.548  0.00  0.00    -0.078 C 
ATOM     33  C   UNL     1      33.236 -21.321 -19.285  0.00  0.00    -0.023 C 
ATOM     34  C   UNL     1      34.511 -22.148 -19.139  0.00  0.00    -0.082 C 
ATOM     35  H   UNL     1      35.715 -20.628 -18.507  0.00  0.00    -0.085 HD
ATOM     36  H   UNL     1      36.532 -21.924 -19.186  0.00  0.00    -0.085 HD
ENDBRANCH  28  30
ENDBRANCH  27  28
ENDBRANCH   4  27
TORSDOF 8
ENDMDL
MODEL 2
REMARK VINA RESULT:      -9.8      5.930     12.166
REMARK  Name = 16725726
REMARK  8 active torsions:
REMARK  status: ('A' for Active; 'I' for Inactive)
REMARK    1  A    between atoms: N_1  and  C_18
REMARK    2  A    between atoms: C_4  and  O_27
REMARK    3  A    between atoms: C_7  and  C_14
REMARK    4  A    between atoms: C_9  and  C_20
REMARK    5  A    between atoms: C_21  and  C_22
REMARK    6  A    between atoms: C_22  and  O_25
REMARK    7  A    between atoms: O_27  and  C_28
REMARK    8  A    between atoms: C_28  and  C_30
REMARK                            x       y       z     vdW  Elec       q    Type
REMARK                         _______ _______ _______ _____ _____    ______ ____
ROOT
ATOM      1  N   UNL     1      36.507 -22.773 -15.677  0.00  0.00    -0.271 N 
ATOM      2  N   UNL     1      34.766 -23.562 -14.543  0.00  0.00    -0.385 NA
ATOM      3  N   UNL     1      32.991 -22.951 -17.736  0.00  0.00    -0.230 NA
ATOM      4  C   UNL     1      35.348 -22.336 -17.877  0.00  0.00    +0.160 C 
ATOM      5  C   UNL     1      35.454 -22.741 -16.554  0.00  0.00    +0.188 C 
ATOM      6  C   UNL     1      34.380 -23.239 -15.822  0.00  0.00    +0.161 C 
ATOM      7  C   UNL     1      36.046 -23.269 -14.490  0.00  0.00    +0.208 C 
ATOM      8  C   UNL     1      34.071 -22.474 -18.402  0.00  0.00    +0.134 C 
ATOM      9  C   UNL     1      33.135 -23.337 -16.444  0.00  0.00    +0.150 C 
ENDROOT
BRANCH   7  14
ATOM     10  O   UNL     1      38.164 -23.037 -11.605  0.00  0.00    -0.240 OA
ATOM     11  N   UNL     1      37.506 -22.450 -12.689  0.00  0.00    -0.043 NA
ATOM     12  N   UNL     1      37.920 -24.410 -11.552  0.00  0.00    -0.033 NA
ATOM     13  N   UNL     1      36.614 -25.849 -12.960  0.00  0.00    -0.339 N 
ATOM     14  C   UNL     1      36.873 -23.462 -13.280  0.00  0.00    +0.200 A 
ATOM     15  C   UNL     1      37.124 -24.648 -12.593  0.00  0.00    +0.192 A 
ATOM     16  H   UNL     1      36.826 -26.655 -12.436  0.00  0.00    +0.144 HD
ATOM     17  H   UNL     1      36.033 -25.916 -13.751  0.00  0.00    +0.144 HD
ENDBRANCH   7  14
BRANCH   1  18
ATOM     18  C   UNL     1      37.863 -22.354 -15.955  0.00  0.00    +0.094 C 
ATOM     19  C   UNL     1      38.836 -23.521 -15.955  0.00  0.00    +0.023 C 
ENDBRANCH   1  18
BRANCH   9  20
ATOM     20  C   UNL     1      31.996 -23.835 -15.760  0.00  0.00    -0.041 C 
ATOM     21  C   UNL     1      31.032 -24.257 -15.181  0.00  0.00    -0.060 C 
BRANCH  21  22
ATOM     22  C   UNL     1      29.850 -24.773 -14.469  0.00  0.00    +0.142 C 
ATOM     23  C   UNL     1      28.572 -24.212 -15.090  0.00  0.00    +0.043 C 
ATOM     24  C   UNL     1      29.923 -24.424 -12.983  0.00  0.00    +0.043 C 
BRANCH  22  25
ATOM     25  O   UNL     1      29.800 -26.194 -14.600  0.00  0.00    -0.375 OA
ATOM     26  H   UNL     1      29.386 -26.427 -15.445  0.00  0.00    +0.211 HD
ENDBRANCH  22  25
ENDBRANCH  21  22
ENDBRANCH   9  20
BRANCH   4  27
ATOM     27  O   UNL     1      36.392 -21.842 -18.619  0.00  0.00    -0.476 OA
BRANCH  27  28
ATOM     28  C   UNL     1      36.155 -21.620 -19.996  0.00  0.00    +0.203 C 
BRANCH  28  30
ATOM     29  N   UNL     1      33.600 -18.974 -21.058  0.00  0.00    +0.384 N 
ATOM     30  C   UNL     1      35.555 -20.226 -20.167  0.00  0.00    +0.022 C 
ATOM     31  C   UNL     1      36.505 -19.320 -20.960  0.00  0.00    -0.001 C 
ATOM     32  C   UNL     1      34.184 -20.302 -20.856  0.00  0.00    -0.078 C 
ATOM     33  C   UNL     1      35.856 -17.965 -21.233  0.00  0.00    -0.023 C 
ATOM     34  C   UNL     1      34.479 -18.132 -21.872  0.00  0.00    -0.082 C 
ATOM     35  H   UNL     1      33.460 -18.529 -20.151  0.00  0.00    -0.085 HD
ATOM     36  H   UNL     1      32.710 -19.080 -21.545  0.00  0.00    -0.085 HD
ENDBRANCH  28  30
ENDBRANCH  27  28
ENDBRANCH   4  27
TORSDOF 8
ENDMDL
MODEL 3
REMARK VINA RESULT:      -9.4      5.710     11.413
REMARK  Name = 16725726
REMARK  8 active torsions:
REMARK  status: ('A' for Active; 'I' for Inactive)
REMARK    1  A    between atoms: N_1  and  C_18
REMARK    2  A    between atoms: C_4  and  O_27
REMARK    3  A    between atoms: C_7  and  C_14
REMARK    4  A    between atoms: C_9  and  C_20
REMARK    5  A    between atoms: C_21  and  C_22
REMARK    6  A    between atoms: C_22  and  O_25
REMARK    7  A    between atoms: O_27  and  C_28
REMARK    8  A    between atoms: C_28  and  C_30
REMARK                            x       y       z     vdW  Elec       q    Type
REMARK                         _______ _______ _______ _____ _____    ______ ____
ROOT
ATOM      1  N   UNL     1      36.169 -22.641 -16.541  0.00  0.00    -0.271 N 
ATOM      2  N   UNL     1      34.327 -23.258 -15.461  0.00  0.00    -0.385 NA
ATOM      3  N   UNL     1      32.715 -22.483 -18.704  0.00  0.00    -0.230 NA
ATOM      4  C   UNL     1      35.123 -22.097 -18.774  0.00  0.00    +0.160 C 
ATOM      5  C   UNL     1      35.151 -22.509 -17.449  0.00  0.00    +0.188 C 
ATOM      6  C   UNL     1      34.012 -22.900 -16.751  0.00  0.00    +0.161 C 
ATOM      7  C   UNL     1      35.628 -23.090 -15.369  0.00  0.00    +0.208 C 
ATOM      8  C   UNL     1      33.855 -22.112 -19.337  0.00  0.00    +0.134 C 
ATOM      9  C   UNL     1      32.782 -22.879 -17.409  0.00  0.00    +0.150 C 
ENDROOT
BRANCH   7  14
ATOM     10  O   UNL     1      38.058 -23.699 -12.804  0.00  0.00    -0.240 OA
ATOM     11  N   UNL     1      37.726 -23.433 -14.134  0.00  0.00    -0.043 NA
ATOM     12  N   UNL     1      36.915 -23.786 -12.007  0.00  0.00    -0.033 NA
ATOM     13  N   UNL     1      34.586 -23.560 -12.539  0.00  0.00    -0.339 N 
ATOM     14  C   UNL     1      36.396 -23.360 -14.136  0.00  0.00    +0.200 A 
ATOM     15  C   UNL     1      35.905 -23.574 -12.850  0.00  0.00    +0.192 A 
ATOM     16  H   UNL     1      34.297 -23.717 -11.611  0.00  0.00    +0.144 HD
ATOM     17  H   UNL     1      33.917 -23.392 -13.241  0.00  0.00    +0.144 HD
ENDBRANCH   7  14
BRANCH   1  18
ATOM     18  C   UNL     1      37.567 -22.355 -16.778  0.00  0.00    +0.094 C 
ATOM     19  C   UNL     1      37.899 -20.889 -16.560  0.00  0.00    +0.023 C 
ENDBRANCH   1  18
BRANCH   9  20
ATOM     20  C   UNL     1      31.581 -23.265 -16.761  0.00  0.00    -0.041 C 
ATOM     21  C   UNL     1      30.564 -23.592 -16.211  0.00  0.00    -0.060 C 
BRANCH  21  22
ATOM     22  C   UNL     1      29.316 -23.991 -15.539  0.00  0.00    +0.142 C 
ATOM     23  C   UNL     1      29.565 -25.194 -14.631  0.00  0.00    +0.043 C 
ATOM     24  C   UNL     1      28.230 -24.309 -16.566  0.00  0.00    +0.043 C 
BRANCH  22  25
ATOM     25  O   UNL     1      28.858 -22.919 -14.712  0.00  0.00    -0.375 OA
ATOM     26  H   UNL     1      28.345 -22.293 -15.248  0.00  0.00    +0.211 HD
ENDBRANCH  22  25
ENDBRANCH  21  22
ENDBRANCH   9  20
BRANCH   4  27
ATOM     27  O   UNL     1      36.231 -21.706 -19.484  0.00  0.00    -0.476 OA
BRANCH  27  28
ATOM     28  C   UNL     1      36.451 -20.314 -19.619  0.00  0.00    +0.203 C 
BRANCH  28  30
ATOM     29  N   UNL     1      36.544 -18.333 -22.894  0.00  0.00    +0.384 N 
ATOM     30  C   UNL     1      36.031 -19.892 -21.025  0.00  0.00    +0.022 C 
ATOM     31  C   UNL     1      34.566 -19.438 -21.040  0.00  0.00    -0.001 C 
ATOM     32  C   UNL     1      36.944 -18.777 -21.556  0.00  0.00    -0.078 C 
ATOM     33  C   UNL     1      34.180 -18.904 -22.418  0.00  0.00    -0.023 C 
ATOM     34  C   UNL     1      35.166 -17.838 -22.892  0.00  0.00    -0.082 C 
ATOM     35  H   UNL     1      36.614 -19.119 -23.541  0.00  0.00    -0.085 HD
ATOM     36  H   UNL     1      37.161 -17.575 -23.184  0.00  0.00    -0.085 HD
ENDBRANCH  28  30
ENDBRANCH  27  28
ENDBRANCH   4  27
TORSDOF 8
ENDMDL
MODEL 4
REMARK VINA RESULT:      -9.1      7.299     11.174
REMARK  Name = 16725726
REMARK  8 active torsions:
REMARK  status: ('A' for Active; 'I' for Inactive)
REMARK    1  A    between atoms: N_1  and  C_18
REMARK    2  A    between atoms: C_4  and  O_27
REMARK    3  A    between atoms: C_7  and  C_14
REMARK    4  A    between atoms: C_9  and  C_20
REMARK    5  A    between atoms: C_21  and  C_22
REMARK    6  A    between atoms: C_22  and  O_25
REMARK    7  A    between atoms: O_27  and  C_28
REMARK    8  A    between atoms: C_28  and  C_30
REMARK                            x       y       z     vdW  Elec       q    Type
REMARK                         _______ _______ _______ _____ _____    ______ ____
ROOT
ATOM      1  N   UNL     1      31.676 -23.849 -15.719  0.00  0.00    -0.271 N 
ATOM      2  N   UNL     1      31.703 -22.564 -17.533  0.00  0.00    -0.385 NA
ATOM      3  N   UNL     1      35.372 -22.789 -17.079  0.00  0.00    -0.230 NA
ATOM      4  C   UNL     1      34.169 -24.037 -15.362  0.00  0.00    +0.160 C 
ATOM      5  C   UNL     1      33.001 -23.624 -15.989  0.00  0.00    +0.188 C 
ATOM      6  C   UNL     1      32.991 -22.819 -17.124  0.00  0.00    +0.161 C 
ATOM      7  C   UNL     1      30.940 -23.196 -16.668  0.00  0.00    +0.208 C 
ATOM      8  C   UNL     1      35.325 -23.573 -15.974  0.00  0.00    +0.134 C 
ATOM      9  C   UNL     1      34.210 -22.406 -17.663  0.00  0.00    +0.150 C 
ENDROOT
BRANCH   7  14
ATOM     10  O   UNL     1      27.451 -23.599 -17.387  0.00  0.00    -0.240 OA
ATOM     11  N   UNL     1      28.794 -23.858 -17.668  0.00  0.00    -0.043 NA
ATOM     12  N   UNL     1      27.320 -22.767 -16.273  0.00  0.00    -0.033 NA
ATOM     13  N   UNL     1      28.962 -21.764 -14.837  0.00  0.00    -0.339 N 
ATOM     14  C   UNL     1      29.464 -23.189 -16.731  0.00  0.00    +0.200 A 
ATOM     15  C   UNL     1      28.573 -22.529 -15.888  0.00  0.00    +0.192 A 
ATOM     16  H   UNL     1      28.286 -21.321 -14.275  0.00  0.00    +0.144 HD
ATOM     17  H   UNL     1      29.919 -21.652 -14.638  0.00  0.00    +0.144 HD
ENDBRANCH   7  14
BRANCH   1  18
ATOM     18  C   UNL     1      31.149 -24.638 -14.627  0.00  0.00    +0.094 C 
ATOM     19  C   UNL     1      30.938 -23.810 -13.371  0.00  0.00    +0.023 C 
ENDBRANCH   1  18
BRANCH   9  20
ATOM     20  C   UNL     1      34.276 -21.585 -18.818  0.00  0.00    -0.041 C 
ATOM     21  C   UNL     1      34.331 -20.891 -19.796  0.00  0.00    -0.060 C 
BRANCH  21  22
ATOM     22  C   UNL     1      34.401 -20.038 -20.995  0.00  0.00    +0.142 C 
ATOM     23  C   UNL     1      35.319 -18.843 -20.741  0.00  0.00    +0.043 C 
ATOM     24  C   UNL     1      33.006 -19.565 -21.402  0.00  0.00    +0.043 C 
BRANCH  22  25
ATOM     25  O   UNL     1      34.961 -20.784 -22.077  0.00  0.00    -0.375 OA
ATOM     26  H   UNL     1      35.144 -21.691 -21.784  0.00  0.00    +0.211 HD
ENDBRANCH  22  25
ENDBRANCH  21  22
ENDBRANCH   9  20
BRANCH   4  27
ATOM     27  O   UNL     1      34.204 -24.829 -14.242  0.00  0.00    -0.476 OA
BRANCH  27  28
ATOM     28  C   UNL     1      34.336 -24.175 -12.994  0.00  0.00    +0.203 C 
BRANCH  28  30
ATOM     29  N   UNL     1      37.827 -23.710 -11.493  0.00  0.00    +0.384 N 
ATOM     30  C   UNL     1      35.669 -24.581 -12.371  0.00  0.00    +0.022 C 
ATOM     31  C   UNL     1      36.427 -25.547 -13.291  0.00  0.00    -0.001 C 
ATOM     32  C   UNL     1      36.529 -23.345 -12.066  0.00  0.00    -0.078 C 
ATOM     33  C   UNL     1      37.809 -25.860 -12.725  0.00  0.00    -0.023 C 
ATOM     34  C   UNL     1      38.577 -24.579 -12.403  0.00  0.00    -0.082 C 
ATOM     35  H   UNL     1      37.677 -24.202 -10.612  0.00  0.00    -0.085 HD
ATOM     36  H   UNL     1      38.367 -22.858 -11.340  0.00  0.00    -0.085 HD
ENDBRANCH  28  30
ENDBRANCH  27  28
ENDBRANCH   4  27
TORSDOF 8
ENDMDL
MODEL 5
REMARK VINA RESULT:      -8.9      5.211     11.100
REMARK  Name = 16725726
REMARK  8 active torsions:
REMARK  status: ('A' for Active; 'I' for Inactive)
REMARK    1  A    between atoms: N_1  and  C_18
REMARK    2  A    between atoms: C_4  and  O_27
REMARK    3  A    between atoms: C_7  and  C_14
REMARK    4  A    between atoms: C_9  and  C_20
REMARK    5  A    between atoms: C_21  and  C_22
REMARK    6  A    between atoms: C_22  and  O_25
REMARK    7  A    between atoms: O_27  and  C_28
REMARK    8  A    between atoms: C_28  and  C_30
REMARK                            x       y       z     vdW  Elec       q    Type
REMARK                         _______ _______ _______ _____ _____    ______ ____
ROOT
ATOM      1  N   UNL     1      33.521 -22.454 -17.966  0.00  0.00    -0.271 N 
ATOM      2  N   UNL     1      33.838 -22.996 -15.833  0.00  0.00    -0.385 NA
ATOM      3  N   UNL     1      37.373 -22.243 -16.643  0.00  0.00    -0.230 NA
ATOM      4  C   UNL     1      35.914 -21.928 -18.573  0.00  0.00    +0.160 C 
ATOM      5  C   UNL     1      34.867 -22.312 -17.748  0.00  0.00    +0.188 C 
ATOM      6  C   UNL     1      35.039 -22.657 -16.411  0.00  0.00    +0.161 C 
ATOM      7  C   UNL     1      32.950 -22.864 -16.794  0.00  0.00    +0.208 C 
ATOM      8  C   UNL     1      37.149 -21.918 -17.941  0.00  0.00    +0.134 C 
ATOM      9  C   UNL     1      36.324 -22.614 -15.869  0.00  0.00    +0.150 C 
ENDROOT
BRANCH   7  14
ATOM     10  O   UNL     1      29.367 -23.010 -16.836  0.00  0.00    -0.240 OA
ATOM     11  N   UNL     1      30.574 -22.475 -17.293  0.00  0.00    -0.043 NA
ATOM     12  N   UNL     1      29.586 -23.993 -15.869  0.00  0.00    -0.033 NA
ATOM     13  N   UNL     1      31.610 -24.865 -14.919  0.00  0.00    -0.339 N 
ATOM     14  C   UNL     1      31.508 -23.133 -16.608  0.00  0.00    +0.200 A 
ATOM     15  C   UNL     1      30.911 -24.050 -15.746  0.00  0.00    +0.192 A 
ATOM     16  H   UNL     1      31.133 -25.495 -14.331  0.00  0.00    +0.144 HD
ATOM     17  H   UNL     1      32.593 -24.828 -14.906  0.00  0.00    +0.144 HD
ENDBRANCH   7  14
BRANCH   1  18
ATOM     18  C   UNL     1      32.827 -22.213 -19.212  0.00  0.00    +0.094 C 
ATOM     19  C   UNL     1      32.704 -20.732 -19.525  0.00  0.00    +0.023 C 
ENDBRANCH   1  18
BRANCH   9  20
ATOM     20  C   UNL     1      36.574 -22.951 -14.514  0.00  0.00    -0.041 C 
ATOM     21  C   UNL     1      36.785 -23.237 -13.366  0.00  0.00    -0.060 C 
BRANCH  21  22
ATOM     22  C   UNL     1      37.048 -23.587 -11.960  0.00  0.00    +0.142 C 
ATOM     23  C   UNL     1      38.243 -24.534 -11.865  0.00  0.00    +0.043 C 
ATOM     24  C   UNL     1      35.811 -24.220 -11.323  0.00  0.00    +0.043 C 
BRANCH  22  25
ATOM     25  O   UNL     1      37.380 -22.406 -11.230  0.00  0.00    -0.375 OA
ATOM     26  H   UNL     1      37.450 -21.656 -11.841  0.00  0.00    +0.211 HD
ENDBRANCH  22  25
ENDBRANCH  21  22
ENDBRANCH   9  20
BRANCH   4  27
ATOM     27  O   UNL     1      35.770 -21.584 -19.895  0.00  0.00    -0.476 OA
BRANCH  27  28
ATOM     28  C   UNL     1      36.413 -20.400 -20.326  0.00  0.00    +0.203 C 
BRANCH  28  30
ATOM     29  N   UNL     1      34.443 -18.968 -23.281  0.00  0.00    +0.384 N 
ATOM     30  C   UNL     1      35.389 -19.528 -21.049  0.00  0.00    +0.022 C 
ATOM     31  C   UNL     1      35.657 -18.041 -20.784  0.00  0.00    -0.001 C 
ATOM     32  C   UNL     1      35.398 -19.813 -22.559  0.00  0.00    -0.078 C 
ATOM     33  C   UNL     1      34.709 -17.167 -21.600  0.00  0.00    -0.023 C 
ATOM     34  C   UNL     1      34.742 -17.549 -23.079  0.00  0.00    -0.082 C 
ATOM     35  H   UNL     1      33.501 -19.162 -22.939  0.00  0.00    -0.085 HD
ATOM     36  H   UNL     1      34.512 -19.176 -24.277  0.00  0.00    -0.085 HD
ENDBRANCH  28  30
ENDBRANCH  27  28
ENDBRANCH   4  27
TORSDOF 8
ENDMDL
MODEL 6
REMARK VINA RESULT:      -8.5      2.198      7.824
REMARK  Name = 16725726
REMARK  8 active torsions:
REMARK  status: ('A' for Active; 'I' for Inactive)
REMARK    1  A    between atoms: N_1  and  C_18
REMARK    2  A    between atoms: C_4  and  O_27
REMARK    3  A    between atoms: C_7  and  C_14
REMARK    4  A    between atoms: C_9  and  C_20
REMARK    5  A    between atoms: C_21  and  C_22
REMARK    6  A    between atoms: C_22  and  O_25
REMARK    7  A    between atoms: O_27  and  C_28
REMARK    8  A    between atoms: C_28  and  C_30
REMARK                            x       y       z     vdW  Elec       q    Type
REMARK                         _______ _______ _______ _____ _____    ______ ____
ROOT
ATOM      1  N   UNL     1      32.697 -12.444 -23.486  0.00  0.00    -0.271 N 
ATOM      2  N   UNL     1      33.521 -14.506 -23.601  0.00  0.00    -0.385 NA
ATOM      3  N   UNL     1      32.580 -14.589 -20.019  0.00  0.00    -0.230 NA
ATOM      4  C   UNL     1      32.035 -12.446 -21.049  0.00  0.00    +0.160 C 
ATOM      5  C   UNL     1      32.555 -12.966 -22.227  0.00  0.00    +0.188 C 
ATOM      6  C   UNL     1      33.077 -14.252 -22.324  0.00  0.00    +0.161 C 
ATOM      7  C   UNL     1      33.279 -13.400 -24.271  0.00  0.00    +0.208 C 
ATOM      8  C   UNL     1      32.084 -13.328 -19.980  0.00  0.00    +0.134 C 
ATOM      9  C   UNL     1      33.080 -15.062 -21.188  0.00  0.00    +0.150 C 
ENDROOT
BRANCH   7  14
ATOM     10  O   UNL     1      34.404 -12.403 -27.526  0.00  0.00    -0.240 OA
ATOM     11  N   UNL     1      34.323 -12.202 -26.146  0.00  0.00    -0.043 NA
ATOM     12  N   UNL     1      33.726 -13.563 -27.906  0.00  0.00    -0.033 NA
ATOM     13  N   UNL     1      32.504 -15.182 -26.624  0.00  0.00    -0.339 N 
ATOM     14  C   UNL     1      33.604 -13.231 -25.702  0.00  0.00    +0.200 A 
ATOM     15  C   UNL     1      33.242 -14.054 -26.767  0.00  0.00    +0.192 A 
ATOM     16  H   UNL     1      32.278 -15.726 -27.414  0.00  0.00    +0.144 HD
ATOM     17  H   UNL     1      32.194 -15.458 -25.732  0.00  0.00    +0.144 HD
ENDBRANCH   7  14
BRANCH   1  18
ATOM     18  C   UNL     1      32.302 -11.119 -23.911  0.00  0.00    +0.094 C 
ATOM     19  C   UNL     1      33.457 -10.133 -23.867  0.00  0.00    +0.023 C 
ENDBRANCH   1  18
BRANCH   9  20
ATOM     20  C   UNL     1      33.595 -16.383 -21.214  0.00  0.00    -0.041 C 
ATOM     21  C   UNL     1      34.032 -17.502 -21.235  0.00  0.00    -0.060 C 
BRANCH  21  22
ATOM     22  C   UNL     1      34.565 -18.875 -21.264  0.00  0.00    +0.142 C 
ATOM     23  C   UNL     1      34.924 -19.272 -22.695  0.00  0.00    +0.043 C 
ATOM     24  C   UNL     1      33.556 -19.857 -20.671  0.00  0.00    +0.043 C 
BRANCH  22  25
ATOM     25  O   UNL     1      35.765 -18.934 -20.491  0.00  0.00    -0.375 OA
ATOM     26  H   UNL     1      35.942 -19.854 -20.238  0.00  0.00    +0.211 HD
ENDBRANCH  22  25
ENDBRANCH  21  22
ENDBRANCH   9  20
BRANCH   4  27
ATOM     27  O   UNL     1      31.515 -11.181 -20.928  0.00  0.00    -0.476 OA
BRANCH  27  28
ATOM     28  C   UNL     1      31.945 -10.412 -19.820  0.00  0.00    +0.203 C 
BRANCH  28  30
ATOM     29  N   UNL     1      32.627  -6.646 -19.725  0.00  0.00    +0.384 N 
ATOM     30  C   UNL     1      32.411  -9.049 -20.328  0.00  0.00    +0.022 C 
ATOM     31  C   UNL     1      31.669  -8.666 -21.615  0.00  0.00    -0.001 C 
ATOM     32  C   UNL     1      32.213  -7.969 -19.253  0.00  0.00    -0.078 C 
ATOM     33  C   UNL     1      32.048  -7.255 -22.056  0.00  0.00    -0.023 C 
ATOM     34  C   UNL     1      31.870  -6.254 -20.916  0.00  0.00    -0.082 C 
ATOM     35  H   UNL     1      33.620  -6.668 -19.955  0.00  0.00    -0.085 HD
ATOM     36  H   UNL     1      32.446  -5.965 -18.987  0.00  0.00    -0.085 HD
ENDBRANCH  28  30
ENDBRANCH  27  28
ENDBRANCH   4  27
TORSDOF 8
ENDMDL
MODEL 7
REMARK VINA RESULT:      -8.3      5.920     12.490
REMARK  Name = 16725726
REMARK  8 active torsions:
REMARK  status: ('A' for Active; 'I' for Inactive)
REMARK    1  A    between atoms: N_1  and  C_18
REMARK    2  A    between atoms: C_4  and  O_27
REMARK    3  A    between atoms: C_7  and  C_14
REMARK    4  A    between atoms: C_9  and  C_20
REMARK    5  A    between atoms: C_21  and  C_22
REMARK    6  A    between atoms: C_22  and  O_25
REMARK    7  A    between atoms: O_27  and  C_28
REMARK    8  A    between atoms: C_28  and  C_30
REMARK                            x       y       z     vdW  Elec       q    Type
REMARK                         _______ _______ _______ _____ _____    ______ ____
ROOT
ATOM      1  N   UNL     1      32.358 -23.234 -16.158  0.00  0.00    -0.271 N 
ATOM      2  N   UNL     1      33.768 -24.026 -14.633  0.00  0.00    -0.385 NA
ATOM      3  N   UNL     1      36.320 -22.857 -17.050  0.00  0.00    -0.230 NA
ATOM      4  C   UNL     1      34.054 -22.418 -17.841  0.00  0.00    +0.160 C 
ATOM      5  C   UNL     1      33.611 -23.003 -16.662  0.00  0.00    +0.188 C 
ATOM      6  C   UNL     1      34.473 -23.506 -15.693  0.00  0.00    +0.161 C 
ATOM      7  C   UNL     1      32.503 -23.847 -14.945  0.00  0.00    +0.208 C 
ATOM      8  C   UNL     1      35.436 -22.382 -17.962  0.00  0.00    +0.134 C 
ATOM      9  C   UNL     1      35.848 -23.422 -15.910  0.00  0.00    +0.150 C 
ENDROOT
BRANCH   7  14
ATOM     10  O   UNL     1      30.087 -24.422 -12.359  0.00  0.00    -0.240 OA
ATOM     11  N   UNL     1      31.237 -23.791 -12.839  0.00  0.00    -0.043 NA
ATOM     12  N   UNL     1      29.547 -25.281 -13.318  0.00  0.00    -0.033 NA
ATOM     13  N   UNL     1      30.251 -25.816 -15.549  0.00  0.00    -0.339 N 
ATOM     14  C   UNL     1      31.385 -24.266 -14.074  0.00  0.00    +0.200 A 
ATOM     15  C   UNL     1      30.364 -25.168 -14.364  0.00  0.00    +0.192 A 
ATOM     16  H   UNL     1      29.507 -26.443 -15.698  0.00  0.00    +0.144 HD
ATOM     17  H   UNL     1      30.913 -25.660 -16.261  0.00  0.00    +0.144 HD
ENDBRANCH   7  14
BRANCH   1  18
ATOM     18  C   UNL     1      31.104 -22.891 -16.793  0.00  0.00    +0.094 C 
ATOM     19  C   UNL     1      30.166 -22.154 -15.854  0.00  0.00    +0.023 C 
ENDBRANCH   1  18
BRANCH   9  20
ATOM     20  C   UNL     1      36.785 -23.913 -14.966  0.00  0.00    -0.041 C 
ATOM     21  C   UNL     1      37.579 -24.330 -14.166  0.00  0.00    -0.060 C 
BRANCH  21  22
ATOM     22  C   UNL     1      38.550 -24.840 -13.183  0.00  0.00    +0.142 C 
ATOM     23  C   UNL     1      39.792 -25.375 -13.895  0.00  0.00    +0.043 C 
ATOM     24  C   UNL     1      37.918 -25.927 -12.316  0.00  0.00    +0.043 C 
BRANCH  22  25
ATOM     25  O   UNL     1      38.973 -23.771 -12.335  0.00  0.00    -0.375 OA
ATOM     26  H   UNL     1      39.606 -24.107 -11.681  0.00  0.00    +0.211 HD
ENDBRANCH  22  25
ENDBRANCH  21  22
ENDBRANCH   9  20
BRANCH   4  27
ATOM     27  O   UNL     1      33.224 -21.915 -18.812  0.00  0.00    -0.476 OA
BRANCH  27  28
ATOM     28  C   UNL     1      33.775 -21.744 -20.104  0.00  0.00    +0.203 C 
BRANCH  28  30
ATOM     29  N   UNL     1      33.910 -18.094 -21.252  0.00  0.00    +0.384 N 
ATOM     30  C   UNL     1      34.313 -20.320 -20.218  0.00  0.00    +0.022 C 
ATOM     31  C   UNL     1      35.745 -20.323 -20.768  0.00  0.00    -0.001 C 
ATOM     32  C   UNL     1      33.399 -19.459 -21.104  0.00  0.00    -0.078 C 
ATOM     33  C   UNL     1      36.240 -18.896 -20.993  0.00  0.00    -0.023 C 
ATOM     34  C   UNL     1      35.251 -18.096 -21.840  0.00  0.00    -0.082 C 
ATOM     35  H   UNL     1      33.949 -17.651 -20.334  0.00  0.00    -0.085 HD
ATOM     36  H   UNL     1      33.284 -17.578 -21.871  0.00  0.00    -0.085 HD
ENDBRANCH  28  30
ENDBRANCH  27  28
ENDBRANCH   4  27
TORSDOF 8
ENDMDL
MODEL 8
REMARK VINA RESULT:      -7.8      2.192      3.216
REMARK  Name = 16725726
REMARK  8 active torsions:
REMARK  status: ('A' for Active; 'I' for Inactive)
REMARK    1  A    between atoms: N_1  and  C_18
REMARK    2  A    between atoms: C_4  and  O_27
REMARK    3  A    between atoms: C_7  and  C_14
REMARK    4  A    between atoms: C_9  and  C_20
REMARK    5  A    between atoms: C_21  and  C_22
REMARK    6  A    between atoms: C_22  and  O_25
REMARK    7  A    between atoms: O_27  and  C_28
REMARK    8  A    between atoms: C_28  and  C_30
REMARK                            x       y       z     vdW  Elec       q    Type
REMARK                         _______ _______ _______ _____ _____    ______ ____
ROOT
ATOM      1  N   UNL     1      33.184 -13.887 -23.904  0.00  0.00    -0.271 N 
ATOM      2  N   UNL     1      33.042 -11.681 -24.133  0.00  0.00    -0.385 NA
ATOM      3  N   UNL     1      31.828 -11.856 -20.638  0.00  0.00    -0.230 NA
ATOM      4  C   UNL     1      32.364 -14.065 -21.523  0.00  0.00    +0.160 C 
ATOM      5  C   UNL     1      32.714 -13.424 -22.703  0.00  0.00    +0.188 C 
ATOM      6  C   UNL     1      32.634 -12.045 -22.871  0.00  0.00    +0.161 C 
ATOM      7  C   UNL     1      33.364 -12.810 -24.725  0.00  0.00    +0.208 C 
ATOM      8  C   UNL     1      31.926 -13.204 -20.527  0.00  0.00    +0.134 C 
ATOM      9  C   UNL     1      32.180 -11.266 -21.806  0.00  0.00    +0.150 C 
ENDROOT
BRANCH   7  14
ATOM     10  O   UNL     1      34.192 -13.593 -28.124  0.00  0.00    -0.240 OA
ATOM     11  N   UNL     1      33.534 -13.887 -26.928  0.00  0.00    -0.043 NA
ATOM     12  N   UNL     1      34.917 -12.404 -28.022  0.00  0.00    -0.033 NA
ATOM     13  N   UNL     1      35.193 -10.864 -26.202  0.00  0.00    -0.339 N 
ATOM     14  C   UNL     1      33.860 -12.884 -26.115  0.00  0.00    +0.200 A 
ATOM     15  C   UNL     1      34.696 -11.987 -26.776  0.00  0.00    +0.192 A 
ATOM     16  H   UNL     1      35.781 -10.266 -26.719  0.00  0.00    +0.144 HD
ATOM     17  H   UNL     1      34.967 -10.646 -25.269  0.00  0.00    +0.144 HD
ENDBRANCH   7  14
BRANCH   1  18
ATOM     18  C   UNL     1      33.444 -15.269 -24.244  0.00  0.00    +0.094 C 
ATOM     19  C   UNL     1      34.900 -15.648 -24.036  0.00  0.00    +0.023 C 
ENDBRANCH   1  18
BRANCH   9  20
ATOM     20  C   UNL     1      32.073  -9.855 -21.907  0.00  0.00    -0.041 C 
ATOM     21  C   UNL     1      31.982  -8.660 -21.992  0.00  0.00    -0.060 C 
BRANCH  21  22
ATOM     22  C   UNL     1      31.871  -7.195 -22.093  0.00  0.00    +0.142 C 
ATOM     23  C   UNL     1      32.954  -6.645 -23.019  0.00  0.00    +0.043 C 
ATOM     24  C   UNL     1      31.970  -6.551 -20.710  0.00  0.00    +0.043 C 
BRANCH  22  25
ATOM     25  O   UNL     1      30.607  -6.852 -22.664  0.00  0.00    -0.375 OA
ATOM     26  H   UNL     1      30.008  -7.613 -22.604  0.00  0.00    +0.211 HD
ENDBRANCH  22  25
ENDBRANCH  21  22
ENDBRANCH   9  20
BRANCH   4  27
ATOM     27  O   UNL     1      32.433 -15.423 -21.332  0.00  0.00    -0.476 OA
BRANCH  27  28
ATOM     28  C   UNL     1      33.539 -15.915 -20.598  0.00  0.00    +0.203 C 
BRANCH  28  30
ATOM     29  N   UNL     1      33.550 -19.668 -21.352  0.00  0.00    +0.384 N 
ATOM     30  C   UNL     1      33.999 -17.225 -21.232  0.00  0.00    +0.022 C 
ATOM     31  C   UNL     1      35.469 -17.505 -20.893  0.00  0.00    -0.001 C 
ATOM     32  C   UNL     1      33.111 -18.393 -20.779  0.00  0.00    -0.078 C 
ATOM     33  C   UNL     1      35.895 -18.871 -21.427  0.00  0.00    -0.023 C 
ATOM     34  C   UNL     1      34.932 -19.966 -20.971  0.00  0.00    -0.082 C 
ATOM     35  H   UNL     1      33.489 -19.616 -22.369  0.00  0.00    -0.085 HD
ATOM     36  H   UNL     1      32.948 -20.410 -20.995  0.00  0.00    -0.085 HD
ENDBRANCH  28  30
ENDBRANCH  27  28
ENDBRANCH   4  27
TORSDOF 8
ENDMDL
