MODEL 1
REMARK VINA RESULT:      -7.6      0.000      0.000
REMARK  Name = 11207678
REMARK  7 active torsions:
REMARK  status: ('A' for Active; 'I' for Inactive)
REMARK    1  A    between atoms: O_1  and  C_2
REMARK    2  A    between atoms: O_1  and  P_10
REMARK    3  A    between atoms: C_5  and  O_8
REMARK    4  A    between atoms: P_10  and  O_12
REMARK    5  A    between atoms: P_10  and  O_15
REMARK    6  A    between atoms: O_12  and  C_13
REMARK    7  A    between atoms: O_15  and  C_16
REMARK                            x       y       z     vdW  Elec       q    Type
REMARK                         _______ _______ _______ _____ _____    ______ ____
ROOT
ATOM      1  O   UNL     1      34.249 -18.305 -21.963  0.00  0.00    -0.402 OA
ENDROOT
BRANCH   1   2
ATOM      2  C   UNL     1      34.363 -19.387 -21.133  0.00  0.00    +0.149 C 
ATOM      3  C   UNL     1      35.622 -19.899 -20.835  0.00  0.00    +0.041 C 
ATOM      4  C   UNL     1      33.219 -19.966 -20.593  0.00  0.00    +0.041 C 
ATOM      5  C   UNL     1      34.595 -21.586 -19.444  0.00  0.00    +0.139 C 
ATOM      6  C   UNL     1      35.738 -21.001 -19.989  0.00  0.00    +0.040 C 
ATOM      7  C   UNL     1      33.335 -21.068 -19.745  0.00  0.00    +0.040 C 
BRANCH   5   8
ATOM      8  O   UNL     1      34.708 -22.661 -18.618  0.00  0.00    -0.471 OA
ATOM      9  C   UNL     1      33.557 -23.016 -17.852  0.00  0.00    +0.252 C 
ENDBRANCH   5   8
ENDBRANCH   1   2
BRANCH   1  10
ATOM     10  P   UNL     1      34.565 -16.777 -21.545  0.00  0.00    +0.535 P 
ATOM     11  O   UNL     1      35.315 -16.614 -20.253  0.00  0.00    -0.215 OA
BRANCH  10  12
ATOM     12  O   UNL     1      33.120 -16.044 -21.604  0.00  0.00    -0.264 OA
BRANCH  12  13
ATOM     13  C   UNL     1      32.865 -14.983 -20.701  0.00  0.00    +0.155 C 
ATOM     14  C   UNL     1      32.460 -13.753 -21.486  0.00  0.00    +0.035 C 
ENDBRANCH  12  13
ENDBRANCH  10  12
BRANCH  10  15
ATOM     15  O   UNL     1      35.356 -16.189 -22.833  0.00  0.00    -0.264 OA
BRANCH  15  16
ATOM     16  C   UNL     1      34.633 -15.760 -23.974  0.00  0.00    +0.155 C 
ATOM     17  C   UNL     1      34.754 -16.810 -25.058  0.00  0.00    +0.035 C 
ENDBRANCH  15  16
ENDBRANCH  10  15
ENDBRANCH   1  10
TORSDOF 7
ENDMDL
MODEL 2
REMARK VINA RESULT:      -7.2      1.733      2.377
REMARK  Name = 11207678
REMARK  7 active torsions:
REMARK  status: ('A' for Active; 'I' for Inactive)
REMARK    1  A    between atoms: O_1  and  C_2
REMARK    2  A    between atoms: O_1  and  P_10
REMARK    3  A    between atoms: C_5  and  O_8
REMARK    4  A    between atoms: P_10  and  O_12
REMARK    5  A    between atoms: P_10  and  O_15
REMARK    6  A    between atoms: O_12  and  C_13
REMARK    7  A    between atoms: O_15  and  C_16
REMARK                            x       y       z     vdW  Elec       q    Type
REMARK                         _______ _______ _______ _____ _____    ______ ____
ROOT
ATOM      1  O   UNL     1      34.778 -19.745 -21.427  0.00  0.00    -0.402 OA
ENDROOT
BRANCH   1   2
ATOM      2  C   UNL     1      34.690 -20.617 -20.376  0.00  0.00    +0.149 C 
ATOM      3  C   UNL     1      33.443 -21.076 -19.963  0.00  0.00    +0.041 C 
ATOM      4  C   UNL     1      35.848 -21.036 -19.728  0.00  0.00    +0.041 C 
ATOM      5  C   UNL     1      34.511 -22.389 -18.239  0.00  0.00    +0.139 C 
ATOM      6  C   UNL     1      33.354 -21.964 -18.891  0.00  0.00    +0.040 C 
ATOM      7  C   UNL     1      35.758 -21.925 -18.657  0.00  0.00    +0.040 C 
BRANCH   5   8
ATOM      8  O   UNL     1      34.424 -23.256 -17.193  0.00  0.00    -0.471 OA
ATOM      9  C   UNL     1      35.257 -22.997 -16.064  0.00  0.00    +0.252 C 
ENDBRANCH   5   8
ENDBRANCH   1   2
BRANCH   1  10
ATOM     10  P   UNL     1      35.882 -18.576 -21.573  0.00  0.00    +0.535 P 
ATOM     11  O   UNL     1      37.293 -18.992 -21.264  0.00  0.00    -0.215 OA
BRANCH  10  12
ATOM     12  O   UNL     1      35.302 -17.367 -20.662  0.00  0.00    -0.264 OA
BRANCH  12  13
ATOM     13  C   UNL     1      34.384 -16.461 -21.248  0.00  0.00    +0.155 C 
ATOM     14  C   UNL     1      34.429 -15.152 -20.487  0.00  0.00    +0.035 C 
ENDBRANCH  12  13
ENDBRANCH  10  12
BRANCH  10  15
ATOM     15  O   UNL     1      35.679 -18.052 -23.095  0.00  0.00    -0.264 OA
BRANCH  15  16
ATOM     16  C   UNL     1      34.959 -18.841 -24.026  0.00  0.00    +0.155 C 
ATOM     17  C   UNL     1      34.421 -17.943 -25.120  0.00  0.00    +0.035 C 
ENDBRANCH  15  16
ENDBRANCH  10  15
ENDBRANCH   1  10
TORSDOF 7
ENDMDL
MODEL 3
REMARK VINA RESULT:      -7.1      2.058      6.306
REMARK  Name = 11207678
REMARK  7 active torsions:
REMARK  status: ('A' for Active; 'I' for Inactive)
REMARK    1  A    between atoms: O_1  and  C_2
REMARK    2  A    between atoms: O_1  and  P_10
REMARK    3  A    between atoms: C_5  and  O_8
REMARK    4  A    between atoms: P_10  and  O_12
REMARK    5  A    between atoms: P_10  and  O_15
REMARK    6  A    between atoms: O_12  and  C_13
REMARK    7  A    between atoms: O_15  and  C_16
REMARK                            x       y       z     vdW  Elec       q    Type
REMARK                         _______ _______ _______ _____ _____    ______ ____
ROOT
ATOM      1  O   UNL     1      35.217 -16.963 -20.929  0.00  0.00    -0.402 OA
ENDROOT
BRANCH   1   2
ATOM      2  C   UNL     1      34.454 -15.901 -21.332  0.00  0.00    +0.149 C 
ATOM      3  C   UNL     1      34.644 -15.356 -22.598  0.00  0.00    +0.041 C 
ATOM      4  C   UNL     1      33.495 -15.374 -20.472  0.00  0.00    +0.041 C 
ATOM      5  C   UNL     1      32.903 -13.741 -22.151  0.00  0.00    +0.139 C 
ATOM      6  C   UNL     1      33.867 -14.273 -23.008  0.00  0.00    +0.040 C 
ATOM      7  C   UNL     1      32.717 -14.292 -20.884  0.00  0.00    +0.040 C 
BRANCH   5   8
ATOM      8  O   UNL     1      32.144 -12.685 -22.552  0.00  0.00    -0.471 OA
ATOM      9  C   UNL     1      31.563 -11.878 -21.528  0.00  0.00    +0.252 C 
ENDBRANCH   5   8
ENDBRANCH   1   2
BRANCH   1  10
ATOM     10  P   UNL     1      34.956 -18.502 -21.343  0.00  0.00    +0.535 P 
ATOM     11  O   UNL     1      33.520 -18.940 -21.288  0.00  0.00    -0.215 OA
BRANCH  10  12
ATOM     12  O   UNL     1      35.973 -19.343 -20.401  0.00  0.00    -0.264 OA
BRANCH  12  13
ATOM     13  C   UNL     1      35.813 -20.749 -20.321  0.00  0.00    +0.155 C 
ATOM     14  C   UNL     1      36.486 -21.251 -19.062  0.00  0.00    +0.035 C 
ENDBRANCH  12  13
ENDBRANCH  10  12
BRANCH  10  15
ATOM     15  O   UNL     1      35.611 -18.612 -22.823  0.00  0.00    -0.264 OA
BRANCH  15  16
ATOM     16  C   UNL     1      34.891 -19.235 -23.873  0.00  0.00    +0.155 C 
ATOM     17  C   UNL     1      34.505 -18.187 -24.895  0.00  0.00    +0.035 C 
ENDBRANCH  15  16
ENDBRANCH  10  15
ENDBRANCH   1  10
TORSDOF 7
ENDMDL
MODEL 4
REMARK VINA RESULT:      -7.1      2.091      6.438
REMARK  Name = 11207678
REMARK  7 active torsions:
REMARK  status: ('A' for Active; 'I' for Inactive)
REMARK    1  A    between atoms: O_1  and  C_2
REMARK    2  A    between atoms: O_1  and  P_10
REMARK    3  A    between atoms: C_5  and  O_8
REMARK    4  A    between atoms: P_10  and  O_12
REMARK    5  A    between atoms: P_10  and  O_15
REMARK    6  A    between atoms: O_12  and  C_13
REMARK    7  A    between atoms: O_15  and  C_16
REMARK                            x       y       z     vdW  Elec       q    Type
REMARK                         _______ _______ _______ _____ _____    ______ ____
ROOT
ATOM      1  O   UNL     1      35.196 -17.154 -20.744  0.00  0.00    -0.402 OA
ENDROOT
BRANCH   1   2
ATOM      2  C   UNL     1      34.436 -16.167 -21.310  0.00  0.00    +0.149 C 
ATOM      3  C   UNL     1      33.202 -15.843 -20.754  0.00  0.00    +0.041 C 
ATOM      4  C   UNL     1      34.902 -15.496 -22.436  0.00  0.00    +0.041 C 
ATOM      5  C   UNL     1      32.889 -14.160 -22.460  0.00  0.00    +0.139 C 
ATOM      6  C   UNL     1      32.427 -14.837 -21.331  0.00  0.00    +0.040 C 
ATOM      7  C   UNL     1      34.127 -14.489 -23.012  0.00  0.00    +0.040 C 
BRANCH   5   8
ATOM      8  O   UNL     1      32.133 -13.178 -23.022  0.00  0.00    -0.471 OA
ATOM      9  C   UNL     1      31.842 -12.039 -22.214  0.00  0.00    +0.252 C 
ENDBRANCH   5   8
ENDBRANCH   1   2
BRANCH   1  10
ATOM     10  P   UNL     1      35.641 -18.520 -21.481  0.00  0.00    +0.535 P 
ATOM     11  O   UNL     1      37.033 -18.512 -22.047  0.00  0.00    -0.215 OA
BRANCH  10  12
ATOM     12  O   UNL     1      34.459 -18.793 -22.556  0.00  0.00    -0.264 OA
BRANCH  12  13
ATOM     13  C   UNL     1      34.815 -19.238 -23.853  0.00  0.00    +0.155 C 
ATOM     14  C   UNL     1      34.476 -18.156 -24.856  0.00  0.00    +0.035 C 
ENDBRANCH  12  13
ENDBRANCH  10  12
BRANCH  10  15
ATOM     15  O   UNL     1      35.409 -19.655 -20.346  0.00  0.00    -0.264 OA
BRANCH  15  16
ATOM     16  C   UNL     1      36.441 -20.580 -20.046  0.00  0.00    +0.155 C 
ATOM     17  C   UNL     1      35.904 -21.623 -19.089  0.00  0.00    +0.035 C 
ENDBRANCH  15  16
ENDBRANCH  10  15
ENDBRANCH   1  10
TORSDOF 7
ENDMDL
MODEL 5
REMARK VINA RESULT:      -7.0      2.716      4.488
REMARK  Name = 11207678
REMARK  7 active torsions:
REMARK  status: ('A' for Active; 'I' for Inactive)
REMARK    1  A    between atoms: O_1  and  C_2
REMARK    2  A    between atoms: O_1  and  P_10
REMARK    3  A    between atoms: C_5  and  O_8
REMARK    4  A    between atoms: P_10  and  O_12
REMARK    5  A    between atoms: P_10  and  O_15
REMARK    6  A    between atoms: O_12  and  C_13
REMARK    7  A    between atoms: O_15  and  C_16
REMARK                            x       y       z     vdW  Elec       q    Type
REMARK                         _______ _______ _______ _____ _____    ______ ____
ROOT
ATOM      1  O   UNL     1      34.859 -14.831 -23.518  0.00  0.00    -0.402 OA
ENDROOT
BRANCH   1   2
ATOM      2  C   UNL     1      34.851 -16.107 -23.024  0.00  0.00    +0.149 C 
ATOM      3  C   UNL     1      34.846 -16.313 -21.648  0.00  0.00    +0.041 C 
ATOM      4  C   UNL     1      34.850 -17.187 -23.901  0.00  0.00    +0.041 C 
ATOM      5  C   UNL     1      34.836 -18.701 -22.018  0.00  0.00    +0.139 C 
ATOM      6  C   UNL     1      34.839 -17.613 -21.144  0.00  0.00    +0.040 C 
ATOM      7  C   UNL     1      34.841 -18.488 -23.396  0.00  0.00    +0.040 C 
BRANCH   5   8
ATOM      8  O   UNL     1      34.828 -19.970 -21.526  0.00  0.00    -0.471 OA
ATOM      9  C   UNL     1      33.876 -20.265 -20.504  0.00  0.00    +0.252 C 
ENDBRANCH   5   8
ENDBRANCH   1   2
BRANCH   1  10
ATOM     10  P   UNL     1      33.577 -14.068 -24.138  0.00  0.00    +0.535 P 
ATOM     11  O   UNL     1      33.123 -14.574 -25.478  0.00  0.00    -0.215 OA
BRANCH  10  12
ATOM     12  O   UNL     1      33.988 -12.501 -24.092  0.00  0.00    -0.264 OA
BRANCH  12  13
ATOM     13  C   UNL     1      33.864 -11.736 -25.278  0.00  0.00    +0.155 C 
ATOM     14  C   UNL     1      34.912 -10.643 -25.272  0.00  0.00    +0.035 C 
ENDBRANCH  12  13
ENDBRANCH  10  12
BRANCH  10  15
ATOM     15  O   UNL     1      32.453 -14.213 -22.977  0.00  0.00    -0.264 OA
BRANCH  15  16
ATOM     16  C   UNL     1      32.232 -13.148 -22.067  0.00  0.00    +0.155 C 
ATOM     17  C   UNL     1      32.521 -13.633 -20.662  0.00  0.00    +0.035 C 
ENDBRANCH  15  16
ENDBRANCH  10  15
ENDBRANCH   1  10
TORSDOF 7
ENDMDL
MODEL 6
REMARK VINA RESULT:      -7.0      3.438      8.085
REMARK  Name = 11207678
REMARK  7 active torsions:
REMARK  status: ('A' for Active; 'I' for Inactive)
REMARK    1  A    between atoms: O_1  and  C_2
REMARK    2  A    between atoms: O_1  and  P_10
REMARK    3  A    between atoms: C_5  and  O_8
REMARK    4  A    between atoms: P_10  and  O_12
REMARK    5  A    between atoms: P_10  and  O_15
REMARK    6  A    between atoms: O_12  and  C_13
REMARK    7  A    between atoms: O_15  and  C_16
REMARK                            x       y       z     vdW  Elec       q    Type
REMARK                         _______ _______ _______ _____ _____    ______ ____
ROOT
ATOM      1  O   UNL     1      34.451 -23.346 -17.742  0.00  0.00    -0.402 OA
ENDROOT
BRANCH   1   2
ATOM      2  C   UNL     1      34.498 -22.321 -18.647  0.00  0.00    +0.149 C 
ATOM      3  C   UNL     1      35.730 -21.850 -19.092  0.00  0.00    +0.041 C 
ATOM      4  C   UNL     1      33.315 -21.758 -19.115  0.00  0.00    +0.041 C 
ATOM      5  C   UNL     1      34.595 -20.237 -20.488  0.00  0.00    +0.139 C 
ATOM      6  C   UNL     1      35.778 -20.805 -20.014  0.00  0.00    +0.040 C 
ATOM      7  C   UNL     1      33.364 -20.713 -20.038  0.00  0.00    +0.040 C 
BRANCH   5   8
ATOM      8  O   UNL     1      34.643 -19.218 -21.388  0.00  0.00    -0.471 OA
ATOM      9  C   UNL     1      35.871 -18.499 -21.492  0.00  0.00    +0.252 C 
ENDBRANCH   5   8
ENDBRANCH   1   2
BRANCH   1  10
ATOM     10  P   UNL     1      34.942 -23.250 -16.206  0.00  0.00    +0.535 P 
ATOM     11  O   UNL     1      36.082 -22.302 -15.961  0.00  0.00    -0.215 OA
BRANCH  10  12
ATOM     12  O   UNL     1      35.218 -24.790 -15.781  0.00  0.00    -0.264 OA
BRANCH  12  13
ATOM     13  C   UNL     1      36.311 -25.068 -14.923  0.00  0.00    +0.155 C 
ATOM     14  C   UNL     1      36.722 -26.514 -15.100  0.00  0.00    +0.035 C 
ENDBRANCH  12  13
ENDBRANCH  10  12
BRANCH  10  15
ATOM     15  O   UNL     1      33.589 -22.859 -15.400  0.00  0.00    -0.264 OA
BRANCH  15  16
ATOM     16  C   UNL     1      32.473 -23.733 -15.421  0.00  0.00    +0.155 C 
ATOM     17  C   UNL     1      31.346 -23.075 -16.190  0.00  0.00    +0.035 C 
ENDBRANCH  15  16
ENDBRANCH  10  15
ENDBRANCH   1  10
TORSDOF 7
ENDMDL
MODEL 7
REMARK VINA RESULT:      -6.9      2.631      4.295
REMARK  Name = 11207678
REMARK  7 active torsions:
REMARK  status: ('A' for Active; 'I' for Inactive)
REMARK    1  A    between atoms: O_1  and  C_2
REMARK    2  A    between atoms: O_1  and  P_10
REMARK    3  A    between atoms: C_5  and  O_8
REMARK    4  A    between atoms: P_10  and  O_12
REMARK    5  A    between atoms: P_10  and  O_15
REMARK    6  A    between atoms: O_12  and  C_13
REMARK    7  A    between atoms: O_15  and  C_16
REMARK                            x       y       z     vdW  Elec       q    Type
REMARK                         _______ _______ _______ _____ _____    ______ ____
ROOT
ATOM      1  O   UNL     1      34.937 -15.071 -23.529  0.00  0.00    -0.402 OA
ENDROOT
BRANCH   1   2
ATOM      2  C   UNL     1      34.938 -16.334 -23.003  0.00  0.00    +0.149 C 
ATOM      3  C   UNL     1      34.903 -17.435 -23.854  0.00  0.00    +0.041 C 
ATOM      4  C   UNL     1      34.973 -16.508 -21.623  0.00  0.00    +0.041 C 
ATOM      5  C   UNL     1      34.940 -18.903 -21.935  0.00  0.00    +0.139 C 
ATOM      6  C   UNL     1      34.903 -18.722 -23.318  0.00  0.00    +0.040 C 
ATOM      7  C   UNL     1      34.975 -17.796 -21.088  0.00  0.00    +0.040 C 
BRANCH   5   8
ATOM      8  O   UNL     1      34.941 -20.160 -21.412  0.00  0.00    -0.471 OA
ATOM      9  C   UNL     1      34.009 -20.427 -20.364  0.00  0.00    +0.252 C 
ENDBRANCH   5   8
ENDBRANCH   1   2
BRANCH   1  10
ATOM     10  P   UNL     1      33.634 -14.302 -24.094  0.00  0.00    +0.535 P 
ATOM     11  O   UNL     1      33.145 -14.778 -25.433  0.00  0.00    -0.215 OA
BRANCH  10  12
ATOM     12  O   UNL     1      34.037 -12.733 -24.022  0.00  0.00    -0.264 OA
BRANCH  12  13
ATOM     13  C   UNL     1      33.851 -11.934 -25.177  0.00  0.00    +0.155 C 
ATOM     14  C   UNL     1      34.688 -10.680 -25.050  0.00  0.00    +0.035 C 
ENDBRANCH  12  13
ENDBRANCH  10  12
BRANCH  10  15
ATOM     15  O   UNL     1      32.545 -14.481 -22.905  0.00  0.00    -0.264 OA
BRANCH  15  16
ATOM     16  C   UNL     1      32.291 -13.413 -22.008  0.00  0.00    +0.155 C 
ATOM     17  C   UNL     1      32.613 -13.865 -20.599  0.00  0.00    +0.035 C 
ENDBRANCH  15  16
ENDBRANCH  10  15
ENDBRANCH   1  10
TORSDOF 7
ENDMDL
MODEL 8
REMARK VINA RESULT:      -6.9      5.232      9.498
REMARK  Name = 11207678
REMARK  7 active torsions:
REMARK  status: ('A' for Active; 'I' for Inactive)
REMARK    1  A    between atoms: O_1  and  C_2
REMARK    2  A    between atoms: O_1  and  P_10
REMARK    3  A    between atoms: C_5  and  O_8
REMARK    4  A    between atoms: P_10  and  O_12
REMARK    5  A    between atoms: P_10  and  O_15
REMARK    6  A    between atoms: O_12  and  C_13
REMARK    7  A    between atoms: O_15  and  C_16
REMARK                            x       y       z     vdW  Elec       q    Type
REMARK                         _______ _______ _______ _____ _____    ______ ____
ROOT
ATOM      1  O   UNL     1      36.241 -23.192 -15.093  0.00  0.00    -0.402 OA
ENDROOT
BRANCH   1   2
ATOM      2  C   UNL     1      35.468 -22.945 -16.194  0.00  0.00    +0.149 C 
ATOM      3  C   UNL     1      34.144 -23.373 -16.216  0.00  0.00    +0.041 C 
ATOM      4  C   UNL     1      36.011 -22.269 -17.282  0.00  0.00    +0.041 C 
ATOM      5  C   UNL     1      33.893 -22.442 -18.432  0.00  0.00    +0.139 C 
ATOM      6  C   UNL     1      33.355 -23.121 -17.339  0.00  0.00    +0.040 C 
ATOM      7  C   UNL     1      35.221 -22.016 -18.404  0.00  0.00    +0.040 C 
BRANCH   5   8
ATOM      8  O   UNL     1      33.123 -22.196 -19.527  0.00  0.00    -0.471 OA
ATOM      9  C   UNL     1      33.238 -20.905 -20.125  0.00  0.00    +0.252 C 
ENDBRANCH   5   8
ENDBRANCH   1   2
BRANCH   1  10
ATOM     10  P   UNL     1      36.809 -24.643 -14.665  0.00  0.00    +0.535 P 
ATOM     11  O   UNL     1      36.399 -25.776 -15.563  0.00  0.00    -0.215 OA
BRANCH  10  12
ATOM     12  O   UNL     1      36.370 -24.797 -13.112  0.00  0.00    -0.264 OA
BRANCH  12  13
ATOM     13  C   UNL     1      35.856 -23.661 -12.439  0.00  0.00    +0.155 C 
ATOM     14  C   UNL     1      36.957 -23.040 -11.605  0.00  0.00    +0.035 C 
ENDBRANCH  12  13
ENDBRANCH  10  12
BRANCH  10  15
ATOM     15  O   UNL     1      38.413 -24.416 -14.598  0.00  0.00    -0.264 OA
BRANCH  15  16
ATOM     16  C   UNL     1      39.202 -25.184 -13.705  0.00  0.00    +0.155 C 
ATOM     17  C   UNL     1      40.352 -25.804 -14.470  0.00  0.00    +0.035 C 
ENDBRANCH  15  16
ENDBRANCH  10  15
ENDBRANCH   1  10
TORSDOF 7
ENDMDL
MODEL 9
REMARK VINA RESULT:      -6.8      2.370      3.502
REMARK  Name = 11207678
REMARK  7 active torsions:
REMARK  status: ('A' for Active; 'I' for Inactive)
REMARK    1  A    between atoms: O_1  and  C_2
REMARK    2  A    between atoms: O_1  and  P_10
REMARK    3  A    between atoms: C_5  and  O_8
REMARK    4  A    between atoms: P_10  and  O_12
REMARK    5  A    between atoms: P_10  and  O_15
REMARK    6  A    between atoms: O_12  and  C_13
REMARK    7  A    between atoms: O_15  and  C_16
REMARK                            x       y       z     vdW  Elec       q    Type
REMARK                         _______ _______ _______ _____ _____    ______ ____
ROOT
ATOM      1  O   UNL     1      35.106 -15.293 -23.520  0.00  0.00    -0.402 OA
ENDROOT
BRANCH   1   2
ATOM      2  C   UNL     1      35.020 -16.535 -22.954  0.00  0.00    +0.149 C 
ATOM      3  C   UNL     1      35.129 -16.672 -21.573  0.00  0.00    +0.041 C 
ATOM      4  C   UNL     1      34.824 -17.651 -23.761  0.00  0.00    +0.041 C 
ATOM      5  C   UNL     1      34.844 -19.061 -21.799  0.00  0.00    +0.139 C 
ATOM      6  C   UNL     1      35.042 -17.939 -20.995  0.00  0.00    +0.040 C 
ATOM      7  C   UNL     1      34.735 -18.917 -23.182  0.00  0.00    +0.040 C 
BRANCH   5   8
ATOM      8  O   UNL     1      34.758 -20.296 -21.235  0.00  0.00    -0.471 OA
ATOM      9  C   UNL     1      33.686 -20.519 -20.320  0.00  0.00    +0.252 C 
ENDBRANCH   5   8
ENDBRANCH   1   2
BRANCH   1  10
ATOM     10  P   UNL     1      33.846 -14.363 -23.914  0.00  0.00    +0.535 P 
ATOM     11  O   UNL     1      34.138 -12.891 -23.979  0.00  0.00    -0.215 OA
BRANCH  10  12
ATOM     12  O   UNL     1      32.691 -14.794 -22.861  0.00  0.00    -0.264 OA
BRANCH  12  13
ATOM     13  C   UNL     1      32.291 -13.856 -21.877  0.00  0.00    +0.155 C 
ATOM     14  C   UNL     1      32.697 -14.370 -20.512  0.00  0.00    +0.035 C 
ENDBRANCH  12  13
ENDBRANCH  10  12
BRANCH  10  15
ATOM     15  O   UNL     1      33.342 -14.987 -25.324  0.00  0.00    -0.264 OA
BRANCH  15  16
ATOM     16  C   UNL     1      32.558 -14.202 -26.208  0.00  0.00    +0.155 C 
ATOM     17  C   UNL     1      33.464 -13.581 -27.250  0.00  0.00    +0.035 C 
ENDBRANCH  15  16
ENDBRANCH  10  15
ENDBRANCH   1  10
TORSDOF 7
ENDMDL
