MODEL 1
REMARK VINA RESULT:      -6.2      0.000      0.000
REMARK  Name = 5287692
REMARK  2 active torsions:
REMARK  status: ('A' for Active; 'I' for Inactive)
REMARK    1  A    between atoms: C_3  and  C_11
REMARK    2  A    between atoms: C_11  and  O_12
REMARK                            x       y       z     vdW  Elec       q    Type
REMARK                         _______ _______ _______ _____ _____    ______ ____
ROOT
ATOM      1  O   UNL     1      34.034 -24.213 -12.781  0.00  0.00    -0.275 OA
ATOM      2  N   UNL     1      36.135 -24.767 -13.616  0.00  0.00    -0.271 N 
ATOM      3  C   UNL     1      37.007 -25.099 -14.755  0.00  0.00    +0.174 C 
ATOM      4  C   UNL     1      38.453 -24.639 -14.559  0.00  0.00    +0.031 C 
ATOM      5  C   UNL     1      39.010 -24.961 -13.175  0.00  0.00    +0.004 C 
ATOM      6  C   UNL     1      38.065 -24.466 -12.089  0.00  0.00    +0.022 C 
ATOM      7  C   UNL     1      36.669 -25.044 -12.278  0.00  0.00    +0.094 C 
ATOM      8  C   UNL     1      34.801 -24.359 -13.736  0.00  0.00    +0.226 C 
ATOM      9  C   UNL     1      34.299 -24.076 -15.130  0.00  0.00    +0.095 C 
ENDROOT
BRANCH   3  11
ATOM     10  O   UNL     1      37.410 -27.425 -14.226  0.00  0.00    -0.248 OA
ATOM     11  C   UNL     1      36.911 -26.583 -14.958  0.00  0.00    +0.332 C 
BRANCH  11  12
ATOM     12  O   UNL     1      36.194 -26.869 -16.073  0.00  0.00    -0.479 OA
ATOM     13  H   UNL     1      36.310 -27.693 -16.505  0.00  0.00    +0.295 HD
ENDBRANCH  11  12
ENDBRANCH   3  11
TORSDOF 2
ENDMDL
MODEL 2
REMARK VINA RESULT:      -6.1      2.124      4.183
REMARK  Name = 5287692
REMARK  2 active torsions:
REMARK  status: ('A' for Active; 'I' for Inactive)
REMARK    1  A    between atoms: C_3  and  C_11
REMARK    2  A    between atoms: C_11  and  O_12
REMARK                            x       y       z     vdW  Elec       q    Type
REMARK                         _______ _______ _______ _____ _____    ______ ____
ROOT
ATOM      1  O   UNL     1      38.677 -27.249 -14.716  0.00  0.00    -0.275 OA
ATOM      2  N   UNL     1      37.687 -25.214 -14.171  0.00  0.00    -0.271 N 
ATOM      3  C   UNL     1      37.800 -23.836 -13.664  0.00  0.00    +0.174 C 
ATOM      4  C   UNL     1      36.777 -22.882 -14.282  0.00  0.00    +0.031 C 
ATOM      5  C   UNL     1      35.364 -23.459 -14.337  0.00  0.00    +0.004 C 
ATOM      6  C   UNL     1      35.375 -24.837 -14.984  0.00  0.00    +0.022 C 
ATOM      7  C   UNL     1      36.333 -25.772 -14.258  0.00  0.00    +0.094 C 
ATOM      8  C   UNL     1      38.777 -26.055 -14.422  0.00  0.00    +0.226 C 
ATOM      9  C   UNL     1      40.149 -25.435 -14.332  0.00  0.00    +0.095 C 
ENDROOT
BRANCH   3  11
ATOM     10  O   UNL     1      37.135 -24.822 -11.557  0.00  0.00    -0.248 OA
ATOM     11  C   UNL     1      37.671 -23.910 -12.171  0.00  0.00    +0.332 C 
BRANCH  11  12
ATOM     12  O   UNL     1      38.228 -22.822 -11.586  0.00  0.00    -0.479 OA
ATOM     13  H   UNL     1      37.831 -21.979 -11.692  0.00  0.00    +0.295 HD
ENDBRANCH  11  12
ENDBRANCH   3  11
TORSDOF 2
ENDMDL
MODEL 3
REMARK VINA RESULT:      -6.1      2.366      3.353
REMARK  Name = 5287692
REMARK  2 active torsions:
REMARK  status: ('A' for Active; 'I' for Inactive)
REMARK    1  A    between atoms: C_3  and  C_11
REMARK    2  A    between atoms: C_11  and  O_12
REMARK                            x       y       z     vdW  Elec       q    Type
REMARK                         _______ _______ _______ _____ _____    ______ ____
ROOT
ATOM      1  O   UNL     1      34.886 -22.926 -15.188  0.00  0.00    -0.275 OA
ATOM      2  N   UNL     1      36.187 -24.064 -13.628  0.00  0.00    -0.271 N 
ATOM      3  C   UNL     1      36.313 -24.751 -12.333  0.00  0.00    +0.174 C 
ATOM      4  C   UNL     1      37.366 -25.861 -12.341  0.00  0.00    +0.031 C 
ATOM      5  C   UNL     1      38.676 -25.450 -13.009  0.00  0.00    +0.004 C 
ATOM      6  C   UNL     1      38.410 -24.857 -14.386  0.00  0.00    +0.022 C 
ATOM      7  C   UNL     1      37.438 -23.688 -14.297  0.00  0.00    +0.094 C 
ATOM      8  C   UNL     1      34.975 -23.620 -14.172  0.00  0.00    +0.226 C 
ATOM      9  C   UNL     1      33.715 -24.038 -13.456  0.00  0.00    +0.095 C 
ENDROOT
BRANCH   3  11
ATOM     10  O   UNL     1      37.117 -22.609 -11.548  0.00  0.00    -0.248 OA
ATOM     11  C   UNL     1      36.615 -23.697 -11.308  0.00  0.00    +0.332 C 
BRANCH  11  12
ATOM     12  O   UNL     1      36.255 -24.115 -10.069  0.00  0.00    -0.479 OA
ATOM     13  H   UNL     1      35.356 -24.082  -9.807  0.00  0.00    +0.295 HD
ENDBRANCH  11  12
ENDBRANCH   3  11
TORSDOF 2
ENDMDL
MODEL 4
REMARK VINA RESULT:      -6.1     10.015     11.192
REMARK  Name = 5287692
REMARK  2 active torsions:
REMARK  status: ('A' for Active; 'I' for Inactive)
REMARK    1  A    between atoms: C_3  and  C_11
REMARK    2  A    between atoms: C_11  and  O_12
REMARK                            x       y       z     vdW  Elec       q    Type
REMARK                         _______ _______ _______ _____ _____    ______ ____
ROOT
ATOM      1  O   UNL     1      32.277 -16.099 -20.681  0.00  0.00    -0.275 OA
ATOM      2  N   UNL     1      34.104 -17.446 -21.200  0.00  0.00    -0.271 N 
ATOM      3  C   UNL     1      35.507 -17.582 -21.624  0.00  0.00    +0.174 C 
ATOM      4  C   UNL     1      36.192 -18.821 -21.043  0.00  0.00    +0.031 C 
ATOM      5  C   UNL     1      35.340 -20.085 -21.134  0.00  0.00    +0.004 C 
ATOM      6  C   UNL     1      33.952 -19.837 -20.560  0.00  0.00    +0.022 C 
ATOM      7  C   UNL     1      33.280 -18.659 -21.253  0.00  0.00    +0.094 C 
ATOM      8  C   UNL     1      33.484 -16.226 -20.903  0.00  0.00    +0.226 C 
ATOM      9  C   UNL     1      34.372 -15.008 -20.849  0.00  0.00    +0.095 C 
ENDROOT
BRANCH   3  11
ATOM     10  O   UNL     1      35.310 -18.574 -23.822  0.00  0.00    -0.248 OA
ATOM     11  C   UNL     1      35.509 -17.590 -23.125  0.00  0.00    +0.332 C 
BRANCH  11  12
ATOM     12  O   UNL     1      35.764 -16.350 -23.610  0.00  0.00    -0.479 OA
ATOM     13  H   UNL     1      35.191 -15.638 -23.399  0.00  0.00    +0.295 HD
ENDBRANCH  11  12
ENDBRANCH   3  11
TORSDOF 2
ENDMDL
MODEL 5
REMARK VINA RESULT:      -6.1     17.262     18.786
REMARK  Name = 5287692
REMARK  2 active torsions:
REMARK  status: ('A' for Active; 'I' for Inactive)
REMARK    1  A    between atoms: C_3  and  C_11
REMARK    2  A    between atoms: C_11  and  O_12
REMARK                            x       y       z     vdW  Elec       q    Type
REMARK                         _______ _______ _______ _____ _____    ______ ____
ROOT
ATOM      1  O   UNL     1      32.228  -9.642 -18.948  0.00  0.00    -0.275 OA
ATOM      2  N   UNL     1      32.044  -8.912 -21.151  0.00  0.00    -0.271 N 
ATOM      3  C   UNL     1      31.716  -9.183 -22.560  0.00  0.00    +0.174 C 
ATOM      4  C   UNL     1      31.174  -7.957 -23.298  0.00  0.00    +0.031 C 
ATOM      5  C   UNL     1      31.974  -6.685 -23.031  0.00  0.00    +0.004 C 
ATOM      6  C   UNL     1      32.145  -6.465 -21.535  0.00  0.00    +0.022 C 
ATOM      7  C   UNL     1      32.788  -7.678 -20.875  0.00  0.00    +0.094 C 
ATOM      8  C   UNL     1      31.830  -9.815 -20.103  0.00  0.00    +0.226 C 
ATOM      9  C   UNL     1      31.052 -11.065 -20.431  0.00  0.00    +0.095 C 
ENDROOT
BRANCH   3  11
ATOM     10  O   UNL     1      33.915  -9.042 -23.559  0.00  0.00    -0.248 OA
ATOM     11  C   UNL     1      32.963  -9.720 -23.202  0.00  0.00    +0.332 C 
BRANCH  11  12
ATOM     12  O   UNL     1      32.891 -11.067 -23.336  0.00  0.00    -0.479 OA
ATOM     13  H   UNL     1      32.453 -11.579 -22.685  0.00  0.00    +0.295 HD
ENDBRANCH  11  12
ENDBRANCH   3  11
TORSDOF 2
ENDMDL
MODEL 6
REMARK VINA RESULT:      -6.0      2.285      3.739
REMARK  Name = 5287692
REMARK  2 active torsions:
REMARK  status: ('A' for Active; 'I' for Inactive)
REMARK    1  A    between atoms: C_3  and  C_11
REMARK    2  A    between atoms: C_11  and  O_12
REMARK                            x       y       z     vdW  Elec       q    Type
REMARK                         _______ _______ _______ _____ _____    ______ ____
ROOT
ATOM      1  O   UNL     1      37.956 -24.555 -11.301  0.00  0.00    -0.275 OA
ATOM      2  N   UNL     1      36.801 -24.442 -13.319  0.00  0.00    -0.271 N 
ATOM      3  C   UNL     1      36.764 -24.633 -14.778  0.00  0.00    +0.174 C 
ATOM      4  C   UNL     1      35.373 -25.000 -15.302  0.00  0.00    +0.031 C 
ATOM      5  C   UNL     1      34.257 -24.142 -14.710  0.00  0.00    +0.004 C 
ATOM      6  C   UNL     1      34.346 -24.121 -13.191  0.00  0.00    +0.022 C 
ATOM      7  C   UNL     1      35.718 -23.645 -12.732  0.00  0.00    +0.094 C 
ATOM      8  C   UNL     1      37.865 -24.836 -12.499  0.00  0.00    +0.226 C 
ATOM      9  C   UNL     1      38.950 -25.662 -13.143  0.00  0.00    +0.095 C 
ENDROOT
BRANCH   3  11
ATOM     10  O   UNL     1      36.629 -22.343 -15.549  0.00  0.00    -0.248 OA
ATOM     11  C   UNL     1      37.281 -23.366 -15.396  0.00  0.00    +0.332 C 
BRANCH  11  12
ATOM     12  O   UNL     1      38.577 -23.507 -15.765  0.00  0.00    -0.479 OA
ATOM     13  H   UNL     1      39.203 -23.850 -15.157  0.00  0.00    +0.295 HD
ENDBRANCH  11  12
ENDBRANCH   3  11
TORSDOF 2
ENDMDL
MODEL 7
REMARK VINA RESULT:      -6.0      1.566      2.186
REMARK  Name = 5287692
REMARK  2 active torsions:
REMARK  status: ('A' for Active; 'I' for Inactive)
REMARK    1  A    between atoms: C_3  and  C_11
REMARK    2  A    between atoms: C_11  and  O_12
REMARK                            x       y       z     vdW  Elec       q    Type
REMARK                         _______ _______ _______ _____ _____    ______ ____
ROOT
ATOM      1  O   UNL     1      34.941 -22.562 -15.367  0.00  0.00    -0.275 OA
ATOM      2  N   UNL     1      36.378 -24.045 -14.293  0.00  0.00    -0.271 N 
ATOM      3  C   UNL     1      37.647 -24.790 -14.257  0.00  0.00    +0.174 C 
ATOM      4  C   UNL     1      38.167 -25.024 -12.837  0.00  0.00    +0.031 C 
ATOM      5  C   UNL     1      37.088 -25.495 -11.865  0.00  0.00    +0.004 C 
ATOM      6  C   UNL     1      35.877 -24.574 -11.922  0.00  0.00    +0.022 C 
ATOM      7  C   UNL     1      35.341 -24.467 -13.344  0.00  0.00    +0.094 C 
ATOM      8  C   UNL     1      36.053 -23.085 -15.258  0.00  0.00    +0.226 C 
ATOM      9  C   UNL     1      37.152 -22.674 -16.205  0.00  0.00    +0.095 C 
ENDROOT
BRANCH   3  11
ATOM     10  O   UNL     1      36.455 -26.315 -15.708  0.00  0.00    -0.248 OA
ATOM     11  C   UNL     1      37.416 -26.079 -14.990  0.00  0.00    +0.332 C 
BRANCH  11  12
ATOM     12  O   UNL     1      38.421 -26.956 -14.748  0.00  0.00    -0.479 OA
ATOM     13  H   UNL     1      38.538 -27.700 -15.306  0.00  0.00    +0.295 HD
ENDBRANCH  11  12
ENDBRANCH   3  11
TORSDOF 2
ENDMDL
MODEL 8
REMARK VINA RESULT:      -6.0      1.818      3.462
REMARK  Name = 5287692
REMARK  2 active torsions:
REMARK  status: ('A' for Active; 'I' for Inactive)
REMARK    1  A    between atoms: C_3  and  C_11
REMARK    2  A    between atoms: C_11  and  O_12
REMARK                            x       y       z     vdW  Elec       q    Type
REMARK                         _______ _______ _______ _____ _____    ______ ____
ROOT
ATOM      1  O   UNL     1      38.902 -26.740 -14.659  0.00  0.00    -0.275 OA
ATOM      2  N   UNL     1      37.388 -25.160 -13.863  0.00  0.00    -0.271 N 
ATOM      3  C   UNL     1      36.070 -24.509 -13.934  0.00  0.00    +0.174 C 
ATOM      4  C   UNL     1      35.568 -24.016 -12.575  0.00  0.00    +0.031 C 
ATOM      5  C   UNL     1      36.634 -23.281 -11.765  0.00  0.00    +0.004 C 
ATOM      6  C   UNL     1      37.905 -24.113 -11.675  0.00  0.00    +0.022 C 
ATOM      7  C   UNL     1      38.414 -24.481 -13.063  0.00  0.00    +0.094 C 
ATOM      8  C   UNL     1      37.758 -26.279 -14.618  0.00  0.00    +0.226 C 
ATOM      9  C   UNL     1      36.668 -26.950 -15.417  0.00  0.00    +0.095 C 
ENDROOT
BRANCH   3  11
ATOM     10  O   UNL     1      37.092 -23.273 -15.746  0.00  0.00    -0.248 OA
ATOM     11  C   UNL     1      36.191 -23.391 -14.929  0.00  0.00    +0.332 C 
BRANCH  11  12
ATOM     12  O   UNL     1      35.160 -22.520 -14.798  0.00  0.00    -0.479 OA
ATOM     13  H   UNL     1      34.362 -22.665 -15.269  0.00  0.00    +0.295 HD
ENDBRANCH  11  12
ENDBRANCH   3  11
TORSDOF 2
ENDMDL
MODEL 9
REMARK VINA RESULT:      -5.9     10.593     11.981
REMARK  Name = 5287692
REMARK  2 active torsions:
REMARK  status: ('A' for Active; 'I' for Inactive)
REMARK    1  A    between atoms: C_3  and  C_11
REMARK    2  A    between atoms: C_11  and  O_12
REMARK                            x       y       z     vdW  Elec       q    Type
REMARK                         _______ _______ _______ _____ _____    ______ ____
ROOT
ATOM      1  O   UNL     1      34.834 -14.591 -22.604  0.00  0.00    -0.275 OA
ATOM      2  N   UNL     1      34.872 -16.919 -22.636  0.00  0.00    -0.271 N 
ATOM      3  C   UNL     1      34.835 -18.204 -21.919  0.00  0.00    +0.174 C 
ATOM      4  C   UNL     1      34.194 -19.329 -22.734  0.00  0.00    +0.031 C 
ATOM      5  C   UNL     1      34.681 -19.384 -24.180  0.00  0.00    +0.004 C 
ATOM      6  C   UNL     1      34.561 -18.016 -24.837  0.00  0.00    +0.022 C 
ATOM      7  C   UNL     1      35.310 -16.960 -24.036  0.00  0.00    +0.094 C 
ATOM      8  C   UNL     1      34.669 -15.672 -22.032  0.00  0.00    +0.226 C 
ATOM      9  C   UNL     1      34.210 -15.679 -20.595  0.00  0.00    +0.095 C 
ENDROOT
BRANCH   3  11
ATOM     10  O   UNL     1      37.229 -18.347 -22.238  0.00  0.00    -0.248 OA
ATOM     11  C   UNL     1      36.249 -18.526 -21.530  0.00  0.00    +0.332 C 
BRANCH  11  12
ATOM     12  O   UNL     1      36.295 -19.048 -20.280  0.00  0.00    -0.479 OA
ATOM     13  H   UNL     1      35.698 -19.727 -20.034  0.00  0.00    +0.295 HD
ENDBRANCH  11  12
ENDBRANCH   3  11
TORSDOF 2
ENDMDL
