MODEL 1
REMARK VINA RESULT:      -4.2      0.000      0.000
REMARK  Name = 1990
REMARK  1 active torsions:
REMARK  status: ('A' for Active; 'I' for Inactive)
REMARK    1  A    between atoms: N_2  and  O_6
REMARK                            x       y       z     vdW  Elec       q    Type
REMARK                         _______ _______ _______ _____ _____    ______ ____
ROOT
ATOM      1  O   UNL     1      38.658 -26.940 -14.728  0.00  0.00    -0.273 OA
ATOM      2  N   UNL     1      36.395 -26.936 -15.203  0.00  0.00    -0.197 N 
ATOM      3  C   UNL     1      37.489 -26.735 -14.404  0.00  0.00    +0.245 C 
ATOM      4  C   UNL     1      37.132 -26.234 -13.031  0.00  0.00    +0.097 C 
ATOM      5  H   UNL     1      35.479 -26.756 -14.892  0.00  0.00    +0.182 HD
ENDROOT
BRANCH   2   6
ATOM      6  O   UNL     1      36.663 -27.415 -16.494  0.00  0.00    -0.295 OA
ATOM      7  H   UNL     1      36.971 -28.334 -16.440  0.00  0.00    +0.241 HD
ENDBRANCH   2   6
TORSDOF 1
ENDMDL
MODEL 2
REMARK VINA RESULT:      -3.9     13.125     13.427
REMARK  Name = 1990
REMARK  1 active torsions:
REMARK  status: ('A' for Active; 'I' for Inactive)
REMARK    1  A    between atoms: N_2  and  O_6
REMARK                            x       y       z     vdW  Elec       q    Type
REMARK                         _______ _______ _______ _____ _____    ______ ____
ROOT
ATOM      1  O   UNL     1      41.147 -15.612 -14.636  0.00  0.00    -0.273 OA
ATOM      2  N   UNL     1      40.944 -13.314 -14.478  0.00  0.00    -0.197 N 
ATOM      3  C   UNL     1      41.096 -14.497 -15.152  0.00  0.00    +0.245 C 
ATOM      4  C   UNL     1      41.213 -14.316 -16.641  0.00  0.00    +0.097 C 
ATOM      5  H   UNL     1      40.909 -12.447 -14.943  0.00  0.00    +0.182 HD
ENDROOT
BRANCH   2   6
ATOM      6  O   UNL     1      40.841 -13.417 -13.083  0.00  0.00    -0.295 OA
ATOM      7  H   UNL     1      39.914 -13.569 -12.838  0.00  0.00    +0.241 HD
ENDBRANCH   2   6
TORSDOF 1
ENDMDL
MODEL 3
REMARK VINA RESULT:      -3.9      2.272      2.684
REMARK  Name = 1990
REMARK  1 active torsions:
REMARK  status: ('A' for Active; 'I' for Inactive)
REMARK    1  A    between atoms: N_2  and  O_6
REMARK                            x       y       z     vdW  Elec       q    Type
REMARK                         _______ _______ _______ _____ _____    ______ ____
ROOT
ATOM      1  O   UNL     1      38.425 -26.994 -14.656  0.00  0.00    -0.273 OA
ATOM      2  N   UNL     1      39.640 -25.146 -15.332  0.00  0.00    -0.197 N 
ATOM      3  C   UNL     1      38.634 -25.782 -14.654  0.00  0.00    +0.245 C 
ATOM      4  C   UNL     1      37.755 -24.835 -13.880  0.00  0.00    +0.097 C 
ATOM      5  H   UNL     1      39.761 -24.170 -15.295  0.00  0.00    +0.182 HD
ENDROOT
BRANCH   2   6
ATOM      6  O   UNL     1      40.486 -25.975 -16.083  0.00  0.00    -0.295 OA
ATOM      7  H   UNL     1      39.967 -26.438 -16.759  0.00  0.00    +0.241 HD
ENDBRANCH   2   6
TORSDOF 1
ENDMDL
MODEL 4
REMARK VINA RESULT:      -3.8      9.698     10.153
REMARK  Name = 1990
REMARK  1 active torsions:
REMARK  status: ('A' for Active; 'I' for Inactive)
REMARK    1  A    between atoms: N_2  and  O_6
REMARK                            x       y       z     vdW  Elec       q    Type
REMARK                         _______ _______ _______ _____ _____    ______ ____
ROOT
ATOM      1  O   UNL     1      27.664 -24.246 -17.612  0.00  0.00    -0.273 OA
ATOM      2  N   UNL     1      28.288 -22.393 -16.378  0.00  0.00    -0.197 N 
ATOM      3  C   UNL     1      28.308 -23.723 -16.703  0.00  0.00    +0.245 C 
ATOM      4  C   UNL     1      29.210 -24.535 -15.813  0.00  0.00    +0.097 C 
ATOM      5  H   UNL     1      28.824 -22.027 -15.638  0.00  0.00    +0.182 HD
ENDROOT
BRANCH   2   6
ATOM      6  O   UNL     1      27.455 -21.586 -17.165  0.00  0.00    -0.295 OA
ATOM      7  H   UNL     1      27.440 -21.926 -18.074  0.00  0.00    +0.241 HD
ENDBRANCH   2   6
TORSDOF 1
ENDMDL
MODEL 5
REMARK VINA RESULT:      -3.7     13.687     14.061
REMARK  Name = 1990
REMARK  1 active torsions:
REMARK  status: ('A' for Active; 'I' for Inactive)
REMARK    1  A    between atoms: N_2  and  O_6
REMARK                            x       y       z     vdW  Elec       q    Type
REMARK                         _______ _______ _______ _____ _____    ______ ____
ROOT
ATOM      1  O   UNL     1      34.677 -16.903 -25.826  0.00  0.00    -0.273 OA
ATOM      2  N   UNL     1      35.272 -17.194 -23.610  0.00  0.00    -0.197 N 
ATOM      3  C   UNL     1      34.801 -17.610 -24.827  0.00  0.00    +0.245 C 
ATOM      4  C   UNL     1      34.418 -19.066 -24.844  0.00  0.00    +0.097 C 
ATOM      5  H   UNL     1      35.351 -17.804 -22.842  0.00  0.00    +0.182 HD
ENDROOT
BRANCH   2   6
ATOM      6  O   UNL     1      35.635 -15.842 -23.528  0.00  0.00    -0.295 OA
ATOM      7  H   UNL     1      34.852 -15.309 -23.316  0.00  0.00    +0.241 HD
ENDBRANCH   2   6
TORSDOF 1
ENDMDL
MODEL 6
REMARK VINA RESULT:      -3.7      2.308      2.425
REMARK  Name = 1990
REMARK  1 active torsions:
REMARK  status: ('A' for Active; 'I' for Inactive)
REMARK    1  A    between atoms: N_2  and  O_6
REMARK                            x       y       z     vdW  Elec       q    Type
REMARK                         _______ _______ _______ _____ _____    ______ ____
ROOT
ATOM      1  O   UNL     1      38.368 -27.030 -14.607  0.00  0.00    -0.273 OA
ATOM      2  N   UNL     1      38.232 -24.790 -15.165  0.00  0.00    -0.197 N 
ATOM      3  C   UNL     1      38.867 -25.909 -14.694  0.00  0.00    +0.245 C 
ATOM      4  C   UNL     1      40.283 -25.645 -14.260  0.00  0.00    +0.097 C 
ATOM      5  H   UNL     1      38.680 -23.915 -15.213  0.00  0.00    +0.182 HD
ENDROOT
BRANCH   2   6
ATOM      6  O   UNL     1      36.903 -24.971 -15.575  0.00  0.00    -0.295 OA
ATOM      7  H   UNL     1      36.790 -25.872 -15.915  0.00  0.00    +0.241 HD
ENDBRANCH   2   6
TORSDOF 1
ENDMDL
MODEL 7
REMARK VINA RESULT:      -3.7     12.129     12.381
REMARK  Name = 1990
REMARK  1 active torsions:
REMARK  status: ('A' for Active; 'I' for Inactive)
REMARK    1  A    between atoms: N_2  and  O_6
REMARK                            x       y       z     vdW  Elec       q    Type
REMARK                         _______ _______ _______ _____ _____    ______ ____
ROOT
ATOM      1  O   UNL     1      42.300 -16.502 -15.682  0.00  0.00    -0.273 OA
ATOM      2  N   UNL     1      40.701 -14.836 -15.810  0.00  0.00    -0.197 N 
ATOM      3  C   UNL     1      41.656 -15.673 -16.323  0.00  0.00    +0.245 C 
ATOM      4  C   UNL     1      41.876 -15.481 -17.800  0.00  0.00    +0.097 C 
ATOM      5  H   UNL     1      40.216 -14.189 -16.371  0.00  0.00    +0.182 HD
ENDROOT
BRANCH   2   6
ATOM      6  O   UNL     1      40.460 -14.959 -14.435  0.00  0.00    -0.295 OA
ATOM      7  H   UNL     1      41.167 -14.514 -13.941  0.00  0.00    +0.241 HD
ENDBRANCH   2   6
TORSDOF 1
ENDMDL
MODEL 8
REMARK VINA RESULT:      -3.7      2.952      3.007
REMARK  Name = 1990
REMARK  1 active torsions:
REMARK  status: ('A' for Active; 'I' for Inactive)
REMARK    1  A    between atoms: N_2  and  O_6
REMARK                            x       y       z     vdW  Elec       q    Type
REMARK                         _______ _______ _______ _____ _____    ______ ____
ROOT
ATOM      1  O   UNL     1      38.792 -24.251 -14.864  0.00  0.00    -0.273 OA
ATOM      2  N   UNL     1      39.958 -26.237 -14.663  0.00  0.00    -0.197 N 
ATOM      3  C   UNL     1      39.087 -25.269 -14.240  0.00  0.00    +0.245 C 
ATOM      4  C   UNL     1      38.500 -25.555 -12.884  0.00  0.00    +0.097 C 
ATOM      5  H   UNL     1      40.158 -27.034 -14.121  0.00  0.00    +0.182 HD
ENDROOT
BRANCH   2   6
ATOM      6  O   UNL     1      40.548 -26.020 -15.916  0.00  0.00    -0.295 OA
ATOM      7  H   UNL     1      40.499 -26.835 -16.442  0.00  0.00    +0.241 HD
ENDBRANCH   2   6
TORSDOF 1
ENDMDL
MODEL 9
REMARK VINA RESULT:      -3.6      7.890      8.236
REMARK  Name = 1990
REMARK  1 active torsions:
REMARK  status: ('A' for Active; 'I' for Inactive)
REMARK    1  A    between atoms: N_2  and  O_6
REMARK                            x       y       z     vdW  Elec       q    Type
REMARK                         _______ _______ _______ _____ _____    ______ ____
ROOT
ATOM      1  O   UNL     1      34.961 -21.014 -19.672  0.00  0.00    -0.273 OA
ATOM      2  N   UNL     1      33.065 -22.334 -19.556  0.00  0.00    -0.197 N 
ATOM      3  C   UNL     1      33.753 -21.182 -19.833  0.00  0.00    +0.245 C 
ATOM      4  C   UNL     1      32.872 -20.083 -20.362  0.00  0.00    +0.097 C 
ATOM      5  H   UNL     1      32.096 -22.414 -19.705  0.00  0.00    +0.182 HD
ENDROOT
BRANCH   2   6
ATOM      6  O   UNL     1      33.831 -23.393 -19.048  0.00  0.00    -0.295 OA
ATOM      7  H   UNL     1      33.261 -23.987 -18.535  0.00  0.00    +0.241 HD
ENDBRANCH   2   6
TORSDOF 1
ENDMDL
