MODEL 1
REMARK VINA RESULT:      -9.3      0.000      0.000
REMARK  Name = 5362116
REMARK  13 active torsions:
REMARK  status: ('A' for Active; 'I' for Inactive)
REMARK    1  A    between atoms: C_1  and  C_5
REMARK    2  A    between atoms: C_1  and  N_20
REMARK    3  A    between atoms: N_4  and  C_6
REMARK    4  A    between atoms: N_4  and  C_15
REMARK    5  A    between atoms: C_15  and  C_17
REMARK    6  A    between atoms: C_17  and  O_18
REMARK    7  A    between atoms: N_20  and  C_23
REMARK    8  A    between atoms: C_23  and  C_25
REMARK    9  A    between atoms: C_23  and  C_29
REMARK   10  A    between atoms: C_25  and  O_26
REMARK   11  A    between atoms: O_26  and  C_27
REMARK   12  A    between atoms: C_29  and  C_30
REMARK   13  A    between atoms: C_30  and  C_31
REMARK                            x       y       z     vdW  Elec       q    Type
REMARK                         _______ _______ _______ _____ _____    ______ ____
ROOT
ATOM      1  C   UNL     1      33.181 -14.313 -24.267  0.00  0.00    +0.018 C 
ATOM      2  C   UNL     1      32.718 -14.145 -25.713  0.00  0.00    -0.014 C 
ENDROOT
BRANCH   1   5
ATOM      3  O   UNL     1      34.664 -16.071 -24.938  0.00  0.00    -0.277 OA
ATOM      4  N   UNL     1      33.686 -16.325 -22.853  0.00  0.00    -0.272 N 
ATOM      5  C   UNL     1      33.910 -15.640 -24.058  0.00  0.00    +0.206 C 
BRANCH   4   6
ATOM      6  C   UNL     1      34.346 -17.577 -22.613  0.00  0.00    +0.084 C 
ATOM      7  C   UNL     1      35.730 -17.396 -21.963  0.00  0.00    +0.046 C 
ATOM      8  C   UNL     1      33.539 -18.506 -21.686  0.00  0.00    +0.046 C 
ATOM      9  C   UNL     1      35.872 -18.682 -21.211  0.00  0.00    -0.024 C 
ATOM     10  C   UNL     1      34.632 -19.311 -21.056  0.00  0.00    -0.024 C 
ATOM     11  C   UNL     1      37.023 -19.230 -20.670  0.00  0.00    -0.005 C 
ATOM     12  C   UNL     1      34.517 -20.500 -20.355  0.00  0.00    -0.005 C 
ATOM     13  C   UNL     1      36.919 -20.435 -19.971  0.00  0.00    -0.000 C 
ATOM     14  C   UNL     1      35.674 -21.065 -19.814  0.00  0.00    -0.000 C 
ENDBRANCH   4   6
BRANCH   4  15
ATOM     15  C   UNL     1      32.861 -15.827 -21.750  0.00  0.00    +0.204 C 
BRANCH  15  17
ATOM     16  O   UNL     1      34.722 -14.491 -21.009  0.00  0.00    -0.248 OA
ATOM     17  C   UNL     1      33.515 -14.702 -20.990  0.00  0.00    +0.334 C 
BRANCH  17  18
ATOM     18  O   UNL     1      32.642 -13.947 -20.284  0.00  0.00    -0.479 OA
ATOM     19  H   UNL     1      32.921 -13.520 -19.498  0.00  0.00    +0.295 HD
ENDBRANCH  17  18
ENDBRANCH  15  17
ENDBRANCH   4  15
ENDBRANCH   1   5
BRANCH   1  20
ATOM     20  N   UNL     1      34.127 -13.251 -23.929  0.00  0.00    +0.399 N 
ATOM     21  H   UNL     1      34.923 -13.298 -24.566  0.00  0.00    -0.083 HD
ATOM     22  H   UNL     1      34.436 -13.382 -22.966  0.00  0.00    -0.083 HD
BRANCH  20  23
ATOM     23  C   UNL     1      33.500 -11.944 -24.046  0.00  0.00    +0.041 C 
BRANCH  23  25
ATOM     24  O   UNL     1      34.906 -11.169 -25.886  0.00  0.00    -0.252 OA
ATOM     25  C   UNL     1      34.486 -11.023 -24.744  0.00  0.00    +0.297 C 
BRANCH  25  26
ATOM     26  O   UNL     1      34.824 -10.003 -23.898  0.00  0.00    -0.450 OA
BRANCH  26  27
ATOM     27  C   UNL     1      34.792  -8.691 -24.469  0.00  0.00    +0.208 C 
ATOM     28  C   UNL     1      34.898  -7.668 -23.359  0.00  0.00    +0.051 C 
ENDBRANCH  26  27
ENDBRANCH  25  26
ENDBRANCH  23  25
BRANCH  23  29
ATOM     29  C   UNL     1      33.135 -11.363 -22.671  0.00  0.00    -0.006 C 
BRANCH  29  30
ATOM     30  C   UNL     1      31.728 -10.758 -22.566  0.00  0.00    +0.025 C 
BRANCH  30  31
ATOM     31  C   UNL     1      31.722  -9.285 -22.246  0.00  0.00    -0.022 C 
ATOM     32  C   UNL     1      32.205  -8.837 -21.016  0.00  0.00    -0.004 C 
ATOM     33  C   UNL     1      31.232  -8.371 -23.179  0.00  0.00    -0.004 C 
ATOM     34  C   UNL     1      32.198  -7.473 -20.719  0.00  0.00    -0.000 C 
ATOM     35  C   UNL     1      31.227  -7.008 -22.882  0.00  0.00    -0.000 C 
ATOM     36  C   UNL     1      31.710  -6.559 -21.653  0.00  0.00    -0.000 C 
ENDBRANCH  30  31
ENDBRANCH  29  30
ENDBRANCH  23  29
ENDBRANCH  20  23
ENDBRANCH   1  20
TORSDOF 13
ENDMDL
MODEL 2
REMARK VINA RESULT:      -9.2      1.916      3.551
REMARK  Name = 5362116
REMARK  13 active torsions:
REMARK  status: ('A' for Active; 'I' for Inactive)
REMARK    1  A    between atoms: C_1  and  C_5
REMARK    2  A    between atoms: C_1  and  N_20
REMARK    3  A    between atoms: N_4  and  C_6
REMARK    4  A    between atoms: N_4  and  C_15
REMARK    5  A    between atoms: C_15  and  C_17
REMARK    6  A    between atoms: C_17  and  O_18
REMARK    7  A    between atoms: N_20  and  C_23
REMARK    8  A    between atoms: C_23  and  C_25
REMARK    9  A    between atoms: C_23  and  C_29
REMARK   10  A    between atoms: C_25  and  O_26
REMARK   11  A    between atoms: O_26  and  C_27
REMARK   12  A    between atoms: C_29  and  C_30
REMARK   13  A    between atoms: C_30  and  C_31
REMARK                            x       y       z     vdW  Elec       q    Type
REMARK                         _______ _______ _______ _____ _____    ______ ____
ROOT
ATOM      1  C   UNL     1      33.278 -14.953 -23.143  0.00  0.00    +0.018 C 
ATOM      2  C   UNL     1      34.565 -14.143 -23.287  0.00  0.00    -0.014 C 
ENDROOT
BRANCH   1   5
ATOM      3  O   UNL     1      32.593 -15.885 -21.044  0.00  0.00    -0.277 OA
ATOM      4  N   UNL     1      34.361 -16.958 -22.089  0.00  0.00    -0.272 N 
ATOM      5  C   UNL     1      33.373 -15.965 -22.001  0.00  0.00    +0.206 C 
BRANCH   4   6
ATOM      6  C   UNL     1      34.490 -17.929 -21.039  0.00  0.00    +0.084 C 
ATOM      7  C   UNL     1      33.328 -18.939 -21.026  0.00  0.00    +0.046 C 
ATOM      8  C   UNL     1      35.789 -18.749 -21.145  0.00  0.00    +0.046 C 
ATOM      9  C   UNL     1      33.987 -20.137 -20.420  0.00  0.00    -0.024 C 
ATOM     10  C   UNL     1      35.381 -20.030 -20.487  0.00  0.00    -0.024 C 
ATOM     11  C   UNL     1      33.383 -21.263 -19.886  0.00  0.00    -0.005 C 
ATOM     12  C   UNL     1      36.199 -21.046 -20.021  0.00  0.00    -0.005 C 
ATOM     13  C   UNL     1      34.199 -22.288 -19.402  0.00  0.00    -0.000 C 
ATOM     14  C   UNL     1      35.598 -22.180 -19.470  0.00  0.00    -0.000 C 
ENDBRANCH   4   6
BRANCH   4  15
ATOM     15  C   UNL     1      35.261 -17.142 -23.230  0.00  0.00    +0.204 C 
BRANCH  15  17
ATOM     16  O   UNL     1      34.286 -19.066 -24.299  0.00  0.00    -0.248 OA
ATOM     17  C   UNL     1      34.618 -17.890 -24.370  0.00  0.00    +0.334 C 
BRANCH  17  18
ATOM     18  O   UNL     1      34.444 -17.136 -25.480  0.00  0.00    -0.479 OA
ATOM     19  H   UNL     1      33.749 -16.510 -25.517  0.00  0.00    +0.295 HD
ENDBRANCH  17  18
ENDBRANCH  15  17
ENDBRANCH   4  15
ENDBRANCH   1   5
BRANCH   1  20
ATOM     20  N   UNL     1      32.168 -14.057 -22.825  0.00  0.00    +0.399 N 
ATOM     21  H   UNL     1      31.596 -14.480 -22.094  0.00  0.00    -0.083 HD
ATOM     22  H   UNL     1      31.613 -13.911 -23.668  0.00  0.00    -0.083 HD
BRANCH  20  23
ATOM     23  C   UNL     1      32.660 -12.770 -22.360  0.00  0.00    +0.041 C 
BRANCH  23  25
ATOM     24  O   UNL     1      32.262 -13.065 -19.969  0.00  0.00    -0.252 OA
ATOM     25  C   UNL     1      32.006 -12.487 -21.017  0.00  0.00    +0.297 C 
BRANCH  25  26
ATOM     26  O   UNL     1      31.093 -11.480 -21.167  0.00  0.00    -0.450 OA
BRANCH  26  27
ATOM     27  C   UNL     1      30.887 -10.657 -20.014  0.00  0.00    +0.208 C 
ATOM     28  C   UNL     1      31.932  -9.563 -19.996  0.00  0.00    +0.051 C 
ENDBRANCH  26  27
ENDBRANCH  25  26
ENDBRANCH  23  25
BRANCH  23  29
ATOM     29  C   UNL     1      32.322 -11.642 -23.347  0.00  0.00    -0.006 C 
BRANCH  29  30
ATOM     30  C   UNL     1      33.532 -10.934 -23.973  0.00  0.00    +0.025 C 
BRANCH  30  31
ATOM     31  C   UNL     1      33.493  -9.432 -23.842  0.00  0.00    -0.022 C 
ATOM     32  C   UNL     1      34.671  -8.692 -23.951  0.00  0.00    -0.004 C 
ATOM     33  C   UNL     1      32.280  -8.784 -23.612  0.00  0.00    -0.004 C 
ATOM     34  C   UNL     1      34.635  -7.303 -23.829  0.00  0.00    -0.000 C 
ATOM     35  C   UNL     1      32.244  -7.395 -23.491  0.00  0.00    -0.000 C 
ATOM     36  C   UNL     1      33.422  -6.654 -23.600  0.00  0.00    -0.000 C 
ENDBRANCH  30  31
ENDBRANCH  29  30
ENDBRANCH  23  29
ENDBRANCH  20  23
ENDBRANCH   1  20
TORSDOF 13
ENDMDL
MODEL 3
REMARK VINA RESULT:      -9.2      1.557      2.963
REMARK  Name = 5362116
REMARK  13 active torsions:
REMARK  status: ('A' for Active; 'I' for Inactive)
REMARK    1  A    between atoms: C_1  and  C_5
REMARK    2  A    between atoms: C_1  and  N_20
REMARK    3  A    between atoms: N_4  and  C_6
REMARK    4  A    between atoms: N_4  and  C_15
REMARK    5  A    between atoms: C_15  and  C_17
REMARK    6  A    between atoms: C_17  and  O_18
REMARK    7  A    between atoms: N_20  and  C_23
REMARK    8  A    between atoms: C_23  and  C_25
REMARK    9  A    between atoms: C_23  and  C_29
REMARK   10  A    between atoms: C_25  and  O_26
REMARK   11  A    between atoms: O_26  and  C_27
REMARK   12  A    between atoms: C_29  and  C_30
REMARK   13  A    between atoms: C_30  and  C_31
REMARK                            x       y       z     vdW  Elec       q    Type
REMARK                         _______ _______ _______ _____ _____    ______ ____
ROOT
ATOM      1  C   UNL     1      33.808 -15.008 -22.112  0.00  0.00    +0.018 C 
ATOM      2  C   UNL     1      34.617 -14.110 -21.178  0.00  0.00    -0.014 C 
ENDROOT
BRANCH   1   5
ATOM      3  O   UNL     1      33.220 -16.827 -20.668  0.00  0.00    -0.277 OA
ATOM      4  N   UNL     1      34.625 -17.360 -22.431  0.00  0.00    -0.272 N 
ATOM      5  C   UNL     1      33.852 -16.470 -21.669  0.00  0.00    +0.206 C 
BRANCH   4   6
ATOM      6  C   UNL     1      34.699 -18.743 -22.052  0.00  0.00    +0.084 C 
ATOM      7  C   UNL     1      35.915 -19.040 -21.154  0.00  0.00    +0.046 C 
ATOM      8  C   UNL     1      33.452 -19.215 -21.280  0.00  0.00    +0.046 C 
ATOM      9  C   UNL     1      35.420 -20.215 -20.370  0.00  0.00    -0.024 C 
ATOM     10  C   UNL     1      34.026 -20.314 -20.442  0.00  0.00    -0.024 C 
ATOM     11  C   UNL     1      36.161 -21.106 -19.612  0.00  0.00    -0.005 C 
ATOM     12  C   UNL     1      33.344 -21.307 -19.757  0.00  0.00    -0.005 C 
ATOM     13  C   UNL     1      35.484 -22.117 -18.927  0.00  0.00    -0.000 C 
ATOM     14  C   UNL     1      34.085 -22.216 -18.999  0.00  0.00    -0.000 C 
ENDBRANCH   4   6
BRANCH   4  15
ATOM     15  C   UNL     1      35.334 -17.007 -23.663  0.00  0.00    +0.204 C 
BRANCH  15  17
ATOM     16  O   UNL     1      34.145 -18.622 -24.996  0.00  0.00    -0.248 OA
ATOM     17  C   UNL     1      34.636 -17.503 -24.904  0.00  0.00    +0.334 C 
BRANCH  17  18
ATOM     18  O   UNL     1      34.605 -16.595 -25.907  0.00  0.00    -0.479 OA
ATOM     19  H   UNL     1      35.071 -16.760 -26.702  0.00  0.00    +0.295 HD
ENDBRANCH  17  18
ENDBRANCH  15  17
ENDBRANCH   4  15
ENDBRANCH   1   5
BRANCH   1  20
ATOM     20  N   UNL     1      32.405 -14.600 -22.090  0.00  0.00    +0.399 N 
ATOM     21  H   UNL     1      32.137 -14.373 -21.133  0.00  0.00    -0.083 HD
ATOM     22  H   UNL     1      31.835 -15.369 -22.444  0.00  0.00    -0.083 HD
BRANCH  20  23
ATOM     23  C   UNL     1      32.192 -13.434 -22.934  0.00  0.00    +0.041 C 
BRANCH  23  25
ATOM     24  O   UNL     1      33.059 -14.415 -24.995  0.00  0.00    -0.252 OA
ATOM     25  C   UNL     1      33.127 -13.555 -24.126  0.00  0.00    +0.297 C 
BRANCH  25  26
ATOM     26  O   UNL     1      34.049 -12.546 -24.076  0.00  0.00    -0.450 OA
BRANCH  26  27
ATOM     27  C   UNL     1      34.030 -11.637 -25.181  0.00  0.00    +0.208 C 
ATOM     28  C   UNL     1      34.627 -10.317 -24.745  0.00  0.00    +0.051 C 
ENDBRANCH  26  27
ENDBRANCH  25  26
ENDBRANCH  23  25
BRANCH  23  29
ATOM     29  C   UNL     1      32.482 -12.127 -22.180  0.00  0.00    -0.006 C 
BRANCH  29  30
ATOM     30  C   UNL     1      31.289 -11.169 -22.046  0.00  0.00    +0.025 C 
BRANCH  30  31
ATOM     31  C   UNL     1      31.683  -9.716 -21.958  0.00  0.00    -0.022 C 
ATOM     32  C   UNL     1      31.590  -8.900 -23.085  0.00  0.00    -0.004 C 
ATOM     33  C   UNL     1      32.141  -9.190 -20.750  0.00  0.00    -0.004 C 
ATOM     34  C   UNL     1      31.955  -7.555 -23.005  0.00  0.00    -0.000 C 
ATOM     35  C   UNL     1      32.505  -7.846 -20.670  0.00  0.00    -0.000 C 
ATOM     36  C   UNL     1      32.412  -7.028 -21.797  0.00  0.00    -0.000 C 
ENDBRANCH  30  31
ENDBRANCH  29  30
ENDBRANCH  23  29
ENDBRANCH  20  23
ENDBRANCH   1  20
TORSDOF 13
ENDMDL
MODEL 4
REMARK VINA RESULT:      -8.7      1.862      9.470
REMARK  Name = 5362116
REMARK  13 active torsions:
REMARK  status: ('A' for Active; 'I' for Inactive)
REMARK    1  A    between atoms: C_1  and  C_5
REMARK    2  A    between atoms: C_1  and  N_20
REMARK    3  A    between atoms: N_4  and  C_6
REMARK    4  A    between atoms: N_4  and  C_15
REMARK    5  A    between atoms: C_15  and  C_17
REMARK    6  A    between atoms: C_17  and  O_18
REMARK    7  A    between atoms: N_20  and  C_23
REMARK    8  A    between atoms: C_23  and  C_25
REMARK    9  A    between atoms: C_23  and  C_29
REMARK   10  A    between atoms: C_25  and  O_26
REMARK   11  A    between atoms: O_26  and  C_27
REMARK   12  A    between atoms: C_29  and  C_30
REMARK   13  A    between atoms: C_30  and  C_31
REMARK                            x       y       z     vdW  Elec       q    Type
REMARK                         _______ _______ _______ _____ _____    ______ ____
ROOT
ATOM      1  C   UNL     1      32.598 -13.683 -21.520  0.00  0.00    +0.018 C 
ATOM      2  C   UNL     1      33.747 -13.679 -20.514  0.00  0.00    -0.014 C 
ENDROOT
BRANCH   1   5
ATOM      3  O   UNL     1      33.535 -12.741 -23.514  0.00  0.00    -0.277 OA
ATOM      4  N   UNL     1      32.005 -11.407 -22.398  0.00  0.00    -0.272 N 
ATOM      5  C   UNL     1      32.758 -12.579 -22.566  0.00  0.00    +0.206 C 
BRANCH   4   6
ATOM      6  C   UNL     1      32.125 -10.341 -23.353  0.00  0.00    +0.084 C 
ATOM      7  C   UNL     1      31.009  -9.290 -23.203  0.00  0.00    +0.046 C 
ATOM      8  C   UNL     1      33.463  -9.587 -23.235  0.00  0.00    +0.046 C 
ATOM      9  C   UNL     1      31.691  -8.063 -23.721  0.00  0.00    -0.024 C 
ATOM     10  C   UNL     1      33.080  -8.231 -23.741  0.00  0.00    -0.024 C 
ATOM     11  C   UNL     1      31.111  -6.866 -24.109  0.00  0.00    -0.005 C 
ATOM     12  C   UNL     1      33.918  -7.206 -24.147  0.00  0.00    -0.005 C 
ATOM     13  C   UNL     1      31.947  -5.831 -24.532  0.00  0.00    -0.000 C 
ATOM     14  C   UNL     1      33.341  -6.000 -24.550  0.00  0.00    -0.000 C 
ENDBRANCH   4   6
BRANCH   4  15
ATOM     15  C   UNL     1      31.020 -11.191 -21.335  0.00  0.00    +0.204 C 
BRANCH  15  17
ATOM     16  O   UNL     1      32.241  -9.534 -20.086  0.00  0.00    -0.248 OA
ATOM     17  C   UNL     1      31.623 -10.592 -20.091  0.00  0.00    +0.334 C 
BRANCH  17  18
ATOM     18  O   UNL     1      31.416 -11.334 -18.978  0.00  0.00    -0.479 OA
ATOM     19  H   UNL     1      31.789 -11.067 -18.162  0.00  0.00    +0.295 HD
ENDBRANCH  17  18
ENDBRANCH  15  17
ENDBRANCH   4  15
ENDBRANCH   1   5
BRANCH   1  20
ATOM     20  N   UNL     1      32.584 -14.953 -22.243  0.00  0.00    +0.399 N 
ATOM     21  H   UNL     1      32.466 -14.770 -23.240  0.00  0.00    -0.083 HD
ATOM     22  H   UNL     1      31.811 -15.520 -21.894  0.00  0.00    -0.083 HD
BRANCH  20  23
ATOM     23  C   UNL     1      33.827 -15.679 -22.036  0.00  0.00    +0.041 C 
BRANCH  23  25
ATOM     24  O   UNL     1      35.665 -15.970 -23.616  0.00  0.00    -0.252 OA
ATOM     25  C   UNL     1      34.462 -15.900 -23.398  0.00  0.00    +0.297 C 
BRANCH  25  26
ATOM     26  O   UNL     1      33.476 -16.014 -24.339  0.00  0.00    -0.450 OA
BRANCH  26  27
ATOM     27  C   UNL     1      33.871 -15.730 -25.685  0.00  0.00    +0.208 C 
ATOM     28  C   UNL     1      32.851 -14.807 -26.315  0.00  0.00    +0.051 C 
ENDBRANCH  26  27
ENDBRANCH  25  26
ENDBRANCH  23  25
BRANCH  23  29
ATOM     29  C   UNL     1      33.587 -17.034 -21.352  0.00  0.00    -0.006 C 
BRANCH  29  30
ATOM     30  C   UNL     1      34.587 -18.140 -21.718  0.00  0.00    +0.025 C 
BRANCH  30  31
ATOM     31  C   UNL     1      34.406 -19.411 -20.927  0.00  0.00    -0.022 C 
ATOM     32  C   UNL     1      35.520 -20.159 -20.545  0.00  0.00    -0.004 C 
ATOM     33  C   UNL     1      33.125 -19.838 -20.578  0.00  0.00    -0.004 C 
ATOM     34  C   UNL     1      35.352 -21.335 -19.814  0.00  0.00    -0.000 C 
ATOM     35  C   UNL     1      32.958 -21.014 -19.846  0.00  0.00    -0.000 C 
ATOM     36  C   UNL     1      34.072 -21.762 -19.463  0.00  0.00    -0.000 C 
ENDBRANCH  30  31
ENDBRANCH  29  30
ENDBRANCH  23  29
ENDBRANCH  20  23
ENDBRANCH   1  20
TORSDOF 13
ENDMDL
MODEL 5
REMARK VINA RESULT:      -8.7      5.612     12.270
REMARK  Name = 5362116
REMARK  13 active torsions:
REMARK  status: ('A' for Active; 'I' for Inactive)
REMARK    1  A    between atoms: C_1  and  C_5
REMARK    2  A    between atoms: C_1  and  N_20
REMARK    3  A    between atoms: N_4  and  C_6
REMARK    4  A    between atoms: N_4  and  C_15
REMARK    5  A    between atoms: C_15  and  C_17
REMARK    6  A    between atoms: C_17  and  O_18
REMARK    7  A    between atoms: N_20  and  C_23
REMARK    8  A    between atoms: C_23  and  C_25
REMARK    9  A    between atoms: C_23  and  C_29
REMARK   10  A    between atoms: C_25  and  O_26
REMARK   11  A    between atoms: O_26  and  C_27
REMARK   12  A    between atoms: C_29  and  C_30
REMARK   13  A    between atoms: C_30  and  C_31
REMARK                            x       y       z     vdW  Elec       q    Type
REMARK                         _______ _______ _______ _____ _____    ______ ____
ROOT
ATOM      1  C   UNL     1      33.762 -22.145 -18.752  0.00  0.00    +0.018 C 
ATOM      2  C   UNL     1      34.112 -23.398 -19.552  0.00  0.00    -0.014 C 
ENDROOT
BRANCH   1   5
ATOM      3  O   UNL     1      32.215 -20.493 -19.538  0.00  0.00    -0.277 OA
ATOM      4  N   UNL     1      34.261 -20.547 -20.622  0.00  0.00    -0.272 N 
ATOM      5  C   UNL     1      33.339 -20.993 -19.663  0.00  0.00    +0.206 C 
BRANCH   4   6
ATOM      6  C   UNL     1      33.907 -19.469 -21.503  0.00  0.00    +0.084 C 
ATOM      7  C   UNL     1      34.229 -18.089 -20.901  0.00  0.00    +0.046 C 
ATOM      8  C   UNL     1      34.638 -19.544 -22.857  0.00  0.00    +0.046 C 
ATOM      9  C   UNL     1      34.454 -17.276 -22.137  0.00  0.00    -0.024 C 
ATOM     10  C   UNL     1      34.684 -18.099 -23.244  0.00  0.00    -0.024 C 
ATOM     11  C   UNL     1      34.490 -15.896 -22.253  0.00  0.00    -0.005 C 
ATOM     12  C   UNL     1      34.957 -17.561 -24.491  0.00  0.00    -0.005 C 
ATOM     13  C   UNL     1      34.753 -15.343 -23.509  0.00  0.00    -0.000 C 
ATOM     14  C   UNL     1      34.985 -16.170 -24.620  0.00  0.00    -0.000 C 
ENDBRANCH   4   6
BRANCH   4  15
ATOM     15  C   UNL     1      35.627 -21.054 -20.768  0.00  0.00    +0.204 C 
BRANCH  15  17
ATOM     16  O   UNL     1      36.772 -20.493 -18.725  0.00  0.00    -0.248 OA
ATOM     17  C   UNL     1      36.625 -20.300 -19.926  0.00  0.00    +0.334 C 
BRANCH  17  18
ATOM     18  O   UNL     1      37.343 -19.389 -20.624  0.00  0.00    -0.479 OA
ATOM     19  H   UNL     1      38.210 -19.166 -20.349  0.00  0.00    +0.295 HD
ENDBRANCH  17  18
ENDBRANCH  15  17
ENDBRANCH   4  15
ENDBRANCH   1   5
BRANCH   1  20
ATOM     20  N   UNL     1      32.631 -22.427 -17.871  0.00  0.00    +0.399 N 
ATOM     21  H   UNL     1      31.860 -22.802 -18.425  0.00  0.00    -0.083 HD
ATOM     22  H   UNL     1      32.349 -21.560 -17.413  0.00  0.00    -0.083 HD
BRANCH  20  23
ATOM     23  C   UNL     1      33.000 -23.396 -16.850  0.00  0.00    +0.041 C 
BRANCH  23  25
ATOM     24  O   UNL     1      31.779 -24.263 -14.921  0.00  0.00    -0.252 OA
ATOM     25  C   UNL     1      31.799 -23.579 -15.937  0.00  0.00    +0.297 C 
BRANCH  25  26
ATOM     26  O   UNL     1      30.748 -22.853 -16.427  0.00  0.00    -0.450 OA
BRANCH  26  27
ATOM     27  C   UNL     1      29.518 -22.984 -15.707  0.00  0.00    +0.208 C 
ATOM     28  C   UNL     1      28.514 -23.712 -16.573  0.00  0.00    +0.051 C 
ENDBRANCH  26  27
ENDBRANCH  25  26
ENDBRANCH  23  25
BRANCH  23  29
ATOM     29  C   UNL     1      34.208 -22.923 -16.027  0.00  0.00    -0.006 C 
BRANCH  29  30
ATOM     30  C   UNL     1      35.171 -24.032 -15.580  0.00  0.00    +0.025 C 
BRANCH  30  31
ATOM     31  C   UNL     1      35.662 -23.876 -14.163  0.00  0.00    -0.022 C 
ATOM     32  C   UNL     1      34.830 -24.218 -13.096  0.00  0.00    -0.004 C 
ATOM     33  C   UNL     1      36.946 -23.389 -13.919  0.00  0.00    -0.004 C 
ATOM     34  C   UNL     1      35.284 -24.074 -11.784  0.00  0.00    -0.000 C 
ATOM     35  C   UNL     1      37.399 -23.245 -12.608  0.00  0.00    -0.000 C 
ATOM     36  C   UNL     1      36.568 -23.588 -11.540  0.00  0.00    -0.000 C 
ENDBRANCH  30  31
ENDBRANCH  29  30
ENDBRANCH  23  29
ENDBRANCH  20  23
ENDBRANCH   1  20
TORSDOF 13
ENDMDL
MODEL 6
REMARK VINA RESULT:      -8.6      1.431      9.547
REMARK  Name = 5362116
REMARK  13 active torsions:
REMARK  status: ('A' for Active; 'I' for Inactive)
REMARK    1  A    between atoms: C_1  and  C_5
REMARK    2  A    between atoms: C_1  and  N_20
REMARK    3  A    between atoms: N_4  and  C_6
REMARK    4  A    between atoms: N_4  and  C_15
REMARK    5  A    between atoms: C_15  and  C_17
REMARK    6  A    between atoms: C_17  and  O_18
REMARK    7  A    between atoms: N_20  and  C_23
REMARK    8  A    between atoms: C_23  and  C_25
REMARK    9  A    between atoms: C_23  and  C_29
REMARK   10  A    between atoms: C_25  and  O_26
REMARK   11  A    between atoms: O_26  and  C_27
REMARK   12  A    between atoms: C_29  and  C_30
REMARK   13  A    between atoms: C_30  and  C_31
REMARK                            x       y       z     vdW  Elec       q    Type
REMARK                         _______ _______ _______ _____ _____    ______ ____
ROOT
ATOM      1  C   UNL     1      33.741 -12.959 -24.125  0.00  0.00    +0.018 C 
ATOM      2  C   UNL     1      33.413 -12.874 -25.614  0.00  0.00    -0.014 C 
ENDROOT
BRANCH   1   5
ATOM      3  O   UNL     1      32.266 -12.435 -22.311  0.00  0.00    -0.277 OA
ATOM      4  N   UNL     1      32.803 -10.668 -23.711  0.00  0.00    -0.272 N 
ATOM      5  C   UNL     1      32.874 -12.008 -23.300  0.00  0.00    +0.206 C 
BRANCH   4   6
ATOM      6  C   UNL     1      31.998  -9.739 -22.970  0.00  0.00    +0.084 C 
ATOM      7  C   UNL     1      32.768  -9.098 -21.799  0.00  0.00    +0.046 C 
ATOM      8  C   UNL     1      31.473  -8.581 -23.841  0.00  0.00    +0.046 C 
ATOM      9  C   UNL     1      32.063  -7.785 -21.669  0.00  0.00    -0.024 C 
ATOM     10  C   UNL     1      31.330  -7.492 -22.824  0.00  0.00    -0.024 C 
ATOM     11  C   UNL     1      32.110  -6.895 -20.608  0.00  0.00    -0.005 C 
ATOM     12  C   UNL     1      30.628  -6.304 -22.943  0.00  0.00    -0.005 C 
ATOM     13  C   UNL     1      31.396  -5.699 -20.714  0.00  0.00    -0.000 C 
ATOM     14  C   UNL     1      30.661  -5.406 -21.874  0.00  0.00    -0.000 C 
ENDBRANCH   4   6
BRANCH   4  15
ATOM     15  C   UNL     1      33.556 -10.096 -24.829  0.00  0.00    +0.204 C 
BRANCH  15  17
ATOM     16  O   UNL     1      35.155  -8.727 -23.661  0.00  0.00    -0.248 OA
ATOM     17  C   UNL     1      34.941  -9.651 -24.436  0.00  0.00    +0.334 C 
BRANCH  17  18
ATOM     18  O   UNL     1      35.927 -10.370 -25.023  0.00  0.00    -0.479 OA
ATOM     19  H   UNL     1      36.116 -11.236 -24.723  0.00  0.00    +0.295 HD
ENDBRANCH  17  18
ENDBRANCH  15  17
ENDBRANCH   4  15
ENDBRANCH   1   5
BRANCH   1  20
ATOM     20  N   UNL     1      33.468 -14.311 -23.639  0.00  0.00    +0.399 N 
ATOM     21  H   UNL     1      32.661 -14.688 -24.136  0.00  0.00    -0.083 HD
ATOM     22  H   UNL     1      33.279 -14.267 -22.638  0.00  0.00    -0.083 HD
BRANCH  20  23
ATOM     23  C   UNL     1      34.613 -15.180 -23.860  0.00  0.00    +0.041 C 
BRANCH  23  25
ATOM     24  O   UNL     1      33.406 -16.062 -25.791  0.00  0.00    -0.252 OA
ATOM     25  C   UNL     1      34.200 -16.233 -24.875  0.00  0.00    +0.297 C 
BRANCH  25  26
ATOM     26  O   UNL     1      34.862 -17.399 -24.605  0.00  0.00    -0.450 OA
BRANCH  26  27
ATOM     27  C   UNL     1      34.219 -18.594 -25.060  0.00  0.00    +0.208 C 
ATOM     28  C   UNL     1      34.946 -19.793 -24.492  0.00  0.00    +0.051 C 
ENDBRANCH  26  27
ENDBRANCH  25  26
ENDBRANCH  23  25
BRANCH  23  29
ATOM     29  C   UNL     1      35.068 -15.864 -22.562  0.00  0.00    -0.006 C 
BRANCH  29  30
ATOM     30  C   UNL     1      33.965 -16.599 -21.786  0.00  0.00    +0.025 C 
BRANCH  30  31
ATOM     31  C   UNL     1      34.371 -17.968 -21.302  0.00  0.00    -0.022 C 
ATOM     32  C   UNL     1      33.394 -18.906 -20.967  0.00  0.00    -0.004 C 
ATOM     33  C   UNL     1      35.722 -18.295 -21.188  0.00  0.00    -0.004 C 
ATOM     34  C   UNL     1      33.769 -20.173 -20.518  0.00  0.00    -0.000 C 
ATOM     35  C   UNL     1      36.097 -19.562 -20.740  0.00  0.00    -0.000 C 
ATOM     36  C   UNL     1      35.120 -20.501 -20.405  0.00  0.00    -0.000 C 
ENDBRANCH  30  31
ENDBRANCH  29  30
ENDBRANCH  23  29
ENDBRANCH  20  23
ENDBRANCH   1  20
TORSDOF 13
ENDMDL
MODEL 7
REMARK VINA RESULT:      -8.6      2.601      4.654
REMARK  Name = 5362116
REMARK  13 active torsions:
REMARK  status: ('A' for Active; 'I' for Inactive)
REMARK    1  A    between atoms: C_1  and  C_5
REMARK    2  A    between atoms: C_1  and  N_20
REMARK    3  A    between atoms: N_4  and  C_6
REMARK    4  A    between atoms: N_4  and  C_15
REMARK    5  A    between atoms: C_15  and  C_17
REMARK    6  A    between atoms: C_17  and  O_18
REMARK    7  A    between atoms: N_20  and  C_23
REMARK    8  A    between atoms: C_23  and  C_25
REMARK    9  A    between atoms: C_23  and  C_29
REMARK   10  A    between atoms: C_25  and  O_26
REMARK   11  A    between atoms: O_26  and  C_27
REMARK   12  A    between atoms: C_29  and  C_30
REMARK   13  A    between atoms: C_30  and  C_31
REMARK                            x       y       z     vdW  Elec       q    Type
REMARK                         _______ _______ _______ _____ _____    ______ ____
ROOT
ATOM      1  C   UNL     1      33.081 -11.009 -24.063  0.00  0.00    +0.018 C 
ATOM      2  C   UNL     1      34.511 -10.471 -24.066  0.00  0.00    -0.014 C 
ENDROOT
BRANCH   1   5
ATOM      3  O   UNL     1      32.448 -12.519 -22.314  0.00  0.00    -0.277 OA
ATOM      4  N   UNL     1      33.563 -13.472 -24.108  0.00  0.00    -0.272 N 
ATOM      5  C   UNL     1      32.998 -12.390 -23.414  0.00  0.00    +0.206 C 
BRANCH   4   6
ATOM      6  C   UNL     1      33.513 -14.788 -23.536  0.00  0.00    +0.084 C 
ATOM      7  C   UNL     1      34.177 -15.845 -24.438  0.00  0.00    +0.046 C 
ATOM      8  C   UNL     1      34.217 -14.869 -22.168  0.00  0.00    +0.046 C 
ATOM      9  C   UNL     1      34.621 -16.856 -23.428  0.00  0.00    -0.024 C 
ATOM     10  C   UNL     1      34.643 -16.303 -22.142  0.00  0.00    -0.024 C 
ATOM     11  C   UNL     1      35.018 -18.164 -23.649  0.00  0.00    -0.005 C 
ATOM     12  C   UNL     1      35.063 -17.047 -21.052  0.00  0.00    -0.005 C 
ATOM     13  C   UNL     1      35.432 -18.926 -22.554  0.00  0.00    -0.000 C 
ATOM     14  C   UNL     1      35.454 -18.371 -21.264  0.00  0.00    -0.000 C 
ENDBRANCH   4   6
BRANCH   4  15
ATOM     15  C   UNL     1      34.163 -13.388 -25.441  0.00  0.00    +0.204 C 
BRANCH  15  17
ATOM     16  O   UNL     1      33.301 -13.038 -27.662  0.00  0.00    -0.248 OA
ATOM     17  C   UNL     1      33.150 -13.527 -26.549  0.00  0.00    +0.334 C 
BRANCH  17  18
ATOM     18  O   UNL     1      32.057 -14.242 -26.196  0.00  0.00    -0.479 OA
ATOM     19  H   UNL     1      31.667 -14.834 -26.808  0.00  0.00    +0.295 HD
ENDBRANCH  17  18
ENDBRANCH  15  17
ENDBRANCH   4  15
ENDBRANCH   1   5
BRANCH   1  20
ATOM     20  N   UNL     1      32.226 -10.120 -23.278  0.00  0.00    +0.399 N 
ATOM     21  H   UNL     1      31.981 -10.580 -22.401  0.00  0.00    -0.083 HD
ATOM     22  H   UNL     1      31.385  -9.915 -23.818  0.00  0.00    -0.083 HD
BRANCH  20  23
ATOM     23  C   UNL     1      32.910  -8.870 -22.986  0.00  0.00    +0.041 C 
BRANCH  23  25
ATOM     24  O   UNL     1      33.096  -7.561 -20.933  0.00  0.00    -0.252 OA
ATOM     25  C   UNL     1      32.654  -8.538 -21.526  0.00  0.00    +0.297 C 
BRANCH  25  26
ATOM     26  O   UNL     1      31.846  -9.499 -20.983  0.00  0.00    -0.450 OA
BRANCH  26  27
ATOM     27  C   UNL     1      31.920  -9.636 -19.560  0.00  0.00    +0.208 C 
ATOM     28  C   UNL     1      31.406 -11.004 -19.169  0.00  0.00    +0.051 C 
ENDBRANCH  26  27
ENDBRANCH  25  26
ENDBRANCH  23  25
BRANCH  23  29
ATOM     29  C   UNL     1      32.403  -7.723 -23.874  0.00  0.00    -0.006 C 
BRANCH  29  30
ATOM     30  C   UNL     1      33.478  -6.733 -24.345  0.00  0.00    +0.025 C 
BRANCH  30  31
ATOM     31  C   UNL     1      32.929  -5.560 -25.117  0.00  0.00    -0.022 C 
ATOM     32  C   UNL     1      33.472  -5.226 -26.358  0.00  0.00    -0.004 C 
ATOM     33  C   UNL     1      31.878  -4.809 -24.590  0.00  0.00    -0.004 C 
ATOM     34  C   UNL     1      32.965  -4.141 -27.072  0.00  0.00    -0.000 C 
ATOM     35  C   UNL     1      31.370  -3.724 -25.305  0.00  0.00    -0.000 C 
ATOM     36  C   UNL     1      31.913  -3.390 -26.546  0.00  0.00    -0.000 C 
ENDBRANCH  30  31
ENDBRANCH  29  30
ENDBRANCH  23  29
ENDBRANCH  20  23
ENDBRANCH   1  20
TORSDOF 13
ENDMDL
MODEL 8
REMARK VINA RESULT:      -8.4      2.333      4.409
REMARK  Name = 5362116
REMARK  13 active torsions:
REMARK  status: ('A' for Active; 'I' for Inactive)
REMARK    1  A    between atoms: C_1  and  C_5
REMARK    2  A    between atoms: C_1  and  N_20
REMARK    3  A    between atoms: N_4  and  C_6
REMARK    4  A    between atoms: N_4  and  C_15
REMARK    5  A    between atoms: C_15  and  C_17
REMARK    6  A    between atoms: C_17  and  O_18
REMARK    7  A    between atoms: N_20  and  C_23
REMARK    8  A    between atoms: C_23  and  C_25
REMARK    9  A    between atoms: C_23  and  C_29
REMARK   10  A    between atoms: C_25  and  O_26
REMARK   11  A    between atoms: O_26  and  C_27
REMARK   12  A    between atoms: C_29  and  C_30
REMARK   13  A    between atoms: C_30  and  C_31
REMARK                            x       y       z     vdW  Elec       q    Type
REMARK                         _______ _______ _______ _____ _____    ______ ____
ROOT
ATOM      1  C   UNL     1      34.141 -15.188 -22.322  0.00  0.00    +0.018 C 
ATOM      2  C   UNL     1      35.065 -14.351 -21.439  0.00  0.00    -0.014 C 
ENDROOT
BRANCH   1   5
ATOM      3  O   UNL     1      33.314 -16.835 -20.792  0.00  0.00    -0.277 OA
ATOM      4  N   UNL     1      34.668 -17.636 -22.493  0.00  0.00    -0.272 N 
ATOM      5  C   UNL     1      33.999 -16.617 -21.798  0.00  0.00    +0.206 C 
BRANCH   4   6
ATOM      6  C   UNL     1      34.567 -18.993 -22.035  0.00  0.00    +0.084 C 
ATOM      7  C   UNL     1      35.744 -19.396 -21.127  0.00  0.00    +0.046 C 
ATOM      8  C   UNL     1      33.278 -19.256 -21.233  0.00  0.00    +0.046 C 
ATOM      9  C   UNL     1      35.110 -20.450 -20.276  0.00  0.00    -0.024 C 
ATOM     10  C   UNL     1      33.715 -20.372 -20.337  0.00  0.00    -0.024 C 
ATOM     11  C   UNL     1      35.739 -21.387 -19.472  0.00  0.00    -0.005 C 
ATOM     12  C   UNL     1      32.918 -21.227 -19.594  0.00  0.00    -0.005 C 
ATOM     13  C   UNL     1      34.943 -22.262 -18.728  0.00  0.00    -0.000 C 
ATOM     14  C   UNL     1      33.543 -22.182 -18.789  0.00  0.00    -0.000 C 
ENDBRANCH   4   6
BRANCH   4  15
ATOM     15  C   UNL     1      35.434 -17.443 -23.726  0.00  0.00    +0.204 C 
BRANCH  15  17
ATOM     16  O   UNL     1      33.923 -18.655 -25.156  0.00  0.00    -0.248 OA
ATOM     17  C   UNL     1      34.608 -17.657 -24.968  0.00  0.00    +0.334 C 
BRANCH  17  18
ATOM     18  O   UNL     1      34.695 -16.641 -25.858  0.00  0.00    -0.479 OA
ATOM     19  H   UNL     1      34.158 -16.643 -26.625  0.00  0.00    +0.295 HD
ENDBRANCH  17  18
ENDBRANCH  15  17
ENDBRANCH   4  15
ENDBRANCH   1   5
BRANCH   1  20
ATOM     20  N   UNL     1      32.802 -14.601 -22.324  0.00  0.00    +0.399 N 
ATOM     21  H   UNL     1      32.231 -15.071 -21.621  0.00  0.00    -0.083 HD
ATOM     22  H   UNL     1      32.393 -14.722 -23.250  0.00  0.00    -0.083 HD
BRANCH  20  23
ATOM     23  C   UNL     1      32.860 -13.180 -22.020  0.00  0.00    +0.041 C 
BRANCH  23  25
ATOM     24  O   UNL     1      32.057 -13.540 -19.742  0.00  0.00    -0.252 OA
ATOM     25  C   UNL     1      31.981 -12.935 -20.804  0.00  0.00    +0.297 C 
BRANCH  25  26
ATOM     26  O   UNL     1      31.099 -11.928 -21.085  0.00  0.00    -0.450 OA
BRANCH  26  27
ATOM     27  C   UNL     1      30.844 -11.015 -20.012  0.00  0.00    +0.208 C 
ATOM     28  C   UNL     1      31.944  -9.977 -19.976  0.00  0.00    +0.051 C 
ENDBRANCH  26  27
ENDBRANCH  25  26
ENDBRANCH  23  25
BRANCH  23  29
ATOM     29  C   UNL     1      32.364 -12.325 -23.196  0.00  0.00    -0.006 C 
BRANCH  29  30
ATOM     30  C   UNL     1      33.168 -11.045 -23.462  0.00  0.00    +0.025 C 
BRANCH  30  31
ATOM     31  C   UNL     1      33.960 -11.079 -24.744  0.00  0.00    -0.022 C 
ATOM     32  C   UNL     1      33.651 -12.017 -25.729  0.00  0.00    -0.004 C 
ATOM     33  C   UNL     1      35.003 -10.174 -24.944  0.00  0.00    -0.004 C 
ATOM     34  C   UNL     1      34.384 -12.050 -26.916  0.00  0.00    -0.000 C 
ATOM     35  C   UNL     1      35.735 -10.206 -26.131  0.00  0.00    -0.000 C 
ATOM     36  C   UNL     1      35.426 -11.144 -27.117  0.00  0.00    -0.000 C 
ENDBRANCH  30  31
ENDBRANCH  29  30
ENDBRANCH  23  29
ENDBRANCH  20  23
ENDBRANCH   1  20
TORSDOF 13
ENDMDL
MODEL 9
REMARK VINA RESULT:      -8.3      1.958      9.641
REMARK  Name = 5362116
REMARK  13 active torsions:
REMARK  status: ('A' for Active; 'I' for Inactive)
REMARK    1  A    between atoms: C_1  and  C_5
REMARK    2  A    between atoms: C_1  and  N_20
REMARK    3  A    between atoms: N_4  and  C_6
REMARK    4  A    between atoms: N_4  and  C_15
REMARK    5  A    between atoms: C_15  and  C_17
REMARK    6  A    between atoms: C_17  and  O_18
REMARK    7  A    between atoms: N_20  and  C_23
REMARK    8  A    between atoms: C_23  and  C_25
REMARK    9  A    between atoms: C_23  and  C_29
REMARK   10  A    between atoms: C_25  and  O_26
REMARK   11  A    between atoms: O_26  and  C_27
REMARK   12  A    between atoms: C_29  and  C_30
REMARK   13  A    between atoms: C_30  and  C_31
REMARK                            x       y       z     vdW  Elec       q    Type
REMARK                         _______ _______ _______ _____ _____    ______ ____
ROOT
ATOM      1  C   UNL     1      31.999 -12.728 -21.741  0.00  0.00    +0.018 C 
ATOM      2  C   UNL     1      32.961 -13.154 -20.634  0.00  0.00    -0.014 C 
ENDROOT
BRANCH   1   5
ATOM      3  O   UNL     1      33.141 -11.359 -23.342  0.00  0.00    -0.277 OA
ATOM      4  N   UNL     1      31.903 -10.220 -21.749  0.00  0.00    -0.272 N 
ATOM      5  C   UNL     1      32.400 -11.385 -22.352  0.00  0.00    +0.206 C 
BRANCH   4   6
ATOM      6  C   UNL     1      32.255  -8.935 -22.286  0.00  0.00    +0.084 C 
ATOM      7  C   UNL     1      31.547  -8.643 -23.622  0.00  0.00    +0.046 C 
ATOM      8  C   UNL     1      31.902  -7.776 -21.334  0.00  0.00    +0.046 C 
ATOM      9  C   UNL     1      31.483  -7.148 -23.599  0.00  0.00    -0.024 C 
ATOM     10  C   UNL     1      31.684  -6.657 -22.304  0.00  0.00    -0.024 C 
ATOM     11  C   UNL     1      31.221  -6.291 -24.655  0.00  0.00    -0.005 C 
ATOM     12  C   UNL     1      31.628  -5.299 -22.038  0.00  0.00    -0.005 C 
ATOM     13  C   UNL     1      31.173  -4.918 -24.398  0.00  0.00    -0.000 C 
ATOM     14  C   UNL     1      31.375  -4.426 -23.099  0.00  0.00    -0.000 C 
ENDBRANCH   4   6
BRANCH   4  15
ATOM     15  C   UNL     1      30.968 -10.195 -20.622  0.00  0.00    +0.204 C 
BRANCH  15  17
ATOM     16  O   UNL     1      31.254 -11.145 -18.429  0.00  0.00    -0.248 OA
ATOM     17  C   UNL     1      31.651 -10.370 -19.290  0.00  0.00    +0.334 C 
BRANCH  17  18
ATOM     18  O   UNL     1      32.746  -9.589 -19.137  0.00  0.00    -0.479 OA
ATOM     19  H   UNL     1      32.794  -8.986 -18.421  0.00  0.00    +0.295 HD
ENDBRANCH  17  18
ENDBRANCH  15  17
ENDBRANCH   4  15
ENDBRANCH   1   5
BRANCH   1  20
ATOM     20  N   UNL     1      32.030 -13.712 -22.822  0.00  0.00    +0.399 N 
ATOM     21  H   UNL     1      31.946 -13.229 -23.716  0.00  0.00    -0.083 HD
ATOM     22  H   UNL     1      31.253 -14.361 -22.696  0.00  0.00    -0.083 HD
BRANCH  20  23
ATOM     23  C   UNL     1      33.274 -14.464 -22.801  0.00  0.00    +0.041 C 
BRANCH  23  25
ATOM     24  O   UNL     1      33.143 -14.281 -25.232  0.00  0.00    -0.252 OA
ATOM     25  C   UNL     1      33.626 -14.809 -24.238  0.00  0.00    +0.297 C 
BRANCH  25  26
ATOM     26  O   UNL     1      34.572 -15.796 -24.243  0.00  0.00    -0.450 OA
BRANCH  26  27
ATOM     27  C   UNL     1      34.461 -16.753 -25.302  0.00  0.00    +0.208 C 
ATOM     28  C   UNL     1      34.633 -18.143 -24.731  0.00  0.00    +0.051 C 
ENDBRANCH  26  27
ENDBRANCH  25  26
ENDBRANCH  23  25
BRANCH  23  29
ATOM     29  C   UNL     1      33.146 -15.754 -21.976  0.00  0.00    -0.006 C 
BRANCH  29  30
ATOM     30  C   UNL     1      34.412 -16.176 -21.217  0.00  0.00    +0.025 C 
BRANCH  30  31
ATOM     31  C   UNL     1      34.561 -17.668 -21.065  0.00  0.00    -0.022 C 
ATOM     32  C   UNL     1      35.830 -18.247 -21.078  0.00  0.00    -0.004 C 
ATOM     33  C   UNL     1      33.430 -18.470 -20.912  0.00  0.00    -0.004 C 
ATOM     34  C   UNL     1      35.969 -19.629 -20.938  0.00  0.00    -0.000 C 
ATOM     35  C   UNL     1      33.568 -19.851 -20.772  0.00  0.00    -0.000 C 
ATOM     36  C   UNL     1      34.838 -20.431 -20.784  0.00  0.00    -0.000 C 
ENDBRANCH  30  31
ENDBRANCH  29  30
ENDBRANCH  23  29
ENDBRANCH  20  23
ENDBRANCH   1  20
TORSDOF 13
ENDMDL
