MODEL 1
REMARK VINA RESULT:     -12.5      0.000      0.000
REMARK  Name = 448889
REMARK  5 active torsions:
REMARK  status: ('A' for Active; 'I' for Inactive)
REMARK    1  A    between atoms: C_1  and  N_2
REMARK    2  A    between atoms: C_1  and  C_16
REMARK    3  A    between atoms: C_6  and  C_10
REMARK    4  A    between atoms: C_16  and  C_17
REMARK    5  A    between atoms: C_17  and  C_21
REMARK                            x       y       z     vdW  Elec       q    Type
REMARK                         _______ _______ _______ _____ _____    ______ ____
ROOT
ATOM      1  C   UNL     1      34.519 -15.946 -24.521  0.00  0.00    -0.076 C 
ENDROOT
BRANCH   1   2
ATOM      2  N   UNL     1      34.281 -16.978 -23.515  0.00  0.00    +0.390 N 
ATOM      3  C   UNL     1      34.944 -16.647 -22.250  0.00  0.00    -0.072 C 
ATOM      4  C   UNL     1      34.540 -17.660 -21.168  0.00  0.00    +0.003 C 
ATOM      5  C   UNL     1      34.721 -18.294 -24.004  0.00  0.00    -0.051 C 
ATOM      6  C   UNL     1      34.648 -19.096 -21.632  0.00  0.00    -0.031 C 
ATOM      7  C   UNL     1      34.733 -19.367 -22.949  0.00  0.00    -0.053 C 
ATOM      8  H   UNL     1      33.276 -17.020 -23.341  0.00  0.00    -0.079 HD
BRANCH   6  10
ATOM      9  F   UNL     1      34.658 -23.155 -17.753  0.00  0.00    -0.204 F 
ATOM     10  C   UNL     1      34.650 -20.168 -20.609  0.00  0.00    -0.004 C 
ATOM     11  C   UNL     1      33.445 -20.722 -20.171  0.00  0.00    +0.002 C 
ATOM     12  C   UNL     1      35.857 -20.627 -20.079  0.00  0.00    +0.002 C 
ATOM     13  C   UNL     1      33.447 -21.731 -19.208  0.00  0.00    +0.030 C 
ATOM     14  C   UNL     1      35.859 -21.636 -19.115  0.00  0.00    +0.030 C 
ATOM     15  C   UNL     1      34.655 -22.188 -18.679  0.00  0.00    +0.140 C 
ENDBRANCH   6  10
ENDBRANCH   1   2
BRANCH   1  16
ATOM     16  C   UNL     1      34.420 -14.556 -23.886  0.00  0.00    -0.014 C 
BRANCH  16  17
ATOM     17  C   UNL     1      32.981 -14.097 -23.710  0.00  0.00    +0.074 C 
BRANCH  17  21
ATOM     18  O   UNL     1      31.198 -10.423 -21.387  0.00  0.00    -0.209 OA
ATOM     19  N   UNL     1      33.822 -11.821 -24.077  0.00  0.00    -0.290 N 
ATOM     20  N   UNL     1      32.063 -12.219 -22.518  0.00  0.00    -0.322 NA
ATOM     21  C   UNL     1      32.934 -12.622 -23.398  0.00  0.00    +0.173 C 
ATOM     22  C   UNL     1      33.823 -10.447 -23.828  0.00  0.00    +0.058 C 
ATOM     23  C   UNL     1      32.919  -9.926 -22.893  0.00  0.00    +0.108 C 
ATOM     24  C   UNL     1      34.702  -9.581 -24.485  0.00  0.00    -0.008 C 
ATOM     25  C   UNL     1      31.994 -10.873 -22.205  0.00  0.00    +0.207 C 
ATOM     26  C   UNL     1      32.889  -8.557 -22.614  0.00  0.00    +0.014 C 
ATOM     27  C   UNL     1      34.675  -8.213 -24.209  0.00  0.00    -0.003 C 
ATOM     28  C   UNL     1      33.770  -7.703 -23.277  0.00  0.00    +0.001 C 
ATOM     29  C   UNL     1      35.686 -10.083 -25.491  0.00  0.00    +0.032 C 
ATOM     30  H   UNL     1      34.447 -12.210 -24.729  0.00  0.00    +0.154 HD
ENDBRANCH  17  21
ENDBRANCH  16  17
ENDBRANCH   1  16
TORSDOF 5
ENDMDL
MODEL 2
REMARK VINA RESULT:     -12.3      1.424      2.370
REMARK  Name = 448889
REMARK  5 active torsions:
REMARK  status: ('A' for Active; 'I' for Inactive)
REMARK    1  A    between atoms: C_1  and  N_2
REMARK    2  A    between atoms: C_1  and  C_16
REMARK    3  A    between atoms: C_6  and  C_10
REMARK    4  A    between atoms: C_16  and  C_17
REMARK    5  A    between atoms: C_17  and  C_21
REMARK                            x       y       z     vdW  Elec       q    Type
REMARK                         _______ _______ _______ _____ _____    ______ ____
ROOT
ATOM      1  C   UNL     1      34.446 -15.388 -24.790  0.00  0.00    -0.076 C 
ENDROOT
BRANCH   1   2
ATOM      2  N   UNL     1      34.199 -16.442 -23.810  0.00  0.00    +0.390 N 
ATOM      3  C   UNL     1      34.916 -16.180 -22.558  0.00  0.00    -0.072 C 
ATOM      4  C   UNL     1      34.506 -17.211 -21.496  0.00  0.00    +0.003 C 
ATOM      5  C   UNL     1      34.569 -17.758 -24.355  0.00  0.00    -0.051 C 
ATOM      6  C   UNL     1      34.540 -18.634 -22.008  0.00  0.00    -0.031 C 
ATOM      7  C   UNL     1      34.571 -18.865 -23.335  0.00  0.00    -0.053 C 
ATOM      8  H   UNL     1      33.200 -16.450 -23.604  0.00  0.00    -0.079 HD
BRANCH   6  10
ATOM      9  F   UNL     1      34.502 -22.819 -18.266  0.00  0.00    -0.204 F 
ATOM     10  C   UNL     1      34.530 -19.738 -21.020  0.00  0.00    -0.004 C 
ATOM     11  C   UNL     1      35.733 -20.287 -20.570  0.00  0.00    +0.002 C 
ATOM     12  C   UNL     1      33.318 -20.233 -20.535  0.00  0.00    +0.002 C 
ATOM     13  C   UNL     1      35.724 -21.326 -19.639  0.00  0.00    +0.030 C 
ATOM     14  C   UNL     1      33.309 -21.273 -19.605  0.00  0.00    +0.030 C 
ATOM     15  C   UNL     1      34.511 -21.820 -19.158  0.00  0.00    +0.140 C 
ENDBRANCH   6  10
ENDBRANCH   1   2
BRANCH   1  16
ATOM     16  C   UNL     1      33.178 -14.558 -25.005  0.00  0.00    -0.014 C 
BRANCH  16  17
ATOM     17  C   UNL     1      32.815 -13.720 -23.790  0.00  0.00    +0.074 C 
BRANCH  17  21
ATOM     18  O   UNL     1      35.490 -10.516 -25.946  0.00  0.00    -0.209 OA
ATOM     19  N   UNL     1      32.831 -11.374 -23.072  0.00  0.00    -0.290 N 
ATOM     20  N   UNL     1      34.188 -12.084 -24.898  0.00  0.00    -0.322 NA
ATOM     21  C   UNL     1      33.325 -12.309 -23.950  0.00  0.00    +0.173 C 
ATOM     22  C   UNL     1      33.267 -10.051 -23.173  0.00  0.00    +0.058 C 
ATOM     23  C   UNL     1      34.195  -9.718 -24.168  0.00  0.00    +0.108 C 
ATOM     24  C   UNL     1      32.800  -9.054 -22.312  0.00  0.00    -0.008 C 
ATOM     25  C   UNL     1      34.675 -10.801 -25.075  0.00  0.00    +0.207 C 
ATOM     26  C   UNL     1      34.656  -8.406 -24.304  0.00  0.00    +0.014 C 
ATOM     27  C   UNL     1      33.258  -7.742 -22.445  0.00  0.00    -0.003 C 
ATOM     28  C   UNL     1      34.184  -7.420 -23.437  0.00  0.00    +0.001 C 
ATOM     29  C   UNL     1      31.809  -9.355 -21.234  0.00  0.00    +0.032 C 
ATOM     30  H   UNL     1      32.179 -11.633 -22.382  0.00  0.00    +0.154 HD
ENDBRANCH  17  21
ENDBRANCH  16  17
ENDBRANCH   1  16
TORSDOF 5
ENDMDL
MODEL 3
REMARK VINA RESULT:     -12.3      1.679      2.633
REMARK  Name = 448889
REMARK  5 active torsions:
REMARK  status: ('A' for Active; 'I' for Inactive)
REMARK    1  A    between atoms: C_1  and  N_2
REMARK    2  A    between atoms: C_1  and  C_16
REMARK    3  A    between atoms: C_6  and  C_10
REMARK    4  A    between atoms: C_16  and  C_17
REMARK    5  A    between atoms: C_17  and  C_21
REMARK                            x       y       z     vdW  Elec       q    Type
REMARK                         _______ _______ _______ _____ _____    ______ ____
ROOT
ATOM      1  C   UNL     1      34.759 -16.064 -24.885  0.00  0.00    -0.076 C 
ENDROOT
BRANCH   1   2
ATOM      2  N   UNL     1      34.483 -17.013 -23.809  0.00  0.00    +0.390 N 
ATOM      3  C   UNL     1      35.299 -16.722 -22.626  0.00  0.00    -0.072 C 
ATOM      4  C   UNL     1      34.868 -17.627 -21.461  0.00  0.00    +0.003 C 
ATOM      5  C   UNL     1      34.702 -18.395 -24.265  0.00  0.00    -0.051 C 
ATOM      6  C   UNL     1      34.745 -19.081 -21.856  0.00  0.00    -0.031 C 
ATOM      7  C   UNL     1      34.672 -19.416 -23.159  0.00  0.00    -0.053 C 
ATOM      8  H   UNL     1      33.502 -16.913 -23.548  0.00  0.00    -0.079 HD
BRANCH   6  10
ATOM      9  F   UNL     1      34.580 -22.946 -17.786  0.00  0.00    -0.204 F 
ATOM     10  C   UNL     1      34.702 -20.101 -20.781  0.00  0.00    -0.004 C 
ATOM     11  C   UNL     1      35.888 -20.577 -20.218  0.00  0.00    +0.002 C 
ATOM     12  C   UNL     1      33.475 -20.590 -20.329  0.00  0.00    +0.002 C 
ATOM     13  C   UNL     1      35.848 -21.536 -19.206  0.00  0.00    +0.030 C 
ATOM     14  C   UNL     1      33.434 -21.549 -19.317  0.00  0.00    +0.030 C 
ATOM     15  C   UNL     1      34.620 -22.023 -18.756  0.00  0.00    +0.140 C 
ENDBRANCH   6  10
ENDBRANCH   1   2
BRANCH   1  16
ATOM     16  C   UNL     1      33.452 -15.464 -25.409  0.00  0.00    -0.014 C 
BRANCH  16  17
ATOM     17  C   UNL     1      33.415 -13.949 -25.285  0.00  0.00    +0.074 C 
BRANCH  17  21
ATOM     18  O   UNL     1      32.333 -14.974 -20.830  0.00  0.00    -0.209 OA
ATOM     19  N   UNL     1      32.708 -12.208 -23.707  0.00  0.00    -0.290 N 
ATOM     20  N   UNL     1      32.862 -14.481 -23.004  0.00  0.00    -0.322 NA
ATOM     21  C   UNL     1      32.969 -13.544 -23.902  0.00  0.00    +0.173 C 
ATOM     22  C   UNL     1      32.292 -11.775 -22.447  0.00  0.00    +0.058 C 
ATOM     23  C   UNL     1      32.152 -12.717 -21.419  0.00  0.00    +0.108 C 
ATOM     24  C   UNL     1      32.014 -10.430 -22.185  0.00  0.00    -0.008 C 
ATOM     25  C   UNL     1      32.457 -14.145 -21.724  0.00  0.00    +0.207 C 
ATOM     26  C   UNL     1      31.739 -12.324 -20.142  0.00  0.00    +0.014 C 
ATOM     27  C   UNL     1      31.601 -10.035 -20.911  0.00  0.00    -0.003 C 
ATOM     28  C   UNL     1      31.463 -10.980 -19.894  0.00  0.00    +0.001 C 
ATOM     29  C   UNL     1      32.148  -9.386 -23.245  0.00  0.00    +0.032 C 
ATOM     30  H   UNL     1      32.814 -11.566 -24.445  0.00  0.00    +0.154 HD
ENDBRANCH  17  21
ENDBRANCH  16  17
ENDBRANCH   1  16
TORSDOF 5
ENDMDL
MODEL 4
REMARK VINA RESULT:     -12.3      1.028      1.641
REMARK  Name = 448889
REMARK  5 active torsions:
REMARK  status: ('A' for Active; 'I' for Inactive)
REMARK    1  A    between atoms: C_1  and  N_2
REMARK    2  A    between atoms: C_1  and  C_16
REMARK    3  A    between atoms: C_6  and  C_10
REMARK    4  A    between atoms: C_16  and  C_17
REMARK    5  A    between atoms: C_17  and  C_21
REMARK                            x       y       z     vdW  Elec       q    Type
REMARK                         _______ _______ _______ _____ _____    ______ ____
ROOT
ATOM      1  C   UNL     1      34.209 -15.200 -24.624  0.00  0.00    -0.076 C 
ENDROOT
BRANCH   1   2
ATOM      2  N   UNL     1      34.027 -16.321 -23.704  0.00  0.00    +0.390 N 
ATOM      3  C   UNL     1      34.562 -16.006 -22.376  0.00  0.00    -0.072 C 
ATOM      4  C   UNL     1      34.208 -17.132 -21.392  0.00  0.00    +0.003 C 
ATOM      5  C   UNL     1      34.652 -17.540 -24.240  0.00  0.00    -0.051 C 
ATOM      6  C   UNL     1      34.516 -18.510 -21.935  0.00  0.00    -0.031 C 
ATOM      7  C   UNL     1      34.720 -18.677 -23.256  0.00  0.00    -0.053 C 
ATOM      8  H   UNL     1      33.026 -16.488 -23.609  0.00  0.00    -0.079 HD
BRANCH   6  10
ATOM      9  F   UNL     1      34.740 -22.808 -18.330  0.00  0.00    -0.204 F 
ATOM     10  C   UNL     1      34.576 -19.644 -20.983  0.00  0.00    -0.004 C 
ATOM     11  C   UNL     1      35.810 -20.146 -20.566  0.00  0.00    +0.002 C 
ATOM     12  C   UNL     1      33.396 -20.215 -20.499  0.00  0.00    +0.002 C 
ATOM     13  C   UNL     1      35.867 -21.214 -19.670  0.00  0.00    +0.030 C 
ATOM     14  C   UNL     1      33.452 -21.282 -19.602  0.00  0.00    +0.030 C 
ATOM     15  C   UNL     1      34.687 -21.782 -19.189  0.00  0.00    +0.140 C 
ENDBRANCH   6  10
ENDBRANCH   1   2
BRANCH   1  16
ATOM     16  C   UNL     1      33.248 -14.062 -24.266  0.00  0.00    -0.014 C 
BRANCH  16  17
ATOM     17  C   UNL     1      33.820 -12.692 -24.594  0.00  0.00    +0.074 C 
BRANCH  17  21
ATOM     18  O   UNL     1      31.008 -11.402 -21.059  0.00  0.00    -0.209 OA
ATOM     19  N   UNL     1      33.694 -10.358 -23.846  0.00  0.00    -0.290 N 
ATOM     20  N   UNL     1      32.377 -12.037 -22.783  0.00  0.00    -0.322 NA
ATOM     21  C   UNL     1      33.247 -11.647 -23.669  0.00  0.00    +0.173 C 
ATOM     22  C   UNL     1      33.198  -9.349 -23.019  0.00  0.00    +0.058 C 
ATOM     23  C   UNL     1      32.258  -9.681 -22.033  0.00  0.00    +0.108 C 
ATOM     24  C   UNL     1      33.615  -8.021 -23.147  0.00  0.00    -0.008 C 
ATOM     25  C   UNL     1      31.832 -11.105 -21.917  0.00  0.00    +0.207 C 
ATOM     26  C   UNL     1      31.738  -8.700 -21.184  0.00  0.00    +0.014 C 
ATOM     27  C   UNL     1      33.097  -7.039 -22.300  0.00  0.00    -0.003 C 
ATOM     28  C   UNL     1      32.161  -7.378 -21.323  0.00  0.00    +0.001 C 
ATOM     29  C   UNL     1      34.615  -7.614 -24.180  0.00  0.00    +0.032 C 
ATOM     30  H   UNL     1      34.355 -10.151 -24.545  0.00  0.00    +0.154 HD
ENDBRANCH  17  21
ENDBRANCH  16  17
ENDBRANCH   1  16
TORSDOF 5
ENDMDL
MODEL 5
REMARK VINA RESULT:     -11.9      5.422     11.626
REMARK  Name = 448889
REMARK  5 active torsions:
REMARK  status: ('A' for Active; 'I' for Inactive)
REMARK    1  A    between atoms: C_1  and  N_2
REMARK    2  A    between atoms: C_1  and  C_16
REMARK    3  A    between atoms: C_6  and  C_10
REMARK    4  A    between atoms: C_16  and  C_17
REMARK    5  A    between atoms: C_17  and  C_21
REMARK                            x       y       z     vdW  Elec       q    Type
REMARK                         _______ _______ _______ _____ _____    ______ ____
ROOT
ATOM      1  C   UNL     1      35.774 -21.263 -20.243  0.00  0.00    -0.076 C 
ENDROOT
BRANCH   1   2
ATOM      2  N   UNL     1      35.278 -19.895 -20.375  0.00  0.00    +0.390 N 
ATOM      3  C   UNL     1      33.997 -19.864 -21.088  0.00  0.00    -0.072 C 
ATOM      4  C   UNL     1      33.422 -18.439 -21.064  0.00  0.00    +0.003 C 
ATOM      5  C   UNL     1      36.270 -19.045 -21.053  0.00  0.00    -0.051 C 
ATOM      6  C   UNL     1      34.436 -17.386 -21.451  0.00  0.00    -0.031 C 
ATOM      7  C   UNL     1      35.749 -17.688 -21.442  0.00  0.00    -0.053 C 
ATOM      8  H   UNL     1      35.125 -19.525 -19.437  0.00  0.00    -0.079 HD
BRANCH   6  10
ATOM      9  F   UNL     1      32.572 -12.285 -22.877  0.00  0.00    -0.204 F 
ATOM     10  C   UNL     1      33.944 -16.039 -21.827  0.00  0.00    -0.004 C 
ATOM     11  C   UNL     1      32.887 -15.458 -21.124  0.00  0.00    +0.002 C 
ATOM     12  C   UNL     1      34.536 -15.348 -22.886  0.00  0.00    +0.002 C 
ATOM     13  C   UNL     1      32.424 -14.190 -21.477  0.00  0.00    +0.030 C 
ATOM     14  C   UNL     1      34.073 -14.080 -23.239  0.00  0.00    +0.030 C 
ATOM     15  C   UNL     1      33.017 -13.502 -22.536  0.00  0.00    +0.140 C 
ENDBRANCH   6  10
ENDBRANCH   1   2
BRANCH   1  16
ATOM     16  C   UNL     1      35.338 -21.856 -18.900  0.00  0.00    -0.014 C 
BRANCH  16  17
ATOM     17  C   UNL     1      33.945 -22.463 -18.956  0.00  0.00    +0.074 C 
BRANCH  17  21
ATOM     18  O   UNL     1      34.928 -24.222 -14.711  0.00  0.00    -0.209 OA
ATOM     19  N   UNL     1      32.178 -22.889 -17.307  0.00  0.00    -0.290 N 
ATOM     20  N   UNL     1      34.455 -23.364 -16.784  0.00  0.00    -0.322 NA
ATOM     21  C   UNL     1      33.523 -22.941 -17.588  0.00  0.00    +0.173 C 
ATOM     22  C   UNL     1      31.729 -23.318 -16.057  0.00  0.00    +0.058 C 
ATOM     23  C   UNL     1      32.666 -23.789 -15.126  0.00  0.00    +0.108 C 
ATOM     24  C   UNL     1      30.376 -23.288 -15.710  0.00  0.00    -0.008 C 
ATOM     25  C   UNL     1      34.104 -23.808 -15.521  0.00  0.00    +0.207 C 
ATOM     26  C   UNL     1      32.258 -24.226 -13.862  0.00  0.00    +0.014 C 
ATOM     27  C   UNL     1      29.965 -23.725 -14.449  0.00  0.00    -0.003 C 
ATOM     28  C   UNL     1      30.904 -24.193 -13.529  0.00  0.00    +0.001 C 
ATOM     29  C   UNL     1      29.337 -22.796 -16.665  0.00  0.00    +0.032 C 
ATOM     30  H   UNL     1      31.541 -22.554 -17.978  0.00  0.00    +0.154 HD
ENDBRANCH  17  21
ENDBRANCH  16  17
ENDBRANCH   1  16
TORSDOF 5
ENDMDL
MODEL 6
REMARK VINA RESULT:     -11.8      1.736      2.853
REMARK  Name = 448889
REMARK  5 active torsions:
REMARK  status: ('A' for Active; 'I' for Inactive)
REMARK    1  A    between atoms: C_1  and  N_2
REMARK    2  A    between atoms: C_1  and  C_16
REMARK    3  A    between atoms: C_6  and  C_10
REMARK    4  A    between atoms: C_16  and  C_17
REMARK    5  A    between atoms: C_17  and  C_21
REMARK                            x       y       z     vdW  Elec       q    Type
REMARK                         _______ _______ _______ _____ _____    ______ ____
ROOT
ATOM      1  C   UNL     1      33.689 -14.405 -24.878  0.00  0.00    -0.076 C 
ENDROOT
BRANCH   1   2
ATOM      2  N   UNL     1      33.755 -15.562 -23.989  0.00  0.00    +0.390 N 
ATOM      3  C   UNL     1      34.361 -15.207 -22.702  0.00  0.00    -0.072 C 
ATOM      4  C   UNL     1      34.263 -16.396 -21.734  0.00  0.00    +0.003 C 
ATOM      5  C   UNL     1      34.492 -16.666 -24.624  0.00  0.00    -0.051 C 
ATOM      6  C   UNL     1      34.710 -17.701 -22.353  0.00  0.00    -0.031 C 
ATOM      7  C   UNL     1      34.812 -17.804 -23.692  0.00  0.00    -0.053 C 
ATOM      8  H   UNL     1      32.800 -15.875 -23.811  0.00  0.00    -0.079 HD
BRANCH   6  10
ATOM      9  F   UNL     1      35.880 -22.006 -18.944  0.00  0.00    -0.204 F 
ATOM     10  C   UNL     1      35.018 -18.838 -21.454  0.00  0.00    -0.004 C 
ATOM     11  C   UNL     1      33.991 -19.659 -20.983  0.00  0.00    +0.002 C 
ATOM     12  C   UNL     1      36.338 -19.092 -21.074  0.00  0.00    +0.002 C 
ATOM     13  C   UNL     1      34.281 -20.729 -20.137  0.00  0.00    +0.030 C 
ATOM     14  C   UNL     1      36.628 -20.162 -20.227  0.00  0.00    +0.030 C 
ATOM     15  C   UNL     1      35.600 -20.980 -19.758  0.00  0.00    +0.140 C 
ENDBRANCH   6  10
ENDBRANCH   1   2
BRANCH   1  16
ATOM     16  C   UNL     1      33.560 -13.117 -24.060  0.00  0.00    -0.014 C 
BRANCH  16  17
ATOM     17  C   UNL     1      33.864 -11.873 -24.880  0.00  0.00    +0.074 C 
BRANCH  17  21
ATOM     18  O   UNL     1      34.825  -7.375 -23.925  0.00  0.00    -0.209 OA
ATOM     19  N   UNL     1      32.871 -10.735 -22.946  0.00  0.00    -0.290 N 
ATOM     20  N   UNL     1      34.361  -9.569 -24.396  0.00  0.00    -0.322 NA
ATOM     21  C   UNL     1      33.704 -10.633 -24.035  0.00  0.00    +0.173 C 
ATOM     22  C   UNL     1      32.684  -9.619 -22.127  0.00  0.00    +0.058 C 
ATOM     23  C   UNL     1      33.352  -8.428 -22.443  0.00  0.00    +0.108 C 
ATOM     24  C   UNL     1      31.849  -9.659 -21.007  0.00  0.00    -0.008 C 
ATOM     25  C   UNL     1      34.236  -8.413 -23.645  0.00  0.00    +0.207 C 
ATOM     26  C   UNL     1      33.191  -7.288 -21.651  0.00  0.00    +0.014 C 
ATOM     27  C   UNL     1      31.687  -8.522 -20.214  0.00  0.00    -0.003 C 
ATOM     28  C   UNL     1      32.357  -7.341 -20.534  0.00  0.00    +0.001 C 
ATOM     29  C   UNL     1      31.113 -10.903 -20.627  0.00  0.00    +0.032 C 
ATOM     30  H   UNL     1      32.413 -11.583 -22.746  0.00  0.00    +0.154 HD
ENDBRANCH  17  21
ENDBRANCH  16  17
ENDBRANCH   1  16
TORSDOF 5
ENDMDL
MODEL 7
REMARK VINA RESULT:     -11.8      5.058     11.401
REMARK  Name = 448889
REMARK  5 active torsions:
REMARK  status: ('A' for Active; 'I' for Inactive)
REMARK    1  A    between atoms: C_1  and  N_2
REMARK    2  A    between atoms: C_1  and  C_16
REMARK    3  A    between atoms: C_6  and  C_10
REMARK    4  A    between atoms: C_16  and  C_17
REMARK    5  A    between atoms: C_17  and  C_21
REMARK                            x       y       z     vdW  Elec       q    Type
REMARK                         _______ _______ _______ _____ _____    ______ ____
ROOT
ATOM      1  C   UNL     1      35.348 -20.341 -20.909  0.00  0.00    -0.076 C 
ENDROOT
BRANCH   1   2
ATOM      2  N   UNL     1      35.272 -19.097 -21.671  0.00  0.00    +0.390 N 
ATOM      3  C   UNL     1      34.296 -18.175 -21.082  0.00  0.00    -0.072 C 
ATOM      4  C   UNL     1      34.359 -16.819 -21.802  0.00  0.00    +0.003 C 
ATOM      5  C   UNL     1      34.945 -19.368 -23.080  0.00  0.00    -0.051 C 
ATOM      6  C   UNL     1      34.342 -16.947 -23.308  0.00  0.00    -0.031 C 
ATOM      7  C   UNL     1      34.614 -18.137 -23.880  0.00  0.00    -0.053 C 
ATOM      8  H   UNL     1      36.188 -18.650 -21.634  0.00  0.00    -0.079 HD
BRANCH   6  10
ATOM      9  F   UNL     1      33.158 -12.384 -26.358  0.00  0.00    -0.204 F 
ATOM     10  C   UNL     1      34.029 -15.743 -24.114  0.00  0.00    -0.004 C 
ATOM     11  C   UNL     1      33.697 -15.870 -25.464  0.00  0.00    +0.002 C 
ATOM     12  C   UNL     1      34.064 -14.478 -23.524  0.00  0.00    +0.002 C 
ATOM     13  C   UNL     1      33.402 -14.736 -26.222  0.00  0.00    +0.030 C 
ATOM     14  C   UNL     1      33.769 -13.345 -24.282  0.00  0.00    +0.030 C 
ATOM     15  C   UNL     1      33.439 -13.473 -25.631  0.00  0.00    +0.140 C 
ENDBRANCH   6  10
ENDBRANCH   1   2
BRANCH   1  16
ATOM     16  C   UNL     1      34.142 -20.463 -19.974  0.00  0.00    -0.014 C 
BRANCH  16  17
ATOM     17  C   UNL     1      33.570 -21.871 -19.942  0.00  0.00    +0.074 C 
BRANCH  17  21
ATOM     18  O   UNL     1      35.773 -23.519 -16.134  0.00  0.00    -0.209 OA
ATOM     19  N   UNL     1      32.330 -22.519 -17.927  0.00  0.00    -0.290 N 
ATOM     20  N   UNL     1      34.705 -22.715 -17.995  0.00  0.00    -0.322 NA
ATOM     21  C   UNL     1      33.560 -22.404 -18.531  0.00  0.00    +0.173 C 
ATOM     22  C   UNL     1      32.259 -23.006 -16.620  0.00  0.00    +0.058 C 
ATOM     23  C   UNL     1      33.445 -23.364 -15.965  0.00  0.00    +0.108 C 
ATOM     24  C   UNL     1      31.039 -23.144 -15.951  0.00  0.00    -0.008 C 
ATOM     25  C   UNL     1      34.732 -23.205 -16.701  0.00  0.00    +0.207 C 
ATOM     26  C   UNL     1      33.417 -23.854 -14.656  0.00  0.00    +0.014 C 
ATOM     27  C   UNL     1      31.008 -23.634 -14.644  0.00  0.00    -0.003 C 
ATOM     28  C   UNL     1      32.194 -23.989 -14.000  0.00  0.00    +0.001 C 
ATOM     29  C   UNL     1      29.746 -22.777 -16.604  0.00  0.00    +0.032 C 
ATOM     30  H   UNL     1      31.512 -22.261 -18.408  0.00  0.00    +0.154 HD
ENDBRANCH  17  21
ENDBRANCH  16  17
ENDBRANCH   1  16
TORSDOF 5
ENDMDL
MODEL 8
REMARK VINA RESULT:     -11.7      1.635      2.315
REMARK  Name = 448889
REMARK  5 active torsions:
REMARK  status: ('A' for Active; 'I' for Inactive)
REMARK    1  A    between atoms: C_1  and  N_2
REMARK    2  A    between atoms: C_1  and  C_16
REMARK    3  A    between atoms: C_6  and  C_10
REMARK    4  A    between atoms: C_16  and  C_17
REMARK    5  A    between atoms: C_17  and  C_21
REMARK                            x       y       z     vdW  Elec       q    Type
REMARK                         _______ _______ _______ _____ _____    ______ ____
ROOT
ATOM      1  C   UNL     1      34.318 -13.612 -23.341  0.00  0.00    -0.076 C 
ENDROOT
BRANCH   1   2
ATOM      2  N   UNL     1      34.124 -14.936 -22.756  0.00  0.00    +0.390 N 
ATOM      3  C   UNL     1      34.662 -14.996 -21.393  0.00  0.00    -0.072 C 
ATOM      4  C   UNL     1      34.295 -16.340 -20.746  0.00  0.00    +0.003 C 
ATOM      5  C   UNL     1      34.735 -15.974 -23.601  0.00  0.00    -0.051 C 
ATOM      6  C   UNL     1      34.587 -17.525 -21.639  0.00  0.00    -0.031 C 
ATOM      7  C   UNL     1      34.790 -17.334 -22.957  0.00  0.00    -0.053 C 
ATOM      8  H   UNL     1      33.120 -15.112 -22.706  0.00  0.00    -0.079 HD
BRANCH   6  10
ATOM      9  F   UNL     1      34.768 -22.633 -19.315  0.00  0.00    -0.204 F 
ATOM     10  C   UNL     1      34.634 -18.874 -21.026  0.00  0.00    -0.004 C 
ATOM     11  C   UNL     1      33.449 -19.540 -20.705  0.00  0.00    +0.002 C 
ATOM     12  C   UNL     1      35.864 -19.482 -20.768  0.00  0.00    +0.002 C 
ATOM     13  C   UNL     1      33.494 -20.809 -20.128  0.00  0.00    +0.030 C 
ATOM     14  C   UNL     1      35.909 -20.752 -20.191  0.00  0.00    +0.030 C 
ATOM     15  C   UNL     1      34.724 -21.415 -19.870  0.00  0.00    +0.140 C 
ENDBRANCH   6  10
ENDBRANCH   1   2
BRANCH   1  16
ATOM     16  C   UNL     1      32.977 -13.036 -23.803  0.00  0.00    -0.014 C 
BRANCH  16  17
ATOM     17  C   UNL     1      31.906 -13.118 -22.727  0.00  0.00    +0.074 C 
BRANCH  17  21
ATOM     18  O   UNL     1      31.293 -10.890 -18.637  0.00  0.00    -0.209 OA
ATOM     19  N   UNL     1      32.246 -10.696 -22.526  0.00  0.00    -0.290 N 
ATOM     20  N   UNL     1      31.590 -11.982 -20.629  0.00  0.00    -0.322 NA
ATOM     21  C   UNL     1      31.907 -11.865 -21.886  0.00  0.00    +0.173 C 
ATOM     22  C   UNL     1      32.264  -9.505 -21.798  0.00  0.00    +0.058 C 
ATOM     23  C   UNL     1      31.937  -9.539 -20.435  0.00  0.00    +0.108 C 
ATOM     24  C   UNL     1      32.601  -8.285 -22.390  0.00  0.00    -0.008 C 
ATOM     25  C   UNL     1      31.583 -10.854 -19.828  0.00  0.00    +0.207 C 
ATOM     26  C   UNL     1      31.945  -8.369 -19.670  0.00  0.00    +0.014 C 
ATOM     27  C   UNL     1      32.610  -7.114 -21.629  0.00  0.00    -0.003 C 
ATOM     28  C   UNL     1      32.282  -7.157 -20.274  0.00  0.00    +0.001 C 
ATOM     29  C   UNL     1      32.958  -8.193 -23.838  0.00  0.00    +0.032 C 
ATOM     30  H   UNL     1      32.471 -10.699 -23.484  0.00  0.00    +0.154 HD
ENDBRANCH  17  21
ENDBRANCH  16  17
ENDBRANCH   1  16
TORSDOF 5
ENDMDL
MODEL 9
REMARK VINA RESULT:     -11.6      3.239      5.430
REMARK  Name = 448889
REMARK  5 active torsions:
REMARK  status: ('A' for Active; 'I' for Inactive)
REMARK    1  A    between atoms: C_1  and  N_2
REMARK    2  A    between atoms: C_1  and  C_16
REMARK    3  A    between atoms: C_6  and  C_10
REMARK    4  A    between atoms: C_16  and  C_17
REMARK    5  A    between atoms: C_17  and  C_21
REMARK                            x       y       z     vdW  Elec       q    Type
REMARK                         _______ _______ _______ _____ _____    ______ ____
ROOT
ATOM      1  C   UNL     1      34.382 -19.900 -21.684  0.00  0.00    -0.076 C 
ENDROOT
BRANCH   1   2
ATOM      2  N   UNL     1      34.708 -20.359 -20.336  0.00  0.00    +0.390 N 
ATOM      3  C   UNL     1      36.054 -20.937 -20.285  0.00  0.00    -0.072 C 
ATOM      4  C   UNL     1      36.430 -21.255 -18.830  0.00  0.00    +0.003 C 
ATOM      5  C   UNL     1      33.708 -21.329 -19.861  0.00  0.00    -0.051 C 
ATOM      6  C   UNL     1      35.346 -22.005 -18.089  0.00  0.00    -0.031 C 
ATOM      7  C   UNL     1      34.093 -22.028 -18.585  0.00  0.00    -0.053 C 
ATOM      8  H   UNL     1      34.690 -19.549 -19.717  0.00  0.00    -0.079 HD
BRANCH   6  10
ATOM      9  F   UNL     1      36.692 -24.606 -13.299  0.00  0.00    -0.204 F 
ATOM     10  C   UNL     1      35.702 -22.691 -16.825  0.00  0.00    -0.004 C 
ATOM     11  C   UNL     1      37.007 -22.624 -16.334  0.00  0.00    +0.002 C 
ATOM     12  C   UNL     1      34.731 -23.406 -16.119  0.00  0.00    +0.002 C 
ATOM     13  C   UNL     1      37.342 -23.270 -15.144  0.00  0.00    +0.030 C 
ATOM     14  C   UNL     1      35.066 -24.052 -14.929  0.00  0.00    +0.030 C 
ATOM     15  C   UNL     1      36.371 -23.985 -14.441  0.00  0.00    +0.140 C 
ENDBRANCH   6  10
ENDBRANCH   1   2
BRANCH   1  16
ATOM     16  C   UNL     1      35.512 -19.024 -22.232  0.00  0.00    -0.014 C 
BRANCH  16  17
ATOM     17  C   UNL     1      35.373 -18.757 -23.722  0.00  0.00    +0.074 C 
BRANCH  17  21
ATOM     18  O   UNL     1      33.646 -15.453 -26.582  0.00  0.00    -0.209 OA
ATOM     19  N   UNL     1      34.390 -16.688 -22.841  0.00  0.00    -0.290 N 
ATOM     20  N   UNL     1      34.491 -17.068 -25.192  0.00  0.00    -0.322 NA
ATOM     21  C   UNL     1      34.709 -17.423 -23.959  0.00  0.00    +0.173 C 
ATOM     22  C   UNL     1      33.773 -15.446 -22.999  0.00  0.00    +0.058 C 
ATOM     23  C   UNL     1      33.498 -14.986 -24.294  0.00  0.00    +0.108 C 
ATOM     24  C   UNL     1      33.422 -14.653 -21.902  0.00  0.00    -0.008 C 
ATOM     25  C   UNL     1      33.882 -15.852 -25.446  0.00  0.00    +0.207 C 
ATOM     26  C   UNL     1      32.881 -13.748 -24.495  0.00  0.00    +0.014 C 
ATOM     27  C   UNL     1      32.806 -13.416 -22.100  0.00  0.00    -0.003 C 
ATOM     28  C   UNL     1      32.537 -12.965 -23.393  0.00  0.00    +0.001 C 
ATOM     29  C   UNL     1      33.692 -15.097 -20.501  0.00  0.00    +0.032 C 
ATOM     30  H   UNL     1      34.593 -17.034 -21.942  0.00  0.00    +0.154 HD
ENDBRANCH  17  21
ENDBRANCH  16  17
ENDBRANCH   1  16
TORSDOF 5
ENDMDL
