MODEL 1
REMARK VINA RESULT:      -4.6      0.000      0.000
REMARK  Name = 2816
REMARK  1 active torsions:
REMARK  status: ('A' for Active; 'I' for Inactive)
REMARK    1  A    between atoms: C_6  and  C_20
REMARK                            x       y       z     vdW  Elec       q    Type
REMARK                         _______ _______ _______ _____ _____    ______ ____
ROOT
ATOM      1 CL   UNL     1      31.423 -22.970 -16.786  0.00  0.00    -0.082 Cl
ATOM      2  O   UNL     1      36.532 -23.230 -16.142  0.00  0.00    -0.371 OA
ATOM      3  O   UNL     1      36.767 -24.627 -11.005  0.00  0.00    -0.277 OA
ATOM      4  N   UNL     1      37.014 -23.042 -13.848  0.00  0.00    +0.417 N 
ATOM      5  N   UNL     1      34.884 -24.714 -12.310  0.00  0.00    -0.286 N 
ATOM      6  C   UNL     1      36.238 -23.819 -14.842  0.00  0.00    +0.097 C 
ATOM      7  C   UNL     1      37.326 -21.782 -14.515  0.00  0.00    -0.040 C 
ATOM      8  C   UNL     1      34.708 -23.787 -14.607  0.00  0.00    +0.003 C 
ATOM      9  C   UNL     1      37.548 -22.247 -15.930  0.00  0.00    +0.118 C 
ATOM     10  C   UNL     1      36.430 -22.820 -12.538  0.00  0.00    +0.015 C 
ATOM     11  C   UNL     1      34.127 -24.335 -13.439  0.00  0.00    +0.047 C 
ATOM     12  C   UNL     1      36.072 -24.143 -11.900  0.00  0.00    +0.205 C 
ATOM     13  C   UNL     1      33.836 -23.349 -15.625  0.00  0.00    +0.009 C 
ATOM     14  C   UNL     1      32.742 -24.542 -13.363  0.00  0.00    +0.015 C 
ATOM     15  C   UNL     1      32.454 -23.505 -15.515  0.00  0.00    +0.057 C 
ATOM     16  C   UNL     1      31.908 -24.119 -14.394  0.00  0.00    +0.013 C 
ATOM     17  H   UNL     1      37.827 -23.603 -13.589  0.00  0.00    -0.074 HD
ATOM     18  H   UNL     1      34.532 -25.455 -11.765  0.00  0.00    +0.155 HD
ENDROOT
BRANCH   6  20
ATOM     19 CL   UNL     1      39.032 -24.548 -13.701  0.00  0.00    -0.083 Cl
ATOM     20  C   UNL     1      36.746 -25.272 -14.996  0.00  0.00    -0.001 C 
ATOM     21  C   UNL     1      37.989 -25.662 -14.507  0.00  0.00    +0.054 C 
ATOM     22  C   UNL     1      35.924 -26.191 -15.643  0.00  0.00    -0.003 C 
ATOM     23  C   UNL     1      38.414 -26.982 -14.666  0.00  0.00    +0.011 C 
ATOM     24  C   UNL     1      36.348 -27.510 -15.802  0.00  0.00    -0.000 C 
ATOM     25  C   UNL     1      37.594 -27.905 -15.314  0.00  0.00    +0.001 C 
ENDBRANCH   6  20
TORSDOF 1
ENDMDL
MODEL 2
REMARK VINA RESULT:      -4.5      1.954      3.538
REMARK  Name = 2816
REMARK  1 active torsions:
REMARK  status: ('A' for Active; 'I' for Inactive)
REMARK    1  A    between atoms: C_6  and  C_20
REMARK                            x       y       z     vdW  Elec       q    Type
REMARK                         _______ _______ _______ _____ _____    ______ ____
ROOT
ATOM      1 CL   UNL     1      31.316 -22.910 -12.183  0.00  0.00    -0.082 Cl
ATOM      2  O   UNL     1      36.447 -22.788 -12.672  0.00  0.00    -0.371 OA
ATOM      3  O   UNL     1      37.202 -27.049 -15.781  0.00  0.00    -0.277 OA
ATOM      4  N   UNL     1      37.197 -24.927 -13.301  0.00  0.00    +0.417 N 
ATOM      5  N   UNL     1      35.181 -26.038 -15.397  0.00  0.00    -0.286 N 
ATOM      6  C   UNL     1      36.277 -23.829 -13.677  0.00  0.00    +0.097 C 
ATOM      7  C   UNL     1      37.489 -24.706 -11.889  0.00  0.00    -0.040 C 
ATOM      8  C   UNL     1      34.786 -24.247 -13.724  0.00  0.00    +0.003 C 
ATOM      9  C   UNL     1      37.526 -23.201 -11.829  0.00  0.00    +0.118 C 
ATOM     10  C   UNL     1      36.777 -26.293 -13.550  0.00  0.00    +0.015 C 
ATOM     11  C   UNL     1      34.318 -25.213 -14.644  0.00  0.00    +0.047 C 
ATOM     12  C   UNL     1      36.433 -26.472 -15.011  0.00  0.00    +0.205 C 
ATOM     13  C   UNL     1      33.826 -23.559 -12.954  0.00  0.00    +0.009 C 
ATOM     14  C   UNL     1      32.942 -25.384 -14.859  0.00  0.00    +0.015 C 
ATOM     15  C   UNL     1      32.459 -23.779 -13.133  0.00  0.00    +0.057 C 
ATOM     16  C   UNL     1      32.017 -24.675 -14.099  0.00  0.00    +0.013 C 
ATOM     17  H   UNL     1      38.007 -24.873 -13.920  0.00  0.00    -0.074 HD
ATOM     18  H   UNL     1      34.859 -26.332 -16.281  0.00  0.00    +0.155 HD
ENDROOT
BRANCH   6  20
ATOM     19 CL   UNL     1      39.148 -24.284 -14.766  0.00  0.00    -0.083 Cl
ATOM     20  C   UNL     1      36.695 -23.118 -14.986  0.00  0.00    -0.001 C 
ATOM     21  C   UNL     1      37.968 -23.280 -15.526  0.00  0.00    +0.054 C 
ATOM     22  C   UNL     1      35.761 -22.302 -15.619  0.00  0.00    -0.003 C 
ATOM     23  C   UNL     1      38.310 -22.623 -16.708  0.00  0.00    +0.011 C 
ATOM     24  C   UNL     1      36.102 -21.644 -16.800  0.00  0.00    -0.000 C 
ATOM     25  C   UNL     1      37.377 -21.804 -17.344  0.00  0.00    +0.001 C 
ENDBRANCH   6  20
TORSDOF 1
ENDMDL
MODEL 3
REMARK VINA RESULT:      -3.8      2.148      4.558
REMARK  Name = 2816
REMARK  1 active torsions:
REMARK  status: ('A' for Active; 'I' for Inactive)
REMARK    1  A    between atoms: C_6  and  C_20
REMARK                            x       y       z     vdW  Elec       q    Type
REMARK                         _______ _______ _______ _____ _____    ______ ____
ROOT
ATOM      1 CL   UNL     1      36.768 -22.164  -9.845  0.00  0.00    -0.082 Cl
ATOM      2  O   UNL     1      36.428 -21.890 -14.982  0.00  0.00    -0.371 OA
ATOM      3  O   UNL     1      36.246 -27.076 -16.195  0.00  0.00    -0.277 OA
ATOM      4  N   UNL     1      37.119 -23.945 -15.895  0.00  0.00    +0.417 N 
ATOM      5  N   UNL     1      35.947 -26.201 -14.097  0.00  0.00    -0.286 N 
ATOM      6  C   UNL     1      36.170 -23.324 -14.942  0.00  0.00    +0.097 C 
ATOM      7  C   UNL     1      38.174 -22.954 -16.075  0.00  0.00    -0.040 C 
ATOM      8  C   UNL     1      36.326 -23.825 -13.485  0.00  0.00    +0.003 C 
ATOM      9  C   UNL     1      37.385 -21.673 -16.022  0.00  0.00    +0.118 C 
ATOM     10  C   UNL     1      37.664 -25.251 -15.572  0.00  0.00    +0.015 C 
ATOM     11  C   UNL     1      36.090 -25.175 -13.138  0.00  0.00    +0.047 C 
ATOM     12  C   UNL     1      36.542 -26.238 -15.342  0.00  0.00    +0.205 C 
ATOM     13  C   UNL     1      36.556 -22.912 -12.436  0.00  0.00    +0.009 C 
ATOM     14  C   UNL     1      35.971 -25.555 -11.793  0.00  0.00    +0.015 C 
ATOM     15  C   UNL     1      36.494 -23.311 -11.099  0.00  0.00    +0.057 C 
ATOM     16  C   UNL     1      36.182 -24.626 -10.778  0.00  0.00    +0.013 C 
ATOM     17  H   UNL     1      36.596 -24.174 -16.742  0.00  0.00    -0.074 HD
ATOM     18  H   UNL     1      35.370 -26.962 -13.855  0.00  0.00    +0.155 HD
ENDROOT
BRANCH   6  20
ATOM     19 CL   UNL     1      35.485 -22.569 -17.875  0.00  0.00    -0.083 Cl
ATOM     20  C   UNL     1      34.699 -23.425 -15.410  0.00  0.00    -0.001 C 
ATOM     21  C   UNL     1      34.326 -23.101 -16.711  0.00  0.00    +0.054 C 
ATOM     22  C   UNL     1      33.744 -23.851 -14.490  0.00  0.00    -0.003 C 
ATOM     23  C   UNL     1      32.989 -23.203 -17.096  0.00  0.00    +0.011 C 
ATOM     24  C   UNL     1      32.407 -23.953 -14.874  0.00  0.00    -0.000 C 
ATOM     25  C   UNL     1      32.030 -23.629 -16.177  0.00  0.00    +0.001 C 
ENDBRANCH   6  20
TORSDOF 1
ENDMDL
MODEL 4
REMARK VINA RESULT:      -3.4      8.581     10.542
REMARK  Name = 2816
REMARK  1 active torsions:
REMARK  status: ('A' for Active; 'I' for Inactive)
REMARK    1  A    between atoms: C_6  and  C_20
REMARK                            x       y       z     vdW  Elec       q    Type
REMARK                         _______ _______ _______ _____ _____    ______ ____
ROOT
ATOM      1 CL   UNL     1      34.948 -13.471 -20.151  0.00  0.00    -0.082 Cl
ATOM      2  O   UNL     1      36.704 -18.004 -21.868  0.00  0.00    -0.371 OA
ATOM      3  O   UNL     1      32.383 -21.033 -21.130  0.00  0.00    -0.277 OA
ATOM      4  N   UNL     1      35.367 -19.720 -20.973  0.00  0.00    +0.417 N 
ATOM      5  N   UNL     1      32.413 -18.741 -21.071  0.00  0.00    -0.286 N 
ATOM      6  C   UNL     1      35.327 -18.466 -21.761  0.00  0.00    +0.097 C 
ATOM      7  C   UNL     1      36.642 -19.678 -20.265  0.00  0.00    -0.040 C 
ATOM      8  C   UNL     1      34.468 -17.349 -21.118  0.00  0.00    +0.003 C 
ATOM      9  C   UNL     1      37.527 -19.022 -21.293  0.00  0.00    +0.118 C 
ATOM     10  C   UNL     1      34.266 -20.003 -20.071  0.00  0.00    +0.015 C 
ATOM     11  C   UNL     1      33.075 -17.503 -20.931  0.00  0.00    +0.047 C 
ATOM     12  C   UNL     1      32.958 -19.986 -20.829  0.00  0.00    +0.205 C 
ATOM     13  C   UNL     1      35.027 -16.084 -20.845  0.00  0.00    +0.009 C 
ATOM     14  C   UNL     1      32.274 -16.398 -20.603  0.00  0.00    +0.015 C 
ATOM     15  C   UNL     1      34.229 -15.004 -20.462  0.00  0.00    +0.057 C 
ATOM     16  C   UNL     1      32.852 -15.156 -20.361  0.00  0.00    +0.013 C 
ATOM     17  H   UNL     1      35.266 -20.496 -21.629  0.00  0.00    -0.074 HD
ATOM     18  H   UNL     1      31.475 -18.715 -21.370  0.00  0.00    +0.155 HD
ENDROOT
BRANCH   6  20
ATOM     19 CL   UNL     1      35.003 -16.001 -23.621  0.00  0.00    -0.083 Cl
ATOM     20  C   UNL     1      34.923 -18.697 -23.236  0.00  0.00    -0.001 C 
ATOM     21  C   UNL     1      34.761 -17.635 -24.121  0.00  0.00    +0.054 C 
ATOM     22  C   UNL     1      34.722 -20.007 -23.665  0.00  0.00    -0.003 C 
ATOM     23  C   UNL     1      34.396 -17.883 -25.444  0.00  0.00    +0.011 C 
ATOM     24  C   UNL     1      34.357 -20.255 -24.988  0.00  0.00    -0.000 C 
ATOM     25  C   UNL     1      34.193 -19.193 -25.877  0.00  0.00    +0.001 C 
ENDBRANCH   6  20
TORSDOF 1
ENDMDL
MODEL 5
REMARK VINA RESULT:      -3.1      2.518      4.534
REMARK  Name = 2816
REMARK  1 active torsions:
REMARK  status: ('A' for Active; 'I' for Inactive)
REMARK    1  A    between atoms: C_6  and  C_20
REMARK                            x       y       z     vdW  Elec       q    Type
REMARK                         _______ _______ _______ _____ _____    ______ ____
ROOT
ATOM      1 CL   UNL     1      33.860 -22.313 -18.192  0.00  0.00    -0.082 Cl
ATOM      2  O   UNL     1      35.437 -25.842 -14.780  0.00  0.00    -0.371 OA
ATOM      3  O   UNL     1      40.585 -24.529 -14.374  0.00  0.00    -0.277 OA
ATOM      4  N   UNL     1      37.771 -26.075 -14.959  0.00  0.00    +0.417 N 
ATOM      5  N   UNL     1      38.963 -23.223 -15.331  0.00  0.00    -0.286 N 
ATOM      6  C   UNL     1      36.686 -25.093 -14.731  0.00  0.00    +0.097 C 
ATOM      7  C   UNL     1      37.119 -27.216 -15.593  0.00  0.00    -0.040 C 
ATOM      8  C   UNL     1      36.636 -23.958 -15.785  0.00  0.00    +0.003 C 
ATOM      9  C   UNL     1      35.789 -27.224 -14.885  0.00  0.00    +0.118 C 
ATOM     10  C   UNL     1      38.941 -25.649 -15.704  0.00  0.00    +0.015 C 
ATOM     11  C   UNL     1      37.699 -23.038 -15.932  0.00  0.00    +0.047 C 
ATOM     12  C   UNL     1      39.559 -24.435 -15.049  0.00  0.00    +0.205 C 
ATOM     13  C   UNL     1      35.457 -23.717 -16.520  0.00  0.00    +0.009 C 
ATOM     14  C   UNL     1      37.530 -21.869 -16.689  0.00  0.00    +0.015 C 
ATOM     15  C   UNL     1      35.320 -22.580 -17.319  0.00  0.00    +0.057 C 
ATOM     16  C   UNL     1      36.347 -21.647 -17.387  0.00  0.00    +0.013 C 
ATOM     17  H   UNL     1      38.198 -26.274 -14.053  0.00  0.00    -0.074 HD
ATOM     18  H   UNL     1      39.466 -22.410 -15.092  0.00  0.00    +0.155 HD
ENDROOT
BRANCH   6  20
ATOM     19 CL   UNL     1      34.023 -24.017 -13.552  0.00  0.00    -0.083 Cl
ATOM     20  C   UNL     1      36.689 -24.517 -13.295  0.00  0.00    -0.001 C 
ATOM     21  C   UNL     1      35.529 -24.019 -12.710  0.00  0.00    +0.054 C 
ATOM     22  C   UNL     1      37.892 -24.507 -12.594  0.00  0.00    -0.003 C 
ATOM     23  C   UNL     1      35.571 -23.508 -11.412  0.00  0.00    +0.011 C 
ATOM     24  C   UNL     1      37.935 -23.996 -11.297  0.00  0.00    -0.000 C 
ATOM     25  C   UNL     1      36.775 -23.496 -10.707  0.00  0.00    +0.001 C 
ENDBRANCH   6  20
TORSDOF 1
ENDMDL
MODEL 6
REMARK VINA RESULT:      -2.5      1.833      3.769
REMARK  Name = 2816
REMARK  1 active torsions:
REMARK  status: ('A' for Active; 'I' for Inactive)
REMARK    1  A    between atoms: C_6  and  C_20
REMARK                            x       y       z     vdW  Elec       q    Type
REMARK                         _______ _______ _______ _____ _____    ______ ____
ROOT
ATOM      1 CL   UNL     1      30.438 -25.609 -14.258  0.00  0.00    -0.082 Cl
ATOM      2  O   UNL     1      35.517 -26.393 -13.835  0.00  0.00    -0.371 OA
ATOM      3  O   UNL     1      37.349 -21.782 -15.779  0.00  0.00    -0.277 OA
ATOM      4  N   UNL     1      36.631 -24.930 -15.302  0.00  0.00    +0.417 N 
ATOM      5  N   UNL     1      35.181 -22.179 -15.150  0.00  0.00    -0.286 N 
ATOM      6  C   UNL     1      35.662 -24.985 -14.182  0.00  0.00    +0.097 C 
ATOM      7  C   UNL     1      36.634 -26.277 -15.863  0.00  0.00    -0.040 C 
ATOM      8  C   UNL     1      34.270 -24.403 -14.529  0.00  0.00    +0.003 C 
ATOM      9  C   UNL     1      36.470 -27.112 -14.620  0.00  0.00    +0.118 C 
ATOM     10  C   UNL     1      36.439 -23.925 -16.331  0.00  0.00    +0.015 C 
ATOM     11  C   UNL     1      34.100 -23.040 -14.863  0.00  0.00    +0.047 C 
ATOM     12  C   UNL     1      36.388 -22.549 -15.708  0.00  0.00    +0.205 C 
ATOM     13  C   UNL     1      33.107 -25.185 -14.368  0.00  0.00    +0.009 C 
ATOM     14  C   UNL     1      32.818 -22.472 -14.909  0.00  0.00    +0.015 C 
ATOM     15  C   UNL     1      31.834 -24.624 -14.474  0.00  0.00    +0.057 C 
ATOM     16  C   UNL     1      31.689 -23.264 -14.724  0.00  0.00    +0.013 C 
ATOM     17  H   UNL     1      37.526 -24.624 -14.917  0.00  0.00    -0.074 HD
ATOM     18  H   UNL     1      35.063 -21.226 -14.932  0.00  0.00    +0.155 HD
ENDROOT
BRANCH   6  20
ATOM     19 CL   UNL     1      38.733 -24.627 -13.891  0.00  0.00    -0.083 Cl
ATOM     20  C   UNL     1      36.216 -24.362 -12.879  0.00  0.00    -0.001 C 
ATOM     21  C   UNL     1      37.582 -24.175 -12.687  0.00  0.00    +0.054 C 
ATOM     22  C   UNL     1      35.309 -23.988 -11.892  0.00  0.00    -0.003 C 
ATOM     23  C   UNL     1      38.044 -23.610 -11.498  0.00  0.00    +0.011 C 
ATOM     24  C   UNL     1      35.770 -23.424 -10.703  0.00  0.00    -0.000 C 
ATOM     25  C   UNL     1      37.138 -23.235 -10.506  0.00  0.00    +0.001 C 
ENDBRANCH   6  20
TORSDOF 1
ENDMDL
MODEL 7
REMARK VINA RESULT:      -2.4      2.197      2.903
REMARK  Name = 2816
REMARK  1 active torsions:
REMARK  status: ('A' for Active; 'I' for Inactive)
REMARK    1  A    between atoms: C_6  and  C_20
REMARK                            x       y       z     vdW  Elec       q    Type
REMARK                         _______ _______ _______ _____ _____    ______ ____
ROOT
ATOM      1 CL   UNL     1      36.833 -20.954 -18.566  0.00  0.00    -0.082 Cl
ATOM      2  O   UNL     1      37.791 -23.273 -14.062  0.00  0.00    -0.371 OA
ATOM      3  O   UNL     1      32.913 -25.041 -12.852  0.00  0.00    -0.277 OA
ATOM      4  N   UNL     1      35.773 -23.470 -12.869  0.00  0.00    +0.417 N 
ATOM      5  N   UNL     1      33.563 -24.271 -14.911  0.00  0.00    -0.286 N 
ATOM      6  C   UNL     1      36.434 -23.795 -14.155  0.00  0.00    +0.097 C 
ATOM      7  C   UNL     1      36.572 -22.391 -12.298  0.00  0.00    -0.040 C 
ATOM      8  C   UNL     1      35.738 -23.175 -15.392  0.00  0.00    +0.003 C 
ATOM      9  C   UNL     1      37.959 -22.795 -12.725  0.00  0.00    +0.118 C 
ATOM     10  C   UNL     1      34.361 -23.137 -12.886  0.00  0.00    +0.015 C 
ATOM     11  C   UNL     1      34.421 -23.536 -15.757  0.00  0.00    +0.047 C 
ATOM     12  C   UNL     1      33.572 -24.253 -13.531  0.00  0.00    +0.205 C 
ATOM     13  C   UNL     1      36.459 -22.350 -16.279  0.00  0.00    +0.009 C 
ATOM     14  C   UNL     1      33.907 -23.180 -17.013  0.00  0.00    +0.015 C 
ATOM     15  C   UNL     1      35.917 -21.951 -17.502  0.00  0.00    +0.057 C 
ATOM     16  C   UNL     1      34.650 -22.383 -17.878  0.00  0.00    +0.013 C 
ATOM     17  H   UNL     1      35.749 -24.326 -12.313  0.00  0.00    -0.074 HD
ATOM     18  H   UNL     1      32.895 -24.850 -15.346  0.00  0.00    +0.155 HD
ENDROOT
BRANCH   6  20
ATOM     19 CL   UNL     1      37.063 -25.533 -11.660  0.00  0.00    -0.083 Cl
ATOM     20  C   UNL     1      36.659 -25.314 -14.346  0.00  0.00    -0.001 C 
ATOM     21  C   UNL     1      36.945 -26.147 -13.269  0.00  0.00    +0.054 C 
ATOM     22  C   UNL     1      36.570 -25.834 -15.634  0.00  0.00    -0.003 C 
ATOM     23  C   UNL     1      37.142 -27.512 -13.481  0.00  0.00    +0.011 C 
ATOM     24  C   UNL     1      36.767 -27.198 -15.847  0.00  0.00    -0.000 C 
ATOM     25  C   UNL     1      37.054 -28.037 -14.770  0.00  0.00    +0.001 C 
ENDBRANCH   6  20
TORSDOF 1
ENDMDL
MODEL 8
REMARK VINA RESULT:      -1.9      7.894     10.042
REMARK  Name = 2816
REMARK  1 active torsions:
REMARK  status: ('A' for Active; 'I' for Inactive)
REMARK    1  A    between atoms: C_6  and  C_20
REMARK                            x       y       z     vdW  Elec       q    Type
REMARK                         _______ _______ _______ _____ _____    ______ ____
ROOT
ATOM      1 CL   UNL     1      31.980 -14.169 -22.097  0.00  0.00    -0.082 Cl
ATOM      2  O   UNL     1      33.301 -18.985 -23.378  0.00  0.00    -0.371 OA
ATOM      3  O   UNL     1      37.922 -19.425 -20.762  0.00  0.00    -0.277 OA
ATOM      4  N   UNL     1      35.618 -19.240 -23.066  0.00  0.00    +0.417 N 
ATOM      5  N   UNL     1      36.368 -17.775 -20.424  0.00  0.00    -0.286 N 
ATOM      6  C   UNL     1      34.361 -18.852 -22.387  0.00  0.00    +0.097 C 
ATOM      7  C   UNL     1      35.330 -19.114 -24.491  0.00  0.00    -0.040 C 
ATOM      8  C   UNL     1      34.364 -17.402 -21.842  0.00  0.00    +0.003 C 
ATOM      9  C   UNL     1      33.895 -19.566 -24.542  0.00  0.00    +0.118 C 
ATOM     10  C   UNL     1      36.840 -18.545 -22.706  0.00  0.00    +0.015 C 
ATOM     11  C   UNL     1      35.263 -16.995 -20.830  0.00  0.00    +0.047 C 
ATOM     12  C   UNL     1      37.078 -18.652 -21.218  0.00  0.00    +0.205 C 
ATOM     13  C   UNL     1      33.363 -16.489 -22.232  0.00  0.00    +0.009 C 
ATOM     14  C   UNL     1      35.079 -15.775 -20.162  0.00  0.00    +0.015 C 
ATOM     15  C   UNL     1      33.224 -15.251 -21.602  0.00  0.00    +0.057 C 
ATOM     16  C   UNL     1      34.068 -14.903 -20.554  0.00  0.00    +0.013 C 
ATOM     17  H   UNL     1      35.853 -20.185 -22.759  0.00  0.00    -0.074 HD
ATOM     18  H   UNL     1      36.658 -17.683 -19.487  0.00  0.00    +0.155 HD
ENDROOT
BRANCH   6  20
ATOM     19 CL   UNL     1      31.706 -18.354 -20.855  0.00  0.00    -0.083 Cl
ATOM     20  C   UNL     1      33.937 -19.857 -21.290  0.00  0.00    -0.001 C 
ATOM     21  C   UNL     1      32.760 -19.690 -20.567  0.00  0.00    +0.054 C 
ATOM     22  C   UNL     1      34.770 -20.944 -21.037  0.00  0.00    -0.003 C 
ATOM     23  C   UNL     1      32.411 -20.617 -19.584  0.00  0.00    +0.011 C 
ATOM     24  C   UNL     1      34.422 -21.871 -20.055  0.00  0.00    -0.000 C 
ATOM     25  C   UNL     1      33.243 -21.707 -19.328  0.00  0.00    +0.001 C 
ENDBRANCH   6  20
TORSDOF 1
ENDMDL
MODEL 9
REMARK VINA RESULT:      -1.7     17.293     19.194
REMARK  Name = 2816
REMARK  1 active torsions:
REMARK  status: ('A' for Active; 'I' for Inactive)
REMARK    1  A    between atoms: C_6  and  C_20
REMARK                            x       y       z     vdW  Elec       q    Type
REMARK                         _______ _______ _______ _____ _____    ______ ____
ROOT
ATOM      1 CL   UNL     1      31.980  -3.180 -24.465  0.00  0.00    -0.082 Cl
ATOM      2  O   UNL     1      34.221  -7.128 -22.022  0.00  0.00    -0.371 OA
ATOM      3  O   UNL     1      30.437 -10.841 -22.557  0.00  0.00    -0.277 OA
ATOM      4  N   UNL     1      32.556  -8.659 -21.375  0.00  0.00    +0.417 N 
ATOM      5  N   UNL     1      30.525  -8.871 -23.725  0.00  0.00    -0.286 N 
ATOM      6  C   UNL     1      33.126  -7.939 -22.538  0.00  0.00    +0.097 C 
ATOM      7  C   UNL     1      32.997  -7.899 -20.210  0.00  0.00    -0.040 C 
ATOM      8  C   UNL     1      32.114  -7.019 -23.264  0.00  0.00    +0.003 C 
ATOM      9  C   UNL     1      34.375  -7.472 -20.643  0.00  0.00    +0.118 C 
ATOM     10  C   UNL     1      31.125  -8.895 -21.345  0.00  0.00    +0.015 C 
ATOM     11  C   UNL     1      30.967  -7.542 -23.905  0.00  0.00    +0.047 C 
ATOM     12  C   UNL     1      30.696  -9.637 -22.590  0.00  0.00    +0.205 C 
ATOM     13  C   UNL     1      32.392  -5.648 -23.440  0.00  0.00    +0.009 C 
ATOM     14  C   UNL     1      30.213  -6.744 -24.778  0.00  0.00    +0.015 C 
ATOM     15  C   UNL     1      31.600  -4.847 -24.265  0.00  0.00    +0.057 C 
ATOM     16  C   UNL     1      30.524  -5.399 -24.949  0.00  0.00    +0.013 C 
ATOM     17  H   UNL     1      32.896  -9.620 -21.413  0.00  0.00    -0.074 HD
ATOM     18  H   UNL     1      30.050  -9.289 -24.480  0.00  0.00    +0.155 HD
ENDROOT
BRANCH   6  20
ATOM     19 CL   UNL     1      34.952  -6.698 -24.720  0.00  0.00    -0.083 Cl
ATOM     20  C   UNL     1      33.835  -8.884 -23.537  0.00  0.00    -0.001 C 
ATOM     21  C   UNL     1      34.666  -8.390 -24.538  0.00  0.00    +0.054 C 
ATOM     22  C   UNL     1      33.621 -10.254 -23.413  0.00  0.00    -0.003 C 
ATOM     23  C   UNL     1      35.288  -9.272 -25.422  0.00  0.00    +0.011 C 
ATOM     24  C   UNL     1      34.242 -11.136 -24.296  0.00  0.00    -0.000 C 
ATOM     25  C   UNL     1      35.075 -10.645 -25.301  0.00  0.00    +0.001 C 
ENDBRANCH   6  20
TORSDOF 1
ENDMDL
