MODEL 1
REMARK VINA RESULT:      -7.1      0.000      0.000
REMARK  Name = 181426
REMARK  3 active torsions:
REMARK  status: ('A' for Active; 'I' for Inactive)
REMARK    1  A    between atoms: N_1  and  C_4
REMARK    2  A    between atoms: N_1  and  C_9
REMARK    3  A    between atoms: N_2  and  O_15
REMARK                            x       y       z     vdW  Elec       q    Type
REMARK                         _______ _______ _______ _____ _____    ______ ____
ROOT
ATOM      1  N   UNL     1      35.277 -18.194 -22.019  0.00  0.00    -0.212 NA
ENDROOT
BRANCH   1   3
ATOM      2 CL   UNL     1      33.502 -22.657 -18.577  0.00  0.00    -0.082 Cl
ATOM      3  C   UNL     1      34.857 -19.250 -21.205  0.00  0.00    +0.084 C 
ATOM      4  C   UNL     1      35.798 -20.104 -20.629  0.00  0.00    +0.020 C 
ATOM      5  C   UNL     1      33.497 -19.449 -20.966  0.00  0.00    +0.020 C 
ATOM      6  C   UNL     1      35.379 -21.157 -19.816  0.00  0.00    +0.013 C 
ATOM      7  C   UNL     1      33.078 -20.503 -20.153  0.00  0.00    +0.013 C 
ATOM      8  C   UNL     1      34.020 -21.356 -19.579  0.00  0.00    +0.058 C 
ENDBRANCH   1   3
BRANCH   1  11
ATOM      9  N   UNL     1      35.214 -17.218 -24.171  0.00  0.00    -0.237 N 
ATOM     10  N   UNL     1      34.946 -19.472 -24.030  0.00  0.00    -0.368 N 
ATOM     11  C   UNL     1      35.155 -18.305 -23.323  0.00  0.00    +0.220 C 
ATOM     12  H   UNL     1      34.932 -17.279 -25.111  0.00  0.00    +0.197 HD
ATOM     13  H   UNL     1      34.880 -20.331 -23.554  0.00  0.00    +0.159 HD
ATOM     14  H   UNL     1      34.861 -19.445 -25.010  0.00  0.00    +0.159 HD
BRANCH   9  15
ATOM     15  O   UNL     1      35.691 -16.041 -23.633  0.00  0.00    -0.287 OA
ATOM     16  H   UNL     1      35.586 -15.325 -24.279  0.00  0.00    +0.244 HD
ENDBRANCH   9  15
ENDBRANCH   1  11
TORSDOF 3
ENDMDL
MODEL 2
REMARK VINA RESULT:      -7.0      1.050      2.021
REMARK  Name = 181426
REMARK  3 active torsions:
REMARK  status: ('A' for Active; 'I' for Inactive)
REMARK    1  A    between atoms: N_1  and  C_4
REMARK    2  A    between atoms: N_1  and  C_9
REMARK    3  A    between atoms: N_2  and  O_15
REMARK                            x       y       z     vdW  Elec       q    Type
REMARK                         _______ _______ _______ _____ _____    ______ ____
ROOT
ATOM      1  N   UNL     1      35.694 -18.768 -22.003  0.00  0.00    -0.212 NA
ENDROOT
BRANCH   1   3
ATOM      2 CL   UNL     1      33.152 -22.606 -18.300  0.00  0.00    -0.082 Cl
ATOM      3  C   UNL     1      35.093 -19.676 -21.127  0.00  0.00    +0.084 C 
ATOM      4  C   UNL     1      33.702 -19.774 -21.070  0.00  0.00    +0.020 C 
ATOM      5  C   UNL     1      35.883 -20.486 -20.311  0.00  0.00    +0.020 C 
ATOM      6  C   UNL     1      33.102 -20.680 -20.196  0.00  0.00    +0.013 C 
ATOM      7  C   UNL     1      35.283 -21.392 -19.436  0.00  0.00    +0.013 C 
ATOM      8  C   UNL     1      33.892 -21.489 -19.379  0.00  0.00    +0.058 C 
ENDBRANCH   1   3
BRANCH   1  11
ATOM      9  N   UNL     1      35.442 -16.620 -22.955  0.00  0.00    -0.237 N 
ATOM     10  N   UNL     1      35.094 -16.826 -20.717  0.00  0.00    -0.368 N 
ATOM     11  C   UNL     1      35.422 -17.488 -21.883  0.00  0.00    +0.220 C 
ATOM     12  H   UNL     1      35.429 -15.644 -22.830  0.00  0.00    +0.197 HD
ATOM     13  H   UNL     1      35.043 -17.321 -19.867  0.00  0.00    +0.159 HD
ATOM     14  H   UNL     1      34.914 -15.859 -20.734  0.00  0.00    +0.159 HD
BRANCH   9  15
ATOM     15  O   UNL     1      35.479 -17.189 -24.210  0.00  0.00    -0.287 OA
ATOM     16  H   UNL     1      35.229 -18.125 -24.148  0.00  0.00    +0.244 HD
ENDBRANCH   9  15
ENDBRANCH   1  11
TORSDOF 3
ENDMDL
MODEL 3
REMARK VINA RESULT:      -7.0      5.036      6.151
REMARK  Name = 181426
REMARK  3 active torsions:
REMARK  status: ('A' for Active; 'I' for Inactive)
REMARK    1  A    between atoms: N_1  and  C_4
REMARK    2  A    between atoms: N_1  and  C_9
REMARK    3  A    between atoms: N_2  and  O_15
REMARK                            x       y       z     vdW  Elec       q    Type
REMARK                         _______ _______ _______ _____ _____    ______ ____
ROOT
ATOM      1  N   UNL     1      33.723 -23.217 -18.729  0.00  0.00    -0.212 NA
ENDROOT
BRANCH   1   3
ATOM      2 CL   UNL     1      35.648 -18.375 -21.515  0.00  0.00    -0.082 Cl
ATOM      3  C   UNL     1      34.179 -22.072 -19.388  0.00  0.00    +0.084 C 
ATOM      4  C   UNL     1      33.264 -21.174 -19.939  0.00  0.00    +0.020 C 
ATOM      5  C   UNL     1      35.548 -21.825 -19.494  0.00  0.00    +0.020 C 
ATOM      6  C   UNL     1      33.719 -20.030 -20.597  0.00  0.00    +0.013 C 
ATOM      7  C   UNL     1      36.002 -20.682 -20.152  0.00  0.00    +0.013 C 
ATOM      8  C   UNL     1      35.087 -19.785 -20.703  0.00  0.00    +0.058 C 
ENDBRANCH   1   3
BRANCH   1  11
ATOM      9  N   UNL     1      33.812 -23.383 -16.374  0.00  0.00    -0.237 N 
ATOM     10  N   UNL     1      31.860 -22.682 -17.306  0.00  0.00    -0.368 N 
ATOM     11  C   UNL     1      33.155 -23.094 -17.552  0.00  0.00    +0.220 C 
ATOM     12  H   UNL     1      33.330 -23.475 -15.521  0.00  0.00    +0.197 HD
ATOM     13  H   UNL     1      31.269 -22.442 -18.056  0.00  0.00    +0.159 HD
ATOM     14  H   UNL     1      31.527 -22.629 -16.381  0.00  0.00    +0.159 HD
BRANCH   9  15
ATOM     15  O   UNL     1      35.180 -23.536 -16.452  0.00  0.00    -0.287 OA
ATOM     16  H   UNL     1      35.578 -22.716 -16.787  0.00  0.00    +0.244 HD
ENDBRANCH   9  15
ENDBRANCH   1  11
TORSDOF 3
ENDMDL
MODEL 4
REMARK VINA RESULT:      -7.0      1.088      1.495
REMARK  Name = 181426
REMARK  3 active torsions:
REMARK  status: ('A' for Active; 'I' for Inactive)
REMARK    1  A    between atoms: N_1  and  C_4
REMARK    2  A    between atoms: N_1  and  C_9
REMARK    3  A    between atoms: N_2  and  O_15
REMARK                            x       y       z     vdW  Elec       q    Type
REMARK                         _______ _______ _______ _____ _____    ______ ____
ROOT
ATOM      1  N   UNL     1      35.766 -18.765 -21.917  0.00  0.00    -0.212 NA
ENDROOT
BRANCH   1   3
ATOM      2 CL   UNL     1      33.142 -22.616 -18.284  0.00  0.00    -0.082 Cl
ATOM      3  C   UNL     1      35.145 -19.676 -21.057  0.00  0.00    +0.084 C 
ATOM      4  C   UNL     1      35.917 -20.551 -20.292  0.00  0.00    +0.020 C 
ATOM      5  C   UNL     1      33.754 -19.709 -20.962  0.00  0.00    +0.020 C 
ATOM      6  C   UNL     1      35.297 -21.461 -19.435  0.00  0.00    +0.013 C 
ATOM      7  C   UNL     1      33.134 -20.618 -20.104  0.00  0.00    +0.013 C 
ATOM      8  C   UNL     1      33.907 -21.494 -19.341  0.00  0.00    +0.058 C 
ENDBRANCH   1   3
BRANCH   1  11
ATOM      9  N   UNL     1      35.423 -16.665 -22.944  0.00  0.00    -0.237 N 
ATOM     10  N   UNL     1      35.099 -16.802 -20.697  0.00  0.00    -0.368 N 
ATOM     11  C   UNL     1      35.445 -17.494 -21.841  0.00  0.00    +0.220 C 
ATOM     12  H   UNL     1      35.373 -15.687 -22.855  0.00  0.00    +0.197 HD
ATOM     13  H   UNL     1      35.073 -17.267 -19.830  0.00  0.00    +0.159 HD
ATOM     14  H   UNL     1      34.881 -15.844 -20.748  0.00  0.00    +0.159 HD
BRANCH   9  15
ATOM     15  O   UNL     1      35.474 -17.279 -24.178  0.00  0.00    -0.287 OA
ATOM     16  H   UNL     1      35.475 -16.603 -24.875  0.00  0.00    +0.244 HD
ENDBRANCH   9  15
ENDBRANCH   1  11
TORSDOF 3
ENDMDL
MODEL 5
REMARK VINA RESULT:      -6.7      5.112      6.099
REMARK  Name = 181426
REMARK  3 active torsions:
REMARK  status: ('A' for Active; 'I' for Inactive)
REMARK    1  A    between atoms: N_1  and  C_4
REMARK    2  A    between atoms: N_1  and  C_9
REMARK    3  A    between atoms: N_2  and  O_15
REMARK                            x       y       z     vdW  Elec       q    Type
REMARK                         _______ _______ _______ _____ _____    ______ ____
ROOT
ATOM      1  N   UNL     1      33.597 -23.316 -18.474  0.00  0.00    -0.212 NA
ENDROOT
BRANCH   1   3
ATOM      2 CL   UNL     1      35.662 -18.629 -21.421  0.00  0.00    -0.082 Cl
ATOM      3  C   UNL     1      34.086 -22.207 -19.172  0.00  0.00    +0.084 C 
ATOM      4  C   UNL     1      35.461 -21.992 -19.265  0.00  0.00    +0.020 C 
ATOM      5  C   UNL     1      33.198 -21.316 -19.776  0.00  0.00    +0.020 C 
ATOM      6  C   UNL     1      35.948 -20.885 -19.961  0.00  0.00    +0.013 C 
ATOM      7  C   UNL     1      33.686 -20.209 -20.472  0.00  0.00    +0.013 C 
ATOM      8  C   UNL     1      35.061 -19.994 -20.564  0.00  0.00    +0.058 C 
ENDBRANCH   1   3
BRANCH   1  11
ATOM      9  N   UNL     1      32.391 -22.850 -16.496  0.00  0.00    -0.237 N 
ATOM     10  N   UNL     1      34.529 -23.594 -16.274  0.00  0.00    -0.368 N 
ATOM     11  C   UNL     1      33.525 -23.265 -17.164  0.00  0.00    +0.220 C 
ATOM     12  H   UNL     1      32.406 -22.631 -15.537  0.00  0.00    +0.197 HD
ATOM     13  H   UNL     1      35.400 -23.908 -16.609  0.00  0.00    +0.159 HD
ATOM     14  H   UNL     1      34.374 -23.515 -15.306  0.00  0.00    +0.159 HD
BRANCH   9  15
ATOM     15  O   UNL     1      31.235 -22.759 -17.242  0.00  0.00    -0.287 OA
ATOM     16  H   UNL     1      30.554 -22.297 -16.727  0.00  0.00    +0.244 HD
ENDBRANCH   9  15
ENDBRANCH   1  11
TORSDOF 3
ENDMDL
MODEL 6
REMARK VINA RESULT:      -6.6     10.343     11.219
REMARK  Name = 181426
REMARK  3 active torsions:
REMARK  status: ('A' for Active; 'I' for Inactive)
REMARK    1  A    between atoms: N_1  and  C_4
REMARK    2  A    between atoms: N_1  and  C_9
REMARK    3  A    between atoms: N_2  and  O_15
REMARK                            x       y       z     vdW  Elec       q    Type
REMARK                         _______ _______ _______ _____ _____    ______ ____
ROOT
ATOM      1  N   UNL     1      31.876  -8.760 -21.701  0.00  0.00    -0.212 NA
ENDROOT
BRANCH   1   3
ATOM      2 CL   UNL     1      35.839 -10.269 -25.816  0.00  0.00    -0.082 Cl
ATOM      3  C   UNL     1      32.814  -9.117 -22.674  0.00  0.00    +0.084 C 
ATOM      4  C   UNL     1      33.808  -8.214 -23.050  0.00  0.00    +0.020 C 
ATOM      5  C   UNL     1      32.757 -10.378 -23.269  0.00  0.00    +0.020 C 
ATOM      6  C   UNL     1      34.744  -8.570 -24.021  0.00  0.00    +0.013 C 
ATOM      7  C   UNL     1      33.692 -10.734 -24.241  0.00  0.00    +0.013 C 
ATOM      8  C   UNL     1      34.686  -9.830 -24.617  0.00  0.00    +0.058 C 
ENDBRANCH   1   3
BRANCH   1  11
ATOM      9  N   UNL     1      32.653  -8.807 -19.470  0.00  0.00    -0.237 N 
ATOM     10  N   UNL     1      31.309 -10.511 -20.152  0.00  0.00    -0.368 N 
ATOM     11  C   UNL     1      31.930  -9.334 -20.520  0.00  0.00    +0.220 C 
ATOM     12  H   UNL     1      32.847  -9.333 -18.661  0.00  0.00    +0.197 HD
ATOM     13  H   UNL     1      30.757 -11.001 -20.803  0.00  0.00    +0.159 HD
ATOM     14  H   UNL     1      31.420 -10.861 -19.239  0.00  0.00    +0.159 HD
BRANCH   9  15
ATOM     15  O   UNL     1      33.090  -7.508 -19.612  0.00  0.00    -0.287 OA
ATOM     16  H   UNL     1      32.671  -6.951 -18.936  0.00  0.00    +0.244 HD
ENDBRANCH   9  15
ENDBRANCH   1  11
TORSDOF 3
ENDMDL
MODEL 7
REMARK VINA RESULT:      -6.5     11.071     12.136
REMARK  Name = 181426
REMARK  3 active torsions:
REMARK  status: ('A' for Active; 'I' for Inactive)
REMARK    1  A    between atoms: N_1  and  C_4
REMARK    2  A    between atoms: N_1  and  C_9
REMARK    3  A    between atoms: N_2  and  O_15
REMARK                            x       y       z     vdW  Elec       q    Type
REMARK                         _______ _______ _______ _____ _____    ______ ____
ROOT
ATOM      1  N   UNL     1      31.816  -7.929 -21.734  0.00  0.00    -0.212 NA
ENDROOT
BRANCH   1   3
ATOM      2 CL   UNL     1      35.706 -10.258 -25.524  0.00  0.00    -0.082 Cl
ATOM      3  C   UNL     1      32.737  -8.481 -22.630  0.00  0.00    +0.084 C 
ATOM      4  C   UNL     1      33.804  -7.712 -23.095  0.00  0.00    +0.020 C 
ATOM      5  C   UNL     1      32.589  -9.800 -23.059  0.00  0.00    +0.020 C 
ATOM      6  C   UNL     1      34.722  -8.261 -23.990  0.00  0.00    +0.013 C 
ATOM      7  C   UNL     1      33.507 -10.350 -23.954  0.00  0.00    +0.013 C 
ATOM      8  C   UNL     1      34.574  -9.580 -24.419  0.00  0.00    +0.058 C 
ENDBRANCH   1   3
BRANCH   1  11
ATOM      9  N   UNL     1      32.028  -5.833 -20.663  0.00  0.00    -0.237 N 
ATOM     10  N   UNL     1      32.994  -7.630 -19.658  0.00  0.00    -0.368 N 
ATOM     11  C   UNL     1      32.256  -7.192 -20.739  0.00  0.00    +0.220 C 
ATOM     12  H   UNL     1      32.517  -5.262 -20.029  0.00  0.00    +0.197 HD
ATOM     13  H   UNL     1      33.234  -8.582 -19.579  0.00  0.00    +0.159 HD
ATOM     14  H   UNL     1      33.281  -6.992 -18.967  0.00  0.00    +0.159 HD
BRANCH   9  15
ATOM     15  O   UNL     1      31.079  -5.318 -21.521  0.00  0.00    -0.287 OA
ATOM     16  H   UNL     1      31.431  -5.311 -22.425  0.00  0.00    +0.244 HD
ENDBRANCH   9  15
ENDBRANCH   1  11
TORSDOF 3
ENDMDL
MODEL 8
REMARK VINA RESULT:      -6.5      4.040      5.179
REMARK  Name = 181426
REMARK  3 active torsions:
REMARK  status: ('A' for Active; 'I' for Inactive)
REMARK    1  A    between atoms: N_1  and  C_4
REMARK    2  A    between atoms: N_1  and  C_9
REMARK    3  A    between atoms: N_2  and  O_15
REMARK                            x       y       z     vdW  Elec       q    Type
REMARK                         _______ _______ _______ _____ _____    ______ ____
ROOT
ATOM      1  N   UNL     1      35.019 -19.944 -20.260  0.00  0.00    -0.212 NA
ENDROOT
BRANCH   1   3
ATOM      2 CL   UNL     1      34.833 -16.470 -25.036  0.00  0.00    -0.082 Cl
ATOM      3  C   UNL     1      34.976 -19.122 -21.390  0.00  0.00    +0.084 C 
ATOM      4  C   UNL     1      35.022 -17.735 -21.246  0.00  0.00    +0.020 C 
ATOM      5  C   UNL     1      34.887 -19.688 -22.662  0.00  0.00    +0.020 C 
ATOM      6  C   UNL     1      34.978 -16.915 -22.374  0.00  0.00    +0.013 C 
ATOM      7  C   UNL     1      34.843 -18.868 -23.790  0.00  0.00    +0.013 C 
ATOM      8  C   UNL     1      34.888 -17.481 -23.645  0.00  0.00    +0.058 C 
ENDBRANCH   1   3
BRANCH   1  11
ATOM      9  N   UNL     1      34.110 -21.991 -19.507  0.00  0.00    -0.237 N 
ATOM     10  N   UNL     1      32.653 -20.353 -20.114  0.00  0.00    -0.368 N 
ATOM     11  C   UNL     1      33.983 -20.701 -19.980  0.00  0.00    +0.220 C 
ATOM     12  H   UNL     1      33.347 -22.611 -19.485  0.00  0.00    +0.197 HD
ATOM     13  H   UNL     1      32.410 -19.458 -20.444  0.00  0.00    +0.159 HD
ATOM     14  H   UNL     1      31.950 -21.000 -19.881  0.00  0.00    +0.159 HD
BRANCH   9  15
ATOM     15  O   UNL     1      35.362 -22.366 -19.067  0.00  0.00    -0.287 OA
ATOM     16  H   UNL     1      35.453 -22.143 -18.126  0.00  0.00    +0.244 HD
ENDBRANCH   9  15
ENDBRANCH   1  11
TORSDOF 3
ENDMDL
MODEL 9
REMARK VINA RESULT:      -6.5      2.749      3.758
REMARK  Name = 181426
REMARK  3 active torsions:
REMARK  status: ('A' for Active; 'I' for Inactive)
REMARK    1  A    between atoms: N_1  and  C_4
REMARK    2  A    between atoms: N_1  and  C_9
REMARK    3  A    between atoms: N_2  and  O_15
REMARK                            x       y       z     vdW  Elec       q    Type
REMARK                         _______ _______ _______ _____ _____    ______ ____
ROOT
ATOM      1  N   UNL     1      34.893 -15.361 -23.806  0.00  0.00    -0.212 NA
ENDROOT
BRANCH   1   3
ATOM      2 CL   UNL     1      35.193 -20.413 -20.757  0.00  0.00    -0.082 Cl
ATOM      3  C   UNL     1      34.964 -16.556 -23.085  0.00  0.00    +0.084 C 
ATOM      4  C   UNL     1      34.997 -17.777 -23.759  0.00  0.00    +0.020 C 
ATOM      5  C   UNL     1      35.004 -16.529 -21.690  0.00  0.00    +0.020 C 
ATOM      6  C   UNL     1      35.068 -18.970 -23.039  0.00  0.00    +0.013 C 
ATOM      7  C   UNL     1      35.074 -17.722 -20.971  0.00  0.00    +0.013 C 
ATOM      8  C   UNL     1      35.106 -18.942 -21.646  0.00  0.00    +0.058 C 
ENDBRANCH   1   3
BRANCH   1  11
ATOM      9  N   UNL     1      33.191 -14.877 -25.373  0.00  0.00    -0.237 N 
ATOM     10  N   UNL     1      32.844 -14.248 -23.215  0.00  0.00    -0.368 N 
ATOM     11  C   UNL     1      33.714 -14.859 -24.096  0.00  0.00    +0.220 C 
ATOM     12  H   UNL     1      32.408 -14.335 -25.619  0.00  0.00    +0.197 HD
ATOM     13  H   UNL     1      33.086 -14.161 -22.264  0.00  0.00    +0.159 HD
ATOM     14  H   UNL     1      31.983 -13.897 -23.537  0.00  0.00    +0.159 HD
BRANCH   9  15
ATOM     15  O   UNL     1      33.822 -15.694 -26.286  0.00  0.00    -0.287 OA
ATOM     16  H   UNL     1      34.206 -16.457 -25.826  0.00  0.00    +0.244 HD
ENDBRANCH   9  15
ENDBRANCH   1  11
TORSDOF 3
ENDMDL
