MODEL 1
REMARK VINA RESULT:      -7.7      0.000      0.000
REMARK  Name = 2708
REMARK  10 active torsions:
REMARK  status: ('A' for Active; 'I' for Inactive)
REMARK    1  A    between atoms: C_1  and  N_7
REMARK    2  A    between atoms: C_2  and  C_14
REMARK    3  A    between atoms: N_7  and  C_8
REMARK    4  A    between atoms: N_7  and  C_11
REMARK    5  A    between atoms: C_8  and  C_10
REMARK    6  A    between atoms: C_11  and  C_13
REMARK    7  A    between atoms: C_14  and  C_15
REMARK    8  A    between atoms: C_15  and  C_16
REMARK    9  A    between atoms: C_16  and  C_18
REMARK   10  A    between atoms: C_18  and  O_19
REMARK                            x       y       z     vdW  Elec       q    Type
REMARK                         _______ _______ _______ _____ _____    ______ ____
ROOT
ATOM      1  C   UNL     1      34.833 -19.344 -20.932  0.00  0.00    +0.048 C 
ATOM      2  C   UNL     1      34.152 -21.697 -19.627  0.00  0.00    -0.022 C 
ATOM      3  C   UNL     1      33.491 -19.662 -20.721  0.00  0.00    +0.014 C 
ATOM      4  C   UNL     1      35.832 -20.210 -20.485  0.00  0.00    +0.014 C 
ATOM      5  C   UNL     1      33.148 -20.845 -20.065  0.00  0.00    -0.003 C 
ATOM      6  C   UNL     1      35.490 -21.392 -19.829  0.00  0.00    -0.003 C 
ENDROOT
BRANCH   1   7
ATOM      7  N   UNL     1      35.179 -18.150 -21.595  0.00  0.00    -0.305 N 
BRANCH   7   8
ATOM      8  C   UNL     1      34.918 -16.864 -20.978  0.00  0.00    +0.108 C 
BRANCH   8  10
ATOM      9 CL   UNL     1      32.567 -15.479 -20.838  0.00  0.00    -0.112 Cl
ATOM     10  C   UNL     1      33.946 -16.046 -21.813  0.00  0.00    +0.116 C 
ENDBRANCH   8  10
ENDBRANCH   7   8
BRANCH   7  11
ATOM     11  C   UNL     1      35.815 -18.191 -22.897  0.00  0.00    +0.108 C 
BRANCH  11  13
ATOM     12 CL   UNL     1      34.333 -17.868 -25.170  0.00  0.00    -0.112 Cl
ATOM     13  C   UNL     1      34.958 -18.949 -23.899  0.00  0.00    +0.116 C 
ENDBRANCH  11  13
ENDBRANCH   7  11
ENDBRANCH   1   7
BRANCH   2  14
ATOM     14  C   UNL     1      33.782 -22.974 -18.918  0.00  0.00    +0.027 C 
BRANCH  14  15
ATOM     15  C   UNL     1      33.083 -22.772 -17.565  0.00  0.00    +0.016 C 
BRANCH  15  16
ATOM     16  C   UNL     1      33.718 -23.559 -16.415  0.00  0.00    +0.110 C 
BRANCH  16  18
ATOM     17  O   UNL     1      36.085 -23.008 -16.571  0.00  0.00    -0.250 OA
ATOM     18  C   UNL     1      35.037 -22.986 -15.941  0.00  0.00    +0.314 C 
BRANCH  18  19
ATOM     19  O   UNL     1      34.939 -22.470 -14.689  0.00  0.00    -0.480 OA
ATOM     20  H   UNL     1      34.604 -22.996 -13.989  0.00  0.00    +0.295 HD
ENDBRANCH  18  19
ENDBRANCH  16  18
ENDBRANCH  15  16
ENDBRANCH  14  15
ENDBRANCH   2  14
TORSDOF 10
ENDMDL
MODEL 2
REMARK VINA RESULT:      -7.7      1.308      1.560
REMARK  Name = 2708
REMARK  10 active torsions:
REMARK  status: ('A' for Active; 'I' for Inactive)
REMARK    1  A    between atoms: C_1  and  N_7
REMARK    2  A    between atoms: C_2  and  C_14
REMARK    3  A    between atoms: N_7  and  C_8
REMARK    4  A    between atoms: N_7  and  C_11
REMARK    5  A    between atoms: C_8  and  C_10
REMARK    6  A    between atoms: C_11  and  C_13
REMARK    7  A    between atoms: C_14  and  C_15
REMARK    8  A    between atoms: C_15  and  C_16
REMARK    9  A    between atoms: C_16  and  C_18
REMARK   10  A    between atoms: C_18  and  O_19
REMARK                            x       y       z     vdW  Elec       q    Type
REMARK                         _______ _______ _______ _____ _____    ______ ____
ROOT
ATOM      1  C   UNL     1      34.864 -19.399 -20.912  0.00  0.00    +0.048 C 
ATOM      2  C   UNL     1      34.208 -21.695 -19.499  0.00  0.00    -0.022 C 
ATOM      3  C   UNL     1      33.526 -19.711 -20.671  0.00  0.00    +0.014 C 
ATOM      4  C   UNL     1      35.872 -20.241 -20.442  0.00  0.00    +0.014 C 
ATOM      5  C   UNL     1      33.196 -20.865 -19.960  0.00  0.00    -0.003 C 
ATOM      6  C   UNL     1      35.542 -21.395 -19.731  0.00  0.00    -0.003 C 
ENDROOT
BRANCH   1   7
ATOM      7  N   UNL     1      35.198 -18.232 -21.630  0.00  0.00    -0.305 N 
BRANCH   7   8
ATOM      8  C   UNL     1      34.966 -16.923 -21.054  0.00  0.00    +0.108 C 
BRANCH   8  10
ATOM      9 CL   UNL     1      32.712 -15.427 -20.673  0.00  0.00    -0.112 Cl
ATOM     10  C   UNL     1      33.864 -16.187 -21.799  0.00  0.00    +0.116 C 
ENDBRANCH   8  10
ENDBRANCH   7   8
BRANCH   7  11
ATOM     11  C   UNL     1      35.792 -18.328 -22.950  0.00  0.00    +0.108 C 
BRANCH  11  13
ATOM     12 CL   UNL     1      34.259 -17.979 -25.184  0.00  0.00    -0.112 Cl
ATOM     13  C   UNL     1      34.871 -19.063 -23.910  0.00  0.00    +0.116 C 
ENDBRANCH  11  13
ENDBRANCH   7  11
ENDBRANCH   1   7
BRANCH   2  14
ATOM     14  C   UNL     1      33.851 -22.941 -18.731  0.00  0.00    +0.027 C 
BRANCH  14  15
ATOM     15  C   UNL     1      32.797 -22.733 -17.634  0.00  0.00    +0.016 C 
BRANCH  15  16
ATOM     16  C   UNL     1      33.166 -23.367 -16.289  0.00  0.00    +0.110 C 
BRANCH  16  18
ATOM     17  O   UNL     1      31.005 -24.086 -15.429  0.00  0.00    -0.250 OA
ATOM     18  C   UNL     1      32.019 -23.413 -15.303  0.00  0.00    +0.314 C 
BRANCH  18  19
ATOM     19  O   UNL     1      32.221 -22.570 -14.258  0.00  0.00    -0.480 OA
ATOM     20  H   UNL     1      31.618 -22.559 -13.540  0.00  0.00    +0.295 HD
ENDBRANCH  18  19
ENDBRANCH  16  18
ENDBRANCH  15  16
ENDBRANCH  14  15
ENDBRANCH   2  14
TORSDOF 10
ENDMDL
MODEL 3
REMARK VINA RESULT:      -7.6      0.665      2.348
REMARK  Name = 2708
REMARK  10 active torsions:
REMARK  status: ('A' for Active; 'I' for Inactive)
REMARK    1  A    between atoms: C_1  and  N_7
REMARK    2  A    between atoms: C_2  and  C_14
REMARK    3  A    between atoms: N_7  and  C_8
REMARK    4  A    between atoms: N_7  and  C_11
REMARK    5  A    between atoms: C_8  and  C_10
REMARK    6  A    between atoms: C_11  and  C_13
REMARK    7  A    between atoms: C_14  and  C_15
REMARK    8  A    between atoms: C_15  and  C_16
REMARK    9  A    between atoms: C_16  and  C_18
REMARK   10  A    between atoms: C_18  and  O_19
REMARK                            x       y       z     vdW  Elec       q    Type
REMARK                         _______ _______ _______ _____ _____    ______ ____
ROOT
ATOM      1  C   UNL     1      34.874 -19.350 -20.943  0.00  0.00    +0.048 C 
ATOM      2  C   UNL     1      34.158 -21.689 -19.632  0.00  0.00    -0.022 C 
ATOM      3  C   UNL     1      35.861 -20.194 -20.433  0.00  0.00    +0.014 C 
ATOM      4  C   UNL     1      33.527 -19.682 -20.794  0.00  0.00    +0.014 C 
ATOM      5  C   UNL     1      35.501 -21.370 -19.774  0.00  0.00    -0.003 C 
ATOM      6  C   UNL     1      33.168 -20.858 -20.136  0.00  0.00    -0.003 C 
ENDROOT
BRANCH   1   7
ATOM      7  N   UNL     1      35.238 -18.161 -21.608  0.00  0.00    -0.305 N 
BRANCH   7   8
ATOM      8  C   UNL     1      35.871 -18.213 -22.911  0.00  0.00    +0.108 C 
BRANCH   8  10
ATOM      9 CL   UNL     1      34.426 -17.595 -25.146  0.00  0.00    -0.112 Cl
ATOM     10  C   UNL     1      34.935 -18.812 -23.949  0.00  0.00    +0.116 C 
ENDBRANCH   8  10
ENDBRANCH   7   8
BRANCH   7  11
ATOM     11  C   UNL     1      34.969 -16.871 -21.005  0.00  0.00    +0.108 C 
BRANCH  11  13
ATOM     12 CL   UNL     1      34.591 -14.786 -22.729  0.00  0.00    -0.112 Cl
ATOM     13  C   UNL     1      33.895 -16.120 -21.776  0.00  0.00    +0.116 C 
ENDBRANCH  11  13
ENDBRANCH   7  11
ENDBRANCH   1   7
BRANCH   2  14
ATOM     14  C   UNL     1      33.769 -22.959 -18.921  0.00  0.00    +0.027 C 
BRANCH  14  15
ATOM     15  C   UNL     1      33.186 -22.749 -17.517  0.00  0.00    +0.016 C 
BRANCH  15  16
ATOM     16  C   UNL     1      33.875 -23.577 -16.428  0.00  0.00    +0.110 C 
BRANCH  16  18
ATOM     17  O   UNL     1      36.223 -22.950 -16.574  0.00  0.00    -0.250 OA
ATOM     18  C   UNL     1      35.177 -22.978 -15.941  0.00  0.00    +0.314 C 
BRANCH  18  19
ATOM     19  O   UNL     1      35.068 -22.500 -14.675  0.00  0.00    -0.480 OA
ATOM     20  H   UNL     1      35.169 -23.079 -13.945  0.00  0.00    +0.295 HD
ENDBRANCH  18  19
ENDBRANCH  16  18
ENDBRANCH  15  16
ENDBRANCH  14  15
ENDBRANCH   2  14
TORSDOF 10
ENDMDL
MODEL 4
REMARK VINA RESULT:      -7.6      1.516      2.637
REMARK  Name = 2708
REMARK  10 active torsions:
REMARK  status: ('A' for Active; 'I' for Inactive)
REMARK    1  A    between atoms: C_1  and  N_7
REMARK    2  A    between atoms: C_2  and  C_14
REMARK    3  A    between atoms: N_7  and  C_8
REMARK    4  A    between atoms: N_7  and  C_11
REMARK    5  A    between atoms: C_8  and  C_10
REMARK    6  A    between atoms: C_11  and  C_13
REMARK    7  A    between atoms: C_14  and  C_15
REMARK    8  A    between atoms: C_15  and  C_16
REMARK    9  A    between atoms: C_16  and  C_18
REMARK   10  A    between atoms: C_18  and  O_19
REMARK                            x       y       z     vdW  Elec       q    Type
REMARK                         _______ _______ _______ _____ _____    ______ ____
ROOT
ATOM      1  C   UNL     1      34.461 -19.366 -21.001  0.00  0.00    +0.048 C 
ATOM      2  C   UNL     1      34.107 -21.663 -19.485  0.00  0.00    -0.022 C 
ATOM      3  C   UNL     1      33.176 -19.773 -20.642  0.00  0.00    +0.014 C 
ATOM      4  C   UNL     1      35.567 -20.114 -20.598  0.00  0.00    +0.014 C 
ATOM      5  C   UNL     1      32.998 -20.928 -19.879  0.00  0.00    -0.003 C 
ATOM      6  C   UNL     1      35.389 -21.268 -19.836  0.00  0.00    -0.003 C 
ENDROOT
BRANCH   1   7
ATOM      7  N   UNL     1      34.641 -18.199 -21.772  0.00  0.00    -0.305 N 
BRANCH   7   8
ATOM      8  C   UNL     1      35.594 -18.180 -22.864  0.00  0.00    +0.108 C 
BRANCH   8  10
ATOM      9 CL   UNL     1      34.689 -16.992 -25.151  0.00  0.00    -0.112 Cl
ATOM     10  C   UNL     1      34.910 -18.474 -24.189  0.00  0.00    +0.116 C 
ENDBRANCH   8  10
ENDBRANCH   7   8
BRANCH   7  11
ATOM     11  C   UNL     1      33.866 -17.007 -21.491  0.00  0.00    +0.108 C 
BRANCH  11  13
ATOM     12 CL   UNL     1      34.495 -14.546 -22.498  0.00  0.00    -0.112 Cl
ATOM     13  C   UNL     1      34.772 -15.806 -21.269  0.00  0.00    +0.116 C 
ENDBRANCH  11  13
ENDBRANCH   7  11
ENDBRANCH   1   7
BRANCH   2  14
ATOM     14  C   UNL     1      33.914 -22.910 -18.662  0.00  0.00    +0.027 C 
BRANCH  14  15
ATOM     15  C   UNL     1      32.798 -22.813 -17.612  0.00  0.00    +0.016 C 
BRANCH  15  16
ATOM     16  C   UNL     1      33.200 -23.336 -16.229  0.00  0.00    +0.110 C 
BRANCH  16  18
ATOM     17  O   UNL     1      31.033 -24.052 -15.380  0.00  0.00    -0.250 OA
ATOM     18  C   UNL     1      32.053 -23.391 -15.243  0.00  0.00    +0.314 C 
BRANCH  18  19
ATOM     19  O   UNL     1      32.263 -22.571 -14.181  0.00  0.00    -0.480 OA
ATOM     20  H   UNL     1      33.134 -22.312 -13.954  0.00  0.00    +0.295 HD
ENDBRANCH  18  19
ENDBRANCH  16  18
ENDBRANCH  15  16
ENDBRANCH  14  15
ENDBRANCH   2  14
TORSDOF 10
ENDMDL
MODEL 5
REMARK VINA RESULT:      -7.5      2.727      4.166
REMARK  Name = 2708
REMARK  10 active torsions:
REMARK  status: ('A' for Active; 'I' for Inactive)
REMARK    1  A    between atoms: C_1  and  N_7
REMARK    2  A    between atoms: C_2  and  C_14
REMARK    3  A    between atoms: N_7  and  C_8
REMARK    4  A    between atoms: N_7  and  C_11
REMARK    5  A    between atoms: C_8  and  C_10
REMARK    6  A    between atoms: C_11  and  C_13
REMARK    7  A    between atoms: C_14  and  C_15
REMARK    8  A    between atoms: C_15  and  C_16
REMARK    9  A    between atoms: C_16  and  C_18
REMARK   10  A    between atoms: C_18  and  O_19
REMARK                            x       y       z     vdW  Elec       q    Type
REMARK                         _______ _______ _______ _____ _____    ______ ____
ROOT
ATOM      1  C   UNL     1      34.397 -16.336 -23.378  0.00  0.00    +0.048 C 
ATOM      2  C   UNL     1      35.166 -18.494 -21.813  0.00  0.00    -0.022 C 
ATOM      3  C   UNL     1      34.688 -17.562 -23.976  0.00  0.00    +0.014 C 
ATOM      4  C   UNL     1      34.492 -16.196 -21.993  0.00  0.00    +0.014 C 
ATOM      5  C   UNL     1      35.075 -18.648 -23.189  0.00  0.00    -0.003 C 
ATOM      6  C   UNL     1      34.878 -17.280 -21.207  0.00  0.00    -0.003 C 
ENDROOT
BRANCH   1   7
ATOM      7  N   UNL     1      34.006 -15.239 -24.173  0.00  0.00    -0.305 N 
BRANCH   7   8
ATOM      8  C   UNL     1      33.874 -13.919 -23.589  0.00  0.00    +0.108 C 
BRANCH   8  10
ATOM      9 CL   UNL     1      32.463 -13.344 -21.322  0.00  0.00    -0.112 Cl
ATOM     10  C   UNL     1      32.464 -13.690 -23.069  0.00  0.00    +0.116 C 
ENDBRANCH   8  10
ENDBRANCH   7   8
BRANCH   7  11
ATOM     11  C   UNL     1      33.744 -15.414 -25.588  0.00  0.00    +0.108 C 
BRANCH  11  13
ATOM     12 CL   UNL     1      33.511 -13.343 -27.354  0.00  0.00    -0.112 Cl
ATOM     13  C   UNL     1      32.769 -14.364 -26.097  0.00  0.00    +0.116 C 
ENDBRANCH  11  13
ENDBRANCH   7  11
ENDBRANCH   1   7
BRANCH   2  14
ATOM     14  C   UNL     1      35.584 -19.667 -20.963  0.00  0.00    +0.027 C 
BRANCH  14  15
ATOM     15  C   UNL     1      34.419 -20.444 -20.334  0.00  0.00    +0.016 C 
BRANCH  15  16
ATOM     16  C   UNL     1      34.860 -21.603 -19.435  0.00  0.00    +0.110 C 
BRANCH  16  18
ATOM     17  O   UNL     1      32.724 -22.324 -18.515  0.00  0.00    -0.250 OA
ATOM     18  C   UNL     1      33.752 -22.587 -19.124  0.00  0.00    +0.314 C 
BRANCH  18  19
ATOM     19  O   UNL     1      34.049 -23.835 -19.567  0.00  0.00    -0.480 OA
ATOM     20  H   UNL     1      33.362 -24.451 -19.730  0.00  0.00    +0.295 HD
ENDBRANCH  18  19
ENDBRANCH  16  18
ENDBRANCH  15  16
ENDBRANCH  14  15
ENDBRANCH   2  14
TORSDOF 10
ENDMDL
MODEL 6
REMARK VINA RESULT:      -7.4      1.676      2.849
REMARK  Name = 2708
REMARK  10 active torsions:
REMARK  status: ('A' for Active; 'I' for Inactive)
REMARK    1  A    between atoms: C_1  and  N_7
REMARK    2  A    between atoms: C_2  and  C_14
REMARK    3  A    between atoms: N_7  and  C_8
REMARK    4  A    between atoms: N_7  and  C_11
REMARK    5  A    between atoms: C_8  and  C_10
REMARK    6  A    between atoms: C_11  and  C_13
REMARK    7  A    between atoms: C_14  and  C_15
REMARK    8  A    between atoms: C_15  and  C_16
REMARK    9  A    between atoms: C_16  and  C_18
REMARK   10  A    between atoms: C_18  and  O_19
REMARK                            x       y       z     vdW  Elec       q    Type
REMARK                         _______ _______ _______ _____ _____    ______ ____
ROOT
ATOM      1  C   UNL     1      34.991 -18.754 -21.582  0.00  0.00    +0.048 C 
ATOM      2  C   UNL     1      35.398 -20.823 -19.778  0.00  0.00    -0.022 C 
ATOM      3  C   UNL     1      33.910 -19.517 -21.141  0.00  0.00    +0.014 C 
ATOM      4  C   UNL     1      36.276 -19.030 -21.115  0.00  0.00    +0.014 C 
ATOM      5  C   UNL     1      34.115 -20.558 -20.234  0.00  0.00    -0.003 C 
ATOM      6  C   UNL     1      36.481 -20.070 -20.209  0.00  0.00    -0.003 C 
ENDROOT
BRANCH   1   7
ATOM      7  N   UNL     1      34.784 -17.702 -22.498  0.00  0.00    -0.305 N 
BRANCH   7   8
ATOM      8  C   UNL     1      34.566 -17.985 -23.903  0.00  0.00    +0.108 C 
BRANCH   8  10
ATOM      9 CL   UNL     1      33.557 -16.038 -25.532  0.00  0.00    -0.112 Cl
ATOM     10  C   UNL     1      34.972 -16.801 -24.767  0.00  0.00    +0.116 C 
ENDBRANCH   8  10
ENDBRANCH   7   8
BRANCH   7  11
ATOM     11  C   UNL     1      34.773 -16.325 -22.045  0.00  0.00    +0.108 C 
BRANCH  11  13
ATOM     12 CL   UNL     1      32.679 -14.575 -21.921  0.00  0.00    -0.112 Cl
ATOM     13  C   UNL     1      33.501 -16.016 -21.272  0.00  0.00    +0.116 C 
ENDBRANCH  11  13
ENDBRANCH   7  11
ENDBRANCH   1   7
BRANCH   2  14
ATOM     14  C   UNL     1      35.619 -21.946 -18.799  0.00  0.00    +0.027 C 
BRANCH  14  15
ATOM     15  C   UNL     1      36.863 -21.784 -17.913  0.00  0.00    +0.016 C 
BRANCH  15  16
ATOM     16  C   UNL     1      36.579 -21.917 -16.414  0.00  0.00    +0.110 C 
BRANCH  16  18
ATOM     17  O   UNL     1      36.470 -24.015 -15.184  0.00  0.00    -0.250 OA
ATOM     18  C   UNL     1      37.126 -23.189 -15.802  0.00  0.00    +0.314 C 
BRANCH  18  19
ATOM     19  O   UNL     1      38.468 -23.295 -15.980  0.00  0.00    -0.480 OA
ATOM     20  H   UNL     1      38.967 -22.547 -16.243  0.00  0.00    +0.295 HD
ENDBRANCH  18  19
ENDBRANCH  16  18
ENDBRANCH  15  16
ENDBRANCH  14  15
ENDBRANCH   2  14
TORSDOF 10
ENDMDL
MODEL 7
REMARK VINA RESULT:      -7.4      3.078      4.857
REMARK  Name = 2708
REMARK  10 active torsions:
REMARK  status: ('A' for Active; 'I' for Inactive)
REMARK    1  A    between atoms: C_1  and  N_7
REMARK    2  A    between atoms: C_2  and  C_14
REMARK    3  A    between atoms: N_7  and  C_8
REMARK    4  A    between atoms: N_7  and  C_11
REMARK    5  A    between atoms: C_8  and  C_10
REMARK    6  A    between atoms: C_11  and  C_13
REMARK    7  A    between atoms: C_14  and  C_15
REMARK    8  A    between atoms: C_15  and  C_16
REMARK    9  A    between atoms: C_16  and  C_18
REMARK   10  A    between atoms: C_18  and  O_19
REMARK                            x       y       z     vdW  Elec       q    Type
REMARK                         _______ _______ _______ _____ _____    ______ ____
ROOT
ATOM      1  C   UNL     1      34.389 -16.423 -23.315  0.00  0.00    +0.048 C 
ATOM      2  C   UNL     1      35.566 -18.293 -21.637  0.00  0.00    -0.022 C 
ATOM      3  C   UNL     1      34.960 -17.578 -23.850  0.00  0.00    +0.014 C 
ATOM      4  C   UNL     1      34.409 -16.210 -21.936  0.00  0.00    +0.014 C 
ATOM      5  C   UNL     1      35.552 -18.519 -23.006  0.00  0.00    -0.003 C 
ATOM      6  C   UNL     1      35.000 -17.150 -21.093  0.00  0.00    -0.003 C 
ENDROOT
BRANCH   1   7
ATOM      7  N   UNL     1      33.791 -15.472 -24.167  0.00  0.00    -0.305 N 
BRANCH   7   8
ATOM      8  C   UNL     1      33.913 -15.596 -25.606  0.00  0.00    +0.108 C 
BRANCH   8  10
ATOM      9 CL   UNL     1      33.433 -13.593 -27.400  0.00  0.00    -0.112 Cl
ATOM     10  C   UNL     1      32.793 -14.851 -26.314  0.00  0.00    +0.116 C 
ENDBRANCH   8  10
ENDBRANCH   7   8
BRANCH   7  11
ATOM     11  C   UNL     1      33.034 -14.365 -23.616  0.00  0.00    +0.108 C 
BRANCH  11  13
ATOM     12 CL   UNL     1      33.734 -11.861 -24.454  0.00  0.00    -0.112 Cl
ATOM     13  C   UNL     1      33.944 -13.192 -23.288  0.00  0.00    +0.116 C 
ENDBRANCH  11  13
ENDBRANCH   7  11
ENDBRANCH   1   7
BRANCH   2  14
ATOM     14  C   UNL     1      36.204 -19.310 -20.726  0.00  0.00    +0.027 C 
BRANCH  14  15
ATOM     15  C   UNL     1      35.609 -20.721 -20.830  0.00  0.00    +0.016 C 
BRANCH  15  16
ATOM     16  C   UNL     1      34.900 -21.192 -19.556  0.00  0.00    +0.110 C 
BRANCH  16  18
ATOM     17  O   UNL     1      32.721 -20.333 -20.223  0.00  0.00    -0.250 OA
ATOM     18  C   UNL     1      33.390 -21.192 -19.666  0.00  0.00    +0.314 C 
BRANCH  18  19
ATOM     19  O   UNL     1      32.840 -22.255 -19.024  0.00  0.00    -0.480 OA
ATOM     20  H   UNL     1      32.701 -23.060 -19.483  0.00  0.00    +0.295 HD
ENDBRANCH  18  19
ENDBRANCH  16  18
ENDBRANCH  15  16
ENDBRANCH  14  15
ENDBRANCH   2  14
TORSDOF 10
ENDMDL
MODEL 8
REMARK VINA RESULT:      -7.3      6.447      8.250
REMARK  Name = 2708
REMARK  10 active torsions:
REMARK  status: ('A' for Active; 'I' for Inactive)
REMARK    1  A    between atoms: C_1  and  N_7
REMARK    2  A    between atoms: C_2  and  C_14
REMARK    3  A    between atoms: N_7  and  C_8
REMARK    4  A    between atoms: N_7  and  C_11
REMARK    5  A    between atoms: C_8  and  C_10
REMARK    6  A    between atoms: C_11  and  C_13
REMARK    7  A    between atoms: C_14  and  C_15
REMARK    8  A    between atoms: C_15  and  C_16
REMARK    9  A    between atoms: C_16  and  C_18
REMARK   10  A    between atoms: C_18  and  O_19
REMARK                            x       y       z     vdW  Elec       q    Type
REMARK                         _______ _______ _______ _____ _____    ______ ____
ROOT
ATOM      1  C   UNL     1      34.472 -23.815 -15.406  0.00  0.00    +0.048 C 
ATOM      2  C   UNL     1      31.876 -23.134 -16.109  0.00  0.00    -0.022 C 
ATOM      3  C   UNL     1      33.477 -23.756 -14.429  0.00  0.00    +0.014 C 
ATOM      4  C   UNL     1      34.160 -23.532 -16.736  0.00  0.00    +0.014 C 
ATOM      5  C   UNL     1      32.172 -23.413 -14.783  0.00  0.00    -0.003 C 
ATOM      6  C   UNL     1      32.855 -23.190 -17.090  0.00  0.00    -0.003 C 
ENDROOT
BRANCH   1   7
ATOM      7  N   UNL     1      35.791 -24.160 -15.049  0.00  0.00    -0.305 N 
BRANCH   7   8
ATOM      8  C   UNL     1      36.757 -23.130 -14.721  0.00  0.00    +0.108 C 
BRANCH   8  10
ATOM      9 CL   UNL     1      37.102 -21.463 -16.856  0.00  0.00    -0.112 Cl
ATOM     10  C   UNL     1      37.676 -22.849 -15.898  0.00  0.00    +0.116 C 
ENDBRANCH   8  10
ENDBRANCH   7   8
BRANCH   7  11
ATOM     11  C   UNL     1      36.196 -25.551 -14.992  0.00  0.00    +0.108 C 
BRANCH  11  13
ATOM     12 CL   UNL     1      38.765 -25.987 -14.172  0.00  0.00    -0.112 Cl
ATOM     13  C   UNL     1      37.041 -25.823 -13.757  0.00  0.00    +0.116 C 
ENDBRANCH  11  13
ENDBRANCH   7  11
ENDBRANCH   1   7
BRANCH   2  14
ATOM     14  C   UNL     1      30.465 -22.765 -16.491  0.00  0.00    +0.027 C 
BRANCH  14  15
ATOM     15  C   UNL     1      29.378 -23.458 -15.657  0.00  0.00    +0.016 C 
BRANCH  15  16
ATOM     16  C   UNL     1      28.040 -22.711 -15.637  0.00  0.00    +0.110 C 
BRANCH  16  18
ATOM     17  O   UNL     1      27.051 -21.375 -17.415  0.00  0.00    -0.250 OA
ATOM     18  C   UNL     1      27.468 -22.453 -17.014  0.00  0.00    +0.314 C 
BRANCH  18  19
ATOM     19  O   UNL     1      27.425 -23.586 -17.761  0.00  0.00    -0.480 OA
ATOM     20  H   UNL     1      28.121 -24.210 -17.708  0.00  0.00    +0.295 HD
ENDBRANCH  18  19
ENDBRANCH  16  18
ENDBRANCH  15  16
ENDBRANCH  14  15
ENDBRANCH   2  14
TORSDOF 10
ENDMDL
MODEL 9
REMARK VINA RESULT:      -7.3      2.516      4.334
REMARK  Name = 2708
REMARK  10 active torsions:
REMARK  status: ('A' for Active; 'I' for Inactive)
REMARK    1  A    between atoms: C_1  and  N_7
REMARK    2  A    between atoms: C_2  and  C_14
REMARK    3  A    between atoms: N_7  and  C_8
REMARK    4  A    between atoms: N_7  and  C_11
REMARK    5  A    between atoms: C_8  and  C_10
REMARK    6  A    between atoms: C_11  and  C_13
REMARK    7  A    between atoms: C_14  and  C_15
REMARK    8  A    between atoms: C_15  and  C_16
REMARK    9  A    between atoms: C_16  and  C_18
REMARK   10  A    between atoms: C_18  and  O_19
REMARK                            x       y       z     vdW  Elec       q    Type
REMARK                         _______ _______ _______ _____ _____    ______ ____
ROOT
ATOM      1  C   UNL     1      34.580 -16.706 -23.313  0.00  0.00    +0.048 C 
ATOM      2  C   UNL     1      35.310 -18.923 -21.812  0.00  0.00    -0.022 C 
ATOM      3  C   UNL     1      34.920 -16.556 -21.968  0.00  0.00    +0.014 C 
ATOM      4  C   UNL     1      34.608 -17.970 -23.902  0.00  0.00    +0.014 C 
ATOM      5  C   UNL     1      35.287 -17.671 -21.213  0.00  0.00    -0.003 C 
ATOM      6  C   UNL     1      34.975 -19.084 -23.148  0.00  0.00    -0.003 C 
ENDROOT
BRANCH   1   7
ATOM      7  N   UNL     1      34.209 -15.580 -24.076  0.00  0.00    -0.305 N 
BRANCH   7   8
ATOM      8  C   UNL     1      34.016 -15.695 -25.508  0.00  0.00    +0.108 C 
BRANCH   8  10
ATOM      9 CL   UNL     1      33.452 -13.663 -27.245  0.00  0.00    -0.112 Cl
ATOM     10  C   UNL     1      32.893 -14.787 -25.981  0.00  0.00    +0.116 C 
ENDBRANCH   8  10
ENDBRANCH   7   8
BRANCH   7  11
ATOM     11  C   UNL     1      34.001 -14.296 -23.437  0.00  0.00    +0.108 C 
BRANCH  11  13
ATOM     12 CL   UNL     1      32.807 -13.859 -21.019  0.00  0.00    -0.112 Cl
ATOM     13  C   UNL     1      32.645 -14.241 -22.751  0.00  0.00    +0.116 C 
ENDBRANCH  11  13
ENDBRANCH   7  11
ENDBRANCH   1   7
BRANCH   2  14
ATOM     14  C   UNL     1      35.707 -20.126 -20.996  0.00  0.00    +0.027 C 
BRANCH  14  15
ATOM     15  C   UNL     1      34.614 -20.641 -20.049  0.00  0.00    +0.016 C 
BRANCH  15  16
ATOM     16  C   UNL     1      35.034 -21.859 -19.219  0.00  0.00    +0.110 C 
BRANCH  16  18
ATOM     17  O   UNL     1      33.962 -23.560 -17.846  0.00  0.00    -0.250 OA
ATOM     18  C   UNL     1      33.869 -22.623 -18.627  0.00  0.00    +0.314 C 
BRANCH  18  19
ATOM     19  O   UNL     1      32.680 -22.173 -19.103  0.00  0.00    -0.480 OA
ATOM     20  H   UNL     1      31.926 -22.730 -19.084  0.00  0.00    +0.295 HD
ENDBRANCH  18  19
ENDBRANCH  16  18
ENDBRANCH  15  16
ENDBRANCH  14  15
ENDBRANCH   2  14
TORSDOF 10
ENDMDL
