MODEL 1
REMARK VINA RESULT:     -10.9      0.000      0.000
REMARK  Name = 5326926
REMARK  6 active torsions:
REMARK  status: ('A' for Active; 'I' for Inactive)
REMARK    1  A    between atoms: C_5  and  O_9
REMARK    2  A    between atoms: C_6  and  O_22
REMARK    3  A    between atoms: O_9  and  C_10
REMARK    4  A    between atoms: C_15  and  C_18
REMARK    5  A    between atoms: O_22  and  C_23
REMARK    6  A    between atoms: C_28  and  C_31
REMARK                            x       y       z     vdW  Elec       q    Type
REMARK                         _______ _______ _______ _____ _____    ______ ____
ROOT
ATOM      1  O   UNL     1      34.909 -15.510 -20.670  0.00  0.00    -0.346 OA
ATOM      2  O   UNL     1      34.488 -16.199 -23.620  0.00  0.00    -0.346 OA
ATOM      3  C   UNL     1      34.145 -16.555 -21.301  0.00  0.00    +0.188 C 
ATOM      4  C   UNL     1      33.544 -15.961 -22.561  0.00  0.00    +0.188 C 
ATOM      5  C   UNL     1      35.059 -17.634 -21.824  0.00  0.00    +0.225 C 
ATOM      6  C   UNL     1      33.449 -14.495 -22.215  0.00  0.00    +0.225 C 
ATOM      7  C   UNL     1      34.696 -14.283 -21.385  0.00  0.00    +0.188 C 
ATOM      8  C   UNL     1      35.537 -17.054 -23.139  0.00  0.00    +0.188 C 
ENDROOT
BRANCH   5   9
ATOM      9  O   UNL     1      34.309 -18.813 -22.092  0.00  0.00    -0.474 OA
BRANCH   9  10
ATOM     10  C   UNL     1      34.282 -19.765 -21.107  0.00  0.00    +0.139 C 
ATOM     11  C   UNL     1      35.472 -20.334 -20.666  0.00  0.00    +0.037 C 
ATOM     12  C   UNL     1      33.065 -20.151 -20.557  0.00  0.00    +0.037 C 
ATOM     13  C   UNL     1      35.443 -21.302 -19.662  0.00  0.00    +0.006 C 
ATOM     14  C   UNL     1      33.037 -21.119 -19.553  0.00  0.00    +0.006 C 
ATOM     15  C   UNL     1      34.226 -21.695 -19.106  0.00  0.00    +0.031 C 
BRANCH  15  18
ATOM     16  N   UNL     1      33.090 -23.535 -17.885  0.00  0.00    -0.343 N 
ATOM     17  N   UNL     1      35.231 -22.844 -17.250  0.00  0.00    -0.285 NA
ATOM     18  C   UNL     1      34.196 -22.704 -18.059  0.00  0.00    +0.117 C 
ATOM     19  H   UNL     1      33.092 -24.212 -17.170  0.00  0.00    +0.144 HD
ATOM     20  H   UNL     1      32.309 -23.445 -18.475  0.00  0.00    +0.144 HD
ATOM     21  H   UNL     1      35.213 -23.526 -16.540  0.00  0.00    +0.188 HD
ENDBRANCH  15  18
ENDBRANCH   9  10
ENDBRANCH   5   9
BRANCH   6  22
ATOM     22  O   UNL     1      33.402 -13.667 -23.354  0.00  0.00    -0.474 OA
BRANCH  22  23
ATOM     23  C   UNL     1      32.962 -12.376 -23.177  0.00  0.00    +0.139 C 
ATOM     24  C   UNL     1      33.565 -11.346 -23.887  0.00  0.00    +0.037 C 
ATOM     25  C   UNL     1      31.921 -12.124 -22.294  0.00  0.00    +0.037 C 
ATOM     26  C   UNL     1      33.118 -10.037 -23.708  0.00  0.00    +0.006 C 
ATOM     27  C   UNL     1      31.476 -10.814 -22.116  0.00  0.00    +0.006 C 
ATOM     28  C   UNL     1      32.073  -9.772 -22.823  0.00  0.00    +0.031 C 
BRANCH  28  31
ATOM     29  N   UNL     1      30.848  -7.760 -23.611  0.00  0.00    -0.343 N 
ATOM     30  N   UNL     1      31.907  -7.753 -21.527  0.00  0.00    -0.285 NA
ATOM     31  C   UNL     1      31.608  -8.406 -22.637  0.00  0.00    +0.117 C 
ATOM     32  H   UNL     1      30.543  -6.835 -23.464  0.00  0.00    +0.144 HD
ATOM     33  H   UNL     1      30.617  -8.228 -24.445  0.00  0.00    +0.144 HD
ATOM     34  H   UNL     1      31.593  -6.830 -21.400  0.00  0.00    +0.188 HD
ENDBRANCH  28  31
ENDBRANCH  22  23
ENDBRANCH   6  22
TORSDOF 6
ENDMDL
MODEL 2
REMARK VINA RESULT:     -10.9      0.038      1.435
REMARK  Name = 5326926
REMARK  6 active torsions:
REMARK  status: ('A' for Active; 'I' for Inactive)
REMARK    1  A    between atoms: C_5  and  O_9
REMARK    2  A    between atoms: C_6  and  O_22
REMARK    3  A    between atoms: O_9  and  C_10
REMARK    4  A    between atoms: C_15  and  C_18
REMARK    5  A    between atoms: O_22  and  C_23
REMARK    6  A    between atoms: C_28  and  C_31
REMARK                            x       y       z     vdW  Elec       q    Type
REMARK                         _______ _______ _______ _____ _____    ______ ____
ROOT
ATOM      1  O   UNL     1      34.903 -15.484 -20.679  0.00  0.00    -0.346 OA
ATOM      2  O   UNL     1      34.471 -16.175 -23.627  0.00  0.00    -0.346 OA
ATOM      3  C   UNL     1      34.139 -16.531 -21.307  0.00  0.00    +0.188 C 
ATOM      4  C   UNL     1      33.532 -15.939 -22.564  0.00  0.00    +0.188 C 
ATOM      5  C   UNL     1      35.052 -17.609 -21.833  0.00  0.00    +0.225 C 
ATOM      6  C   UNL     1      33.436 -14.472 -22.218  0.00  0.00    +0.225 C 
ATOM      7  C   UNL     1      34.686 -14.259 -21.394  0.00  0.00    +0.188 C 
ATOM      8  C   UNL     1      35.524 -17.029 -23.150  0.00  0.00    +0.188 C 
ENDROOT
BRANCH   5   9
ATOM      9  O   UNL     1      34.303 -18.790 -22.097  0.00  0.00    -0.474 OA
BRANCH   9  10
ATOM     10  C   UNL     1      34.285 -19.743 -21.113  0.00  0.00    +0.139 C 
ATOM     11  C   UNL     1      33.071 -20.147 -20.569  0.00  0.00    +0.037 C 
ATOM     12  C   UNL     1      35.480 -20.297 -20.669  0.00  0.00    +0.037 C 
ATOM     13  C   UNL     1      33.052 -21.117 -19.568  0.00  0.00    +0.006 C 
ATOM     14  C   UNL     1      35.461 -21.268 -19.669  0.00  0.00    +0.006 C 
ATOM     15  C   UNL     1      34.247 -21.678 -19.117  0.00  0.00    +0.031 C 
BRANCH  15  18
ATOM     16  N   UNL     1      33.128 -23.528 -17.897  0.00  0.00    -0.343 N 
ATOM     17  N   UNL     1      35.267 -22.826 -17.269  0.00  0.00    -0.285 NA
ATOM     18  C   UNL     1      34.228 -22.691 -18.073  0.00  0.00    +0.117 C 
ATOM     19  H   UNL     1      33.137 -24.207 -17.184  0.00  0.00    +0.144 HD
ATOM     20  H   UNL     1      32.344 -23.441 -18.484  0.00  0.00    +0.144 HD
ATOM     21  H   UNL     1      35.256 -23.510 -16.561  0.00  0.00    +0.188 HD
ENDBRANCH  15  18
ENDBRANCH   9  10
ENDBRANCH   5   9
BRANCH   6  22
ATOM     22  O   UNL     1      33.382 -13.646 -23.358  0.00  0.00    -0.474 OA
BRANCH  22  23
ATOM     23  C   UNL     1      32.947 -12.353 -23.178  0.00  0.00    +0.139 C 
ATOM     24  C   UNL     1      31.921 -12.097 -22.279  0.00  0.00    +0.037 C 
ATOM     25  C   UNL     1      33.542 -11.326 -23.898  0.00  0.00    +0.037 C 
ATOM     26  C   UNL     1      31.481 -10.786 -22.096  0.00  0.00    +0.006 C 
ATOM     27  C   UNL     1      33.100 -10.016 -23.714  0.00  0.00    +0.006 C 
ATOM     28  C   UNL     1      32.070  -9.746 -22.813  0.00  0.00    +0.031 C 
BRANCH  28  31
ATOM     29  N   UNL     1      31.910  -7.669 -21.460  0.00  0.00    -0.343 N 
ATOM     30  N   UNL     1      30.891  -7.789 -23.560  0.00  0.00    -0.285 NA
ATOM     31  C   UNL     1      31.611  -8.380 -22.622  0.00  0.00    +0.117 C 
ATOM     32  H   UNL     1      31.589  -6.745 -21.352  0.00  0.00    +0.144 HD
ATOM     33  H   UNL     1      32.442  -8.093 -20.748  0.00  0.00    +0.144 HD
ATOM     34  H   UNL     1      30.579  -6.865 -23.432  0.00  0.00    +0.188 HD
ENDBRANCH  28  31
ENDBRANCH  22  23
ENDBRANCH   6  22
TORSDOF 6
ENDMDL
MODEL 3
REMARK VINA RESULT:     -10.8      1.168     10.111
REMARK  Name = 5326926
REMARK  6 active torsions:
REMARK  status: ('A' for Active; 'I' for Inactive)
REMARK    1  A    between atoms: C_5  and  O_9
REMARK    2  A    between atoms: C_6  and  O_22
REMARK    3  A    between atoms: O_9  and  C_10
REMARK    4  A    between atoms: C_15  and  C_18
REMARK    5  A    between atoms: O_22  and  C_23
REMARK    6  A    between atoms: C_28  and  C_31
REMARK                            x       y       z     vdW  Elec       q    Type
REMARK                         _______ _______ _______ _____ _____    ______ ____
ROOT
ATOM      1  O   UNL     1      34.418 -15.781 -24.527  0.00  0.00    -0.346 OA
ATOM      2  O   UNL     1      34.460 -15.140 -21.537  0.00  0.00    -0.346 OA
ATOM      3  C   UNL     1      33.364 -15.398 -23.623  0.00  0.00    +0.188 C 
ATOM      4  C   UNL     1      33.661 -16.065 -22.294  0.00  0.00    +0.188 C 
ATOM      5  C   UNL     1      33.450 -13.928 -23.304  0.00  0.00    +0.225 C 
ATOM      6  C   UNL     1      34.456 -17.279 -22.711  0.00  0.00    +0.225 C 
ATOM      7  C   UNL     1      35.257 -16.749 -23.879  0.00  0.00    +0.188 C 
ATOM      8  C   UNL     1      34.520 -13.884 -22.233  0.00  0.00    +0.188 C 
ENDROOT
BRANCH   5   9
ATOM      9  O   UNL     1      32.222 -13.482 -22.741  0.00  0.00    -0.474 OA
BRANCH   9  10
ATOM     10  C   UNL     1      32.164 -12.173 -22.342  0.00  0.00    +0.139 C 
ATOM     11  C   UNL     1      32.671 -11.178 -23.171  0.00  0.00    +0.037 C 
ATOM     12  C   UNL     1      31.599 -11.852 -21.113  0.00  0.00    +0.037 C 
ATOM     13  C   UNL     1      32.611  -9.845 -22.765  0.00  0.00    +0.006 C 
ATOM     14  C   UNL     1      31.539 -10.519 -20.709  0.00  0.00    +0.006 C 
ATOM     15  C   UNL     1      32.045  -9.515 -21.534  0.00  0.00    +0.031 C 
BRANCH  15  18
ATOM     16  N   UNL     1      32.384  -7.738 -19.833  0.00  0.00    -0.343 N 
ATOM     17  N   UNL     1      31.537  -7.203 -21.945  0.00  0.00    -0.285 NA
ATOM     18  C   UNL     1      31.983  -8.125 -21.111  0.00  0.00    +0.117 C 
ATOM     19  H   UNL     1      32.333  -6.791 -19.568  0.00  0.00    +0.144 HD
ATOM     20  H   UNL     1      32.716  -8.410 -19.197  0.00  0.00    +0.144 HD
ATOM     21  H   UNL     1      31.494  -6.261 -21.660  0.00  0.00    +0.188 HD
ENDBRANCH  15  18
ENDBRANCH   9  10
ENDBRANCH   5   9
BRANCH   6  22
ATOM     22  O   UNL     1      35.266 -17.783 -21.673  0.00  0.00    -0.474 OA
BRANCH  22  23
ATOM     23  C   UNL     1      34.844 -18.934 -21.047  0.00  0.00    +0.139 C 
ATOM     24  C   UNL     1      33.484 -19.175 -20.907  0.00  0.00    +0.037 C 
ATOM     25  C   UNL     1      35.785 -19.835 -20.570  0.00  0.00    +0.037 C 
ATOM     26  C   UNL     1      33.057 -20.342 -20.273  0.00  0.00    +0.006 C 
ATOM     27  C   UNL     1      35.356 -21.001 -19.936  0.00  0.00    +0.006 C 
ATOM     28  C   UNL     1      33.993 -21.255 -19.789  0.00  0.00    +0.031 C 
BRANCH  28  31
ATOM     29  N   UNL     1      32.527 -22.450 -18.178  0.00  0.00    -0.343 N 
ATOM     30  N   UNL     1      34.114 -23.628 -19.425  0.00  0.00    -0.285 NA
ATOM     31  C   UNL     1      33.547 -22.472 -19.129  0.00  0.00    +0.117 C 
ATOM     32  H   UNL     1      32.241 -23.285 -17.743  0.00  0.00    +0.144 HD
ATOM     33  H   UNL     1      32.094 -21.598 -17.941  0.00  0.00    +0.144 HD
ATOM     34  H   UNL     1      33.813 -24.452 -18.979  0.00  0.00    +0.188 HD
ENDBRANCH  28  31
ENDBRANCH  22  23
ENDBRANCH   6  22
TORSDOF 6
ENDMDL
MODEL 4
REMARK VINA RESULT:     -10.8      1.527     10.630
REMARK  Name = 5326926
REMARK  6 active torsions:
REMARK  status: ('A' for Active; 'I' for Inactive)
REMARK    1  A    between atoms: C_5  and  O_9
REMARK    2  A    between atoms: C_6  and  O_22
REMARK    3  A    between atoms: O_9  and  C_10
REMARK    4  A    between atoms: C_15  and  C_18
REMARK    5  A    between atoms: O_22  and  C_23
REMARK    6  A    between atoms: C_28  and  C_31
REMARK                            x       y       z     vdW  Elec       q    Type
REMARK                         _______ _______ _______ _____ _____    ______ ____
ROOT
ATOM      1  O   UNL     1      32.770 -14.519 -21.474  0.00  0.00    -0.346 OA
ATOM      2  O   UNL     1      33.934 -15.270 -24.201  0.00  0.00    -0.346 OA
ATOM      3  C   UNL     1      33.782 -13.887 -22.281  0.00  0.00    +0.188 C 
ATOM      4  C   UNL     1      34.574 -14.999 -22.942  0.00  0.00    +0.188 C 
ATOM      5  C   UNL     1      33.154 -13.164 -23.445  0.00  0.00    +0.225 C 
ATOM      6  C   UNL     1      34.403 -16.141 -21.970  0.00  0.00    +0.225 C 
ATOM      7  C   UNL     1      32.984 -15.938 -21.488  0.00  0.00    +0.188 C 
ATOM      8  C   UNL     1      32.918 -14.282 -24.440  0.00  0.00    +0.188 C 
ENDROOT
BRANCH   5   9
ATOM      9  O   UNL     1      34.086 -12.246 -24.004  0.00  0.00    -0.474 OA
BRANCH   9  10
ATOM     10  C   UNL     1      33.797 -10.914 -23.870  0.00  0.00    +0.139 C 
ATOM     11  C   UNL     1      34.736  -9.963 -24.254  0.00  0.00    +0.037 C 
ATOM     12  C   UNL     1      32.567 -10.525 -23.351  0.00  0.00    +0.037 C 
ATOM     13  C   UNL     1      34.441  -8.607 -24.118  0.00  0.00    +0.006 C 
ATOM     14  C   UNL     1      32.272  -9.169 -23.215  0.00  0.00    +0.006 C 
ATOM     15  C   UNL     1      33.209  -8.209 -23.598  0.00  0.00    +0.031 C 
BRANCH  15  18
ATOM     16  N   UNL     1      32.497  -6.261 -22.234  0.00  0.00    -0.343 N 
ATOM     17  N   UNL     1      33.001  -5.992 -24.500  0.00  0.00    -0.285 NA
ATOM     18  C   UNL     1      32.901  -6.795 -23.456  0.00  0.00    +0.117 C 
ATOM     19  H   UNL     1      32.295  -5.301 -22.160  0.00  0.00    +0.144 HD
ATOM     20  H   UNL     1      32.415  -6.843 -21.445  0.00  0.00    +0.144 HD
ATOM     21  H   UNL     1      32.793  -5.034 -24.406  0.00  0.00    +0.188 HD
ENDBRANCH  15  18
ENDBRANCH   9  10
ENDBRANCH   5   9
BRANCH   6  22
ATOM     22  O   UNL     1      34.605 -17.401 -22.568  0.00  0.00    -0.474 OA
BRANCH  22  23
ATOM     23  C   UNL     1      34.835 -18.467 -21.729  0.00  0.00    +0.139 C 
ATOM     24  C   UNL     1      33.768 -19.255 -21.320  0.00  0.00    +0.037 C 
ATOM     25  C   UNL     1      36.129 -18.738 -21.309  0.00  0.00    +0.037 C 
ATOM     26  C   UNL     1      34.000 -20.336 -20.471  0.00  0.00    +0.006 C 
ATOM     27  C   UNL     1      36.360 -19.820 -20.459  0.00  0.00    +0.006 C 
ATOM     28  C   UNL     1      35.296 -20.619 -20.040  0.00  0.00    +0.031 C 
BRANCH  28  31
ATOM     29  N   UNL     1      36.569 -21.724 -18.217  0.00  0.00    -0.343 N 
ATOM     30  N   UNL     1      34.775 -22.823 -19.234  0.00  0.00    -0.285 NA
ATOM     31  C   UNL     1      35.539 -21.747 -19.155  0.00  0.00    +0.117 C 
ATOM     32  H   UNL     1      36.716 -22.499 -17.627  0.00  0.00    +0.144 HD
ATOM     33  H   UNL     1      37.151 -20.933 -18.144  0.00  0.00    +0.144 HD
ATOM     34  H   UNL     1      34.938 -23.587 -18.636  0.00  0.00    +0.188 HD
ENDBRANCH  28  31
ENDBRANCH  22  23
ENDBRANCH   6  22
TORSDOF 6
ENDMDL
MODEL 5
REMARK VINA RESULT:     -10.2      1.606     10.080
REMARK  Name = 5326926
REMARK  6 active torsions:
REMARK  status: ('A' for Active; 'I' for Inactive)
REMARK    1  A    between atoms: C_5  and  O_9
REMARK    2  A    between atoms: C_6  and  O_22
REMARK    3  A    between atoms: O_9  and  C_10
REMARK    4  A    between atoms: C_15  and  C_18
REMARK    5  A    between atoms: O_22  and  C_23
REMARK    6  A    between atoms: C_28  and  C_31
REMARK                            x       y       z     vdW  Elec       q    Type
REMARK                         _______ _______ _______ _____ _____    ______ ____
ROOT
ATOM      1  O   UNL     1      34.807 -15.014 -20.422  0.00  0.00    -0.346 OA
ATOM      2  O   UNL     1      32.309 -16.229 -21.702  0.00  0.00    -0.346 OA
ATOM      3  C   UNL     1      33.866 -14.471 -21.366  0.00  0.00    +0.188 C 
ATOM      4  C   UNL     1      33.465 -15.606 -22.289  0.00  0.00    +0.188 C 
ATOM      5  C   UNL     1      32.575 -14.110 -20.676  0.00  0.00    +0.225 C 
ATOM      6  C   UNL     1      34.674 -16.509 -22.236  0.00  0.00    +0.225 C 
ATOM      7  C   UNL     1      35.115 -16.365 -20.796  0.00  0.00    +0.188 C 
ATOM      8  C   UNL     1      31.864 -15.444 -20.584  0.00  0.00    +0.188 C 
ENDROOT
BRANCH   5   9
ATOM      9  O   UNL     1      31.810 -13.243 -21.506  0.00  0.00    -0.474 OA
BRANCH   9  10
ATOM     10  C   UNL     1      31.923 -11.899 -21.265  0.00  0.00    +0.139 C 
ATOM     11  C   UNL     1      32.156 -11.027 -22.323  0.00  0.00    +0.037 C 
ATOM     12  C   UNL     1      31.804 -11.420 -19.965  0.00  0.00    +0.037 C 
ATOM     13  C   UNL     1      32.270  -9.659 -22.077  0.00  0.00    +0.006 C 
ATOM     14  C   UNL     1      31.918 -10.052 -19.720  0.00  0.00    +0.006 C 
ATOM     15  C   UNL     1      32.151  -9.171 -20.775  0.00  0.00    +0.031 C 
BRANCH  15  18
ATOM     16  N   UNL     1      31.639  -6.807 -21.335  0.00  0.00    -0.343 N 
ATOM     17  N   UNL     1      32.991  -7.317 -19.498  0.00  0.00    -0.285 NA
ATOM     18  C   UNL     1      32.271  -7.744 -20.519  0.00  0.00    +0.117 C 
ATOM     19  H   UNL     1      31.733  -5.846 -21.142  0.00  0.00    +0.144 HD
ATOM     20  H   UNL     1      31.100  -7.105 -22.102  0.00  0.00    +0.144 HD
ATOM     21  H   UNL     1      33.074  -6.352 -19.323  0.00  0.00    +0.188 HD
ENDBRANCH  15  18
ENDBRANCH   9  10
ENDBRANCH   5   9
BRANCH   6  22
ATOM     22  O   UNL     1      34.377 -17.840 -22.588  0.00  0.00    -0.474 OA
BRANCH  22  23
ATOM     23  C   UNL     1      34.663 -18.816 -21.661  0.00  0.00    +0.139 C 
ATOM     24  C   UNL     1      35.985 -19.067 -21.320  0.00  0.00    +0.037 C 
ATOM     25  C   UNL     1      33.625 -19.532 -21.082  0.00  0.00    +0.037 C 
ATOM     26  C   UNL     1      36.274 -20.055 -20.380  0.00  0.00    +0.006 C 
ATOM     27  C   UNL     1      33.916 -20.521 -20.142  0.00  0.00    +0.006 C 
ATOM     28  C   UNL     1      35.240 -20.781 -19.790  0.00  0.00    +0.031 C 
BRANCH  28  31
ATOM     29  N   UNL     1      36.696 -21.755 -18.029  0.00  0.00    -0.343 N 
ATOM     30  N   UNL     1      34.716 -22.831 -18.648  0.00  0.00    -0.285 NA
ATOM     31  C   UNL     1      35.543 -21.812 -18.810  0.00  0.00    +0.117 C 
ATOM     32  H   UNL     1      36.882 -22.463 -17.371  0.00  0.00    +0.144 HD
ATOM     33  H   UNL     1      37.326 -21.005 -18.137  0.00  0.00    +0.144 HD
ATOM     34  H   UNL     1      34.920 -23.529 -17.985  0.00  0.00    +0.188 HD
ENDBRANCH  28  31
ENDBRANCH  22  23
ENDBRANCH   6  22
TORSDOF 6
ENDMDL
MODEL 6
REMARK VINA RESULT:      -9.9      4.802     11.723
REMARK  Name = 5326926
REMARK  6 active torsions:
REMARK  status: ('A' for Active; 'I' for Inactive)
REMARK    1  A    between atoms: C_5  and  O_9
REMARK    2  A    between atoms: C_6  and  O_22
REMARK    3  A    between atoms: O_9  and  C_10
REMARK    4  A    between atoms: C_15  and  C_18
REMARK    5  A    between atoms: O_22  and  C_23
REMARK    6  A    between atoms: C_28  and  C_31
REMARK                            x       y       z     vdW  Elec       q    Type
REMARK                         _______ _______ _______ _____ _____    ______ ____
ROOT
ATOM      1  O   UNL     1      33.041 -22.299 -19.059  0.00  0.00    -0.346 OA
ATOM      2  O   UNL     1      36.098 -22.354 -18.977  0.00  0.00    -0.346 OA
ATOM      3  C   UNL     1      34.006 -21.238 -18.936  0.00  0.00    +0.188 C 
ATOM      4  C   UNL     1      35.138 -21.771 -18.078  0.00  0.00    +0.188 C 
ATOM      5  C   UNL     1      34.668 -20.970 -20.263  0.00  0.00    +0.225 C 
ATOM      6  C   UNL     1      34.445 -22.820 -17.242  0.00  0.00    +0.225 C 
ATOM      7  C   UNL     1      33.442 -23.392 -18.218  0.00  0.00    +0.188 C 
ATOM      8  C   UNL     1      35.723 -22.055 -20.332  0.00  0.00    +0.188 C 
ENDROOT
BRANCH   5   9
ATOM      9  O   UNL     1      35.318 -19.704 -20.232  0.00  0.00    -0.474 OA
BRANCH   9  10
ATOM     10  C   UNL     1      35.094 -18.869 -21.295  0.00  0.00    +0.139 C 
ATOM     11  C   UNL     1      34.956 -19.402 -22.572  0.00  0.00    +0.037 C 
ATOM     12  C   UNL     1      35.008 -17.497 -21.086  0.00  0.00    +0.037 C 
ATOM     13  C   UNL     1      34.727 -18.552 -23.653  0.00  0.00    +0.006 C 
ATOM     14  C   UNL     1      34.779 -16.648 -22.168  0.00  0.00    +0.006 C 
ATOM     15  C   UNL     1      34.639 -17.174 -23.451  0.00  0.00    +0.031 C 
BRANCH  15  18
ATOM     16  N   UNL     1      33.877 -15.008 -24.397  0.00  0.00    -0.343 N 
ATOM     17  N   UNL     1      34.680 -16.692 -25.805  0.00  0.00    -0.285 NA
ATOM     18  C   UNL     1      34.400 -16.287 -24.579  0.00  0.00    +0.117 C 
ATOM     19  H   UNL     1      33.724 -14.425 -25.175  0.00  0.00    +0.144 HD
ATOM     20  H   UNL     1      33.660 -14.689 -23.492  0.00  0.00    +0.144 HD
ATOM     21  H   UNL     1      34.519 -16.094 -26.570  0.00  0.00    +0.188 HD
ENDBRANCH  15  18
ENDBRANCH   9  10
ENDBRANCH   5   9
BRANCH   6  22
ATOM     22  O   UNL     1      35.335 -23.790 -16.738  0.00  0.00    -0.474 OA
BRANCH  22  23
ATOM     23  C   UNL     1      35.488 -23.855 -15.372  0.00  0.00    +0.139 C 
ATOM     24  C   UNL     1      34.388 -24.142 -14.575  0.00  0.00    +0.037 C 
ATOM     25  C   UNL     1      36.739 -23.634 -14.814  0.00  0.00    +0.037 C 
ATOM     26  C   UNL     1      34.543 -24.209 -13.191  0.00  0.00    +0.006 C 
ATOM     27  C   UNL     1      36.893 -23.701 -13.429  0.00  0.00    +0.006 C 
ATOM     28  C   UNL     1      35.796 -23.989 -12.618  0.00  0.00    +0.031 C 
BRANCH  28  31
ATOM     29  N   UNL     1      36.842 -23.218 -10.502  0.00  0.00    -0.343 N 
ATOM     30  N   UNL     1      35.259 -24.937 -10.475  0.00  0.00    -0.285 NA
ATOM     31  C   UNL     1      35.957 -24.059 -11.175  0.00  0.00    +0.117 C 
ATOM     32  H   UNL     1      36.936 -23.283  -9.524  0.00  0.00    +0.144 HD
ATOM     33  H   UNL     1      37.374 -22.560 -11.005  0.00  0.00    +0.144 HD
ATOM     34  H   UNL     1      35.367 -24.986  -9.499  0.00  0.00    +0.188 HD
ENDBRANCH  28  31
ENDBRANCH  22  23
ENDBRANCH   6  22
TORSDOF 6
ENDMDL
MODEL 7
REMARK VINA RESULT:      -9.8      2.388     10.509
REMARK  Name = 5326926
REMARK  6 active torsions:
REMARK  status: ('A' for Active; 'I' for Inactive)
REMARK    1  A    between atoms: C_5  and  O_9
REMARK    2  A    between atoms: C_6  and  O_22
REMARK    3  A    between atoms: O_9  and  C_10
REMARK    4  A    between atoms: C_15  and  C_18
REMARK    5  A    between atoms: O_22  and  C_23
REMARK    6  A    between atoms: C_28  and  C_31
REMARK                            x       y       z     vdW  Elec       q    Type
REMARK                         _______ _______ _______ _____ _____    ______ ____
ROOT
ATOM      1  O   UNL     1      32.607 -19.576 -21.111  0.00  0.00    -0.346 OA
ATOM      2  O   UNL     1      35.576 -19.947 -21.747  0.00  0.00    -0.346 OA
ATOM      3  C   UNL     1      33.714 -18.657 -21.046  0.00  0.00    +0.188 C 
ATOM      4  C   UNL     1      34.916 -19.450 -20.570  0.00  0.00    +0.188 C 
ATOM      5  C   UNL     1      34.113 -18.213 -22.430  0.00  0.00    +0.225 C 
ATOM      6  C   UNL     1      34.276 -20.562 -19.775  0.00  0.00    +0.225 C 
ATOM      7  C   UNL     1      33.021 -20.840 -20.571  0.00  0.00    +0.188 C 
ATOM      8  C   UNL     1      34.970 -19.365 -22.913  0.00  0.00    +0.188 C 
ENDROOT
BRANCH   5   9
ATOM      9  O   UNL     1      34.923 -17.046 -22.348  0.00  0.00    -0.474 OA
BRANCH   9  10
ATOM     10  C   UNL     1      34.275 -15.840 -22.398  0.00  0.00    +0.139 C 
ATOM     11  C   UNL     1      33.623 -15.361 -21.267  0.00  0.00    +0.037 C 
ATOM     12  C   UNL     1      34.277 -15.106 -23.579  0.00  0.00    +0.037 C 
ATOM     13  C   UNL     1      32.964 -14.133 -21.318  0.00  0.00    +0.006 C 
ATOM     14  C   UNL     1      33.619 -13.878 -23.630  0.00  0.00    +0.006 C 
ATOM     15  C   UNL     1      32.962 -13.391 -22.500  0.00  0.00    +0.031 C 
BRANCH  15  18
ATOM     16  N   UNL     1      31.055 -11.915 -21.907  0.00  0.00    -0.343 N 
ATOM     17  N   UNL     1      32.807 -11.106 -23.226  0.00  0.00    -0.285 NA
ATOM     18  C   UNL     1      32.275 -12.110 -22.553  0.00  0.00    +0.117 C 
ATOM     19  H   UNL     1      30.608 -11.039 -21.956  0.00  0.00    +0.144 HD
ATOM     20  H   UNL     1      30.642 -12.652 -21.402  0.00  0.00    +0.144 HD
ATOM     21  H   UNL     1      32.343 -10.238 -23.264  0.00  0.00    +0.188 HD
ENDBRANCH  15  18
ENDBRANCH   9  10
ENDBRANCH   5   9
BRANCH   6  22
ATOM     22  O   UNL     1      35.109 -21.692 -19.651  0.00  0.00    -0.474 OA
BRANCH  22  23
ATOM     23  C   UNL     1      35.475 -22.068 -18.379  0.00  0.00    +0.139 C 
ATOM     24  C   UNL     1      36.747 -21.761 -17.916  0.00  0.00    +0.037 C 
ATOM     25  C   UNL     1      34.566 -22.747 -17.579  0.00  0.00    +0.037 C 
ATOM     26  C   UNL     1      37.118 -22.141 -16.626  0.00  0.00    +0.006 C 
ATOM     27  C   UNL     1      34.938 -23.127 -16.290  0.00  0.00    +0.006 C 
ATOM     28  C   UNL     1      36.213 -22.824 -15.813  0.00  0.00    +0.031 C 
BRANCH  28  31
ATOM     29  N   UNL     1      35.681 -23.223 -13.421  0.00  0.00    -0.343 N 
ATOM     30  N   UNL     1      37.847 -23.582 -14.221  0.00  0.00    -0.285 NA
ATOM     31  C   UNL     1      36.600 -23.220 -14.469  0.00  0.00    +0.117 C 
ATOM     32  H   UNL     1      35.964 -23.495 -12.518  0.00  0.00    +0.144 HD
ATOM     33  H   UNL     1      34.748 -22.954 -13.584  0.00  0.00    +0.144 HD
ATOM     34  H   UNL     1      38.110 -23.850 -13.312  0.00  0.00    +0.188 HD
ENDBRANCH  28  31
ENDBRANCH  22  23
ENDBRANCH   6  22
TORSDOF 6
ENDMDL
MODEL 8
REMARK VINA RESULT:      -9.7      1.655      2.407
REMARK  Name = 5326926
REMARK  6 active torsions:
REMARK  status: ('A' for Active; 'I' for Inactive)
REMARK    1  A    between atoms: C_5  and  O_9
REMARK    2  A    between atoms: C_6  and  O_22
REMARK    3  A    between atoms: O_9  and  C_10
REMARK    4  A    between atoms: C_15  and  C_18
REMARK    5  A    between atoms: O_22  and  C_23
REMARK    6  A    between atoms: C_28  and  C_31
REMARK                            x       y       z     vdW  Elec       q    Type
REMARK                         _______ _______ _______ _____ _____    ______ ____
ROOT
ATOM      1  O   UNL     1      33.831 -15.430 -24.929  0.00  0.00    -0.346 OA
ATOM      2  O   UNL     1      33.404 -15.066 -21.922  0.00  0.00    -0.346 OA
ATOM      3  C   UNL     1      34.727 -15.604 -23.815  0.00  0.00    +0.188 C 
ATOM      4  C   UNL     1      34.394 -14.518 -22.810  0.00  0.00    +0.188 C 
ATOM      5  C   UNL     1      34.407 -16.877 -23.074  0.00  0.00    +0.225 C 
ATOM      6  C   UNL     1      33.820 -13.431 -23.686  0.00  0.00    +0.225 C 
ATOM      7  C   UNL     1      33.073 -14.227 -24.732  0.00  0.00    +0.188 C 
ATOM      8  C   UNL     1      33.241 -16.466 -22.199  0.00  0.00    +0.188 C 
ENDROOT
BRANCH   5   9
ATOM      9  O   UNL     1      35.500 -17.237 -22.236  0.00  0.00    -0.474 OA
BRANCH   9  10
ATOM     10  C   UNL     1      35.367 -18.389 -21.508  0.00  0.00    +0.139 C 
ATOM     11  C   UNL     1      36.498 -19.008 -20.985  0.00  0.00    +0.037 C 
ATOM     12  C   UNL     1      34.103 -18.930 -21.299  0.00  0.00    +0.037 C 
ATOM     13  C   UNL     1      36.362 -20.181 -20.244  0.00  0.00    +0.006 C 
ATOM     14  C   UNL     1      33.968 -20.103 -20.557  0.00  0.00    +0.006 C 
ATOM     15  C   UNL     1      35.097 -20.729 -20.029  0.00  0.00    +0.031 C 
BRANCH  15  18
ATOM     16  N   UNL     1      33.883 -22.818 -19.460  0.00  0.00    -0.343 N 
ATOM     17  N   UNL     1      35.854 -22.258 -18.337  0.00  0.00    -0.285 NA
ATOM     18  C   UNL     1      34.956 -21.953 -19.256  0.00  0.00    +0.117 C 
ATOM     19  H   UNL     1      33.807 -23.641 -18.926  0.00  0.00    +0.144 HD
ATOM     20  H   UNL     1      33.201 -22.607 -20.138  0.00  0.00    +0.144 HD
ATOM     21  H   UNL     1      35.760 -23.085 -17.812  0.00  0.00    +0.188 HD
ENDBRANCH  15  18
ENDBRANCH   9  10
ENDBRANCH   5   9
BRANCH   6  22
ATOM     22  O   UNL     1      32.989 -12.541 -22.976  0.00  0.00    -0.474 OA
BRANCH  22  23
ATOM     23  C   UNL     1      33.136 -11.198 -23.236  0.00  0.00    +0.139 C 
ATOM     24  C   UNL     1      32.213 -10.298 -22.722  0.00  0.00    +0.037 C 
ATOM     25  C   UNL     1      34.207 -10.765 -24.006  0.00  0.00    +0.037 C 
ATOM     26  C   UNL     1      32.363  -8.937 -22.986  0.00  0.00    +0.006 C 
ATOM     27  C   UNL     1      34.356  -9.404 -24.269  0.00  0.00    +0.006 C 
ATOM     28  C   UNL     1      33.435  -8.490 -23.758  0.00  0.00    +0.031 C 
BRANCH  28  31
ATOM     29  N   UNL     1      32.685  -6.132 -23.539  0.00  0.00    -0.343 N 
ATOM     30  N   UNL     1      34.607  -6.648 -24.764  0.00  0.00    -0.285 NA
ATOM     31  C   UNL     1      33.591  -7.070 -24.032  0.00  0.00    +0.117 C 
ATOM     32  H   UNL     1      32.810  -5.176 -23.737  0.00  0.00    +0.144 HD
ATOM     33  H   UNL     1      31.920  -6.426 -22.994  0.00  0.00    +0.144 HD
ATOM     34  H   UNL     1      34.714  -5.688 -24.951  0.00  0.00    +0.188 HD
ENDBRANCH  28  31
ENDBRANCH  22  23
ENDBRANCH   6  22
TORSDOF 6
ENDMDL
MODEL 9
REMARK VINA RESULT:      -9.4      3.898     11.597
REMARK  Name = 5326926
REMARK  6 active torsions:
REMARK  status: ('A' for Active; 'I' for Inactive)
REMARK    1  A    between atoms: C_5  and  O_9
REMARK    2  A    between atoms: C_6  and  O_22
REMARK    3  A    between atoms: O_9  and  C_10
REMARK    4  A    between atoms: C_15  and  C_18
REMARK    5  A    between atoms: O_22  and  C_23
REMARK    6  A    between atoms: C_28  and  C_31
REMARK                            x       y       z     vdW  Elec       q    Type
REMARK                         _______ _______ _______ _____ _____    ______ ____
ROOT
ATOM      1  O   UNL     1      30.903 -10.019 -20.587  0.00  0.00    -0.346 OA
ATOM      2  O   UNL     1      32.081 -10.259 -23.400  0.00  0.00    -0.346 OA
ATOM      3  C   UNL     1      32.142  -9.539 -21.141  0.00  0.00    +0.188 C 
ATOM      4  C   UNL     1      32.628 -10.597 -22.113  0.00  0.00    +0.188 C 
ATOM      5  C   UNL     1      31.897  -8.340 -22.022  0.00  0.00    +0.225 C 
ATOM      6  C   UNL     1      32.011 -11.857 -21.556  0.00  0.00    +0.225 C 
ATOM      7  C   UNL     1      30.676 -11.359 -21.049  0.00  0.00    +0.188 C 
ATOM      8  C   UNL     1      31.446  -8.972 -23.322  0.00  0.00    +0.188 C 
ENDROOT
BRANCH   5   9
ATOM      9  O   UNL     1      33.121  -7.650 -22.250  0.00  0.00    -0.474 OA
BRANCH   9  10
ATOM     10  C   UNL     1      33.199  -6.893 -23.389  0.00  0.00    +0.139 C 
ATOM     11  C   UNL     1      32.202  -5.965 -23.670  0.00  0.00    +0.037 C 
ATOM     12  C   UNL     1      34.275  -7.060 -24.254  0.00  0.00    +0.037 C 
ATOM     13  C   UNL     1      32.282  -5.194 -24.829  0.00  0.00    +0.006 C 
ATOM     14  C   UNL     1      34.356  -6.288 -25.413  0.00  0.00    +0.006 C 
ATOM     15  C   UNL     1      33.359  -5.355 -25.701  0.00  0.00    +0.031 C 
BRANCH  15  18
ATOM     16  N   UNL     1      32.319  -3.920 -27.440  0.00  0.00    -0.343 N 
ATOM     17  N   UNL     1      34.602  -4.410 -27.527  0.00  0.00    -0.285 NA
ATOM     18  C   UNL     1      33.443  -4.551 -26.910  0.00  0.00    +0.117 C 
ATOM     19  H   UNL     1      32.399  -3.380 -28.258  0.00  0.00    +0.144 HD
ATOM     20  H   UNL     1      31.446  -4.015 -26.996  0.00  0.00    +0.144 HD
ATOM     21  H   UNL     1      34.662  -3.866 -28.346  0.00  0.00    +0.188 HD
ENDBRANCH  15  18
ENDBRANCH   9  10
ENDBRANCH   5   9
BRANCH   6  22
ATOM     22  O   UNL     1      31.887 -12.876 -22.521  0.00  0.00    -0.474 OA
BRANCH  22  23
ATOM     23  C   UNL     1      32.721 -13.963 -22.400  0.00  0.00    +0.139 C 
ATOM     24  C   UNL     1      33.408 -14.424 -23.516  0.00  0.00    +0.037 C 
ATOM     25  C   UNL     1      32.865 -14.579 -21.166  0.00  0.00    +0.037 C 
ATOM     26  C   UNL     1      34.254 -15.525 -23.393  0.00  0.00    +0.006 C 
ATOM     27  C   UNL     1      33.712 -15.681 -21.044  0.00  0.00    +0.006 C 
ATOM     28  C   UNL     1      34.407 -16.153 -22.157  0.00  0.00    +0.031 C 
BRANCH  28  31
ATOM     29  N   UNL     1      35.455 -17.958 -20.810  0.00  0.00    -0.343 N 
ATOM     30  N   UNL     1      35.958 -17.740 -23.082  0.00  0.00    -0.285 NA
ATOM     31  C   UNL     1      35.290 -17.302 -22.029  0.00  0.00    +0.117 C 
ATOM     32  H   UNL     1      36.058 -18.733 -20.746  0.00  0.00    +0.144 HD
ATOM     33  H   UNL     1      34.969 -17.645 -20.013  0.00  0.00    +0.144 HD
ATOM     34  H   UNL     1      36.556 -18.516 -22.998  0.00  0.00    +0.188 HD
ENDBRANCH  28  31
ENDBRANCH  22  23
ENDBRANCH   6  22
TORSDOF 6
ENDMDL
