MODEL 1
REMARK VINA RESULT:      -8.4      0.000      0.000
REMARK  Name = 66381
REMARK  6 active torsions:
REMARK  status: ('A' for Active; 'I' for Inactive)
REMARK    1  A    between atoms: C_8  and  C_27
REMARK    2  A    between atoms: C_12  and  O_24
REMARK    3  A    between atoms: C_27  and  C_28
REMARK    4  A    between atoms: C_28  and  O_29
REMARK    5  A    between atoms: O_29  and  C_31
REMARK    6  A    between atoms: C_31  and  C_32
REMARK                            x       y       z     vdW  Elec       q    Type
REMARK                         _______ _______ _______ _____ _____    ______ ____
ROOT
ATOM      1  F   UNL     1      35.363 -16.888 -20.769  0.00  0.00    -0.237 F 
ATOM      2  F   UNL     1      32.259 -19.737 -19.720  0.00  0.00    -0.233 F 
ATOM      3  O   UNL     1      36.894 -21.288 -19.326  0.00  0.00    -0.287 OA
ATOM      4  C   UNL     1      33.721 -14.520 -22.768  0.00  0.00    +0.009 C 
ATOM      5  C   UNL     1      33.136 -15.362 -21.617  0.00  0.00    +0.003 C 
ATOM      6  C   UNL     1      33.267 -16.873 -21.850  0.00  0.00    +0.036 C 
ATOM      7  C   UNL     1      34.786 -17.238 -21.981  0.00  0.00    +0.165 C 
ATOM      8  C   UNL     1      33.400 -13.107 -22.222  0.00  0.00    +0.061 C 
ATOM      9  C   UNL     1      31.752 -14.756 -21.397  0.00  0.00    +0.001 C 
ATOM     10  C   UNL     1      35.224 -14.835 -22.863  0.00  0.00    +0.032 C 
ATOM     11  C   UNL     1      31.965 -13.242 -21.647  0.00  0.00    +0.007 C 
ATOM     12  C   UNL     1      35.515 -16.344 -23.030  0.00  0.00    +0.141 C 
ATOM     13  C   UNL     1      35.011 -18.797 -22.121  0.00  0.00    +0.066 C 
ATOM     14  C   UNL     1      32.608 -17.651 -20.700  0.00  0.00    +0.042 C 
ATOM     15  C   UNL     1      33.023 -14.749 -24.134  0.00  0.00    +0.001 C 
ATOM     16  C   UNL     1      32.816 -19.155 -20.821  0.00  0.00    +0.180 C 
ATOM     17  C   UNL     1      34.285 -19.475 -20.950  0.00  0.00    -0.003 C 
ATOM     18  C   UNL     1      31.791 -12.421 -20.373  0.00  0.00    +0.000 C 
ATOM     19  C   UNL     1      34.460 -19.397 -23.435  0.00  0.00    +0.011 C 
ATOM     20  C   UNL     1      36.499 -19.114 -22.105  0.00  0.00    -0.017 C 
ATOM     21  C   UNL     1      34.897 -20.270 -20.058  0.00  0.00    +0.036 C 
ATOM     22  C   UNL     1      37.113 -19.903 -21.217  0.00  0.00    +0.038 C 
ATOM     23  C   UNL     1      36.346 -20.548 -20.136  0.00  0.00    +0.195 C 
ENDROOT
BRANCH  12  24
ATOM     24  O   UNL     1      35.211 -16.745 -24.357  0.00  0.00    -0.382 OA
ATOM     25  H   UNL     1      35.070 -17.705 -24.381  0.00  0.00    +0.210 HD
ENDBRANCH  12  24
BRANCH   8  27
ATOM     26  O   UNL     1      34.362 -12.057 -24.130  0.00  0.00    -0.292 OA
ATOM     27  C   UNL     1      33.507 -12.020 -23.248  0.00  0.00    +0.194 C 
BRANCH  27  28
ATOM     28  C   UNL     1      32.509 -10.888 -23.131  0.00  0.00    +0.272 C 
BRANCH  28  29
ATOM     29  O   UNL     1      33.173  -9.655 -22.952  0.00  0.00    -0.440 OA
BRANCH  29  31
ATOM     30  O   UNL     1      32.160  -8.942 -21.013  0.00  0.00    -0.250 OA
ATOM     31  C   UNL     1      32.538  -8.729 -22.158  0.00  0.00    +0.316 C 
BRANCH  31  32
ATOM     32  C   UNL     1      32.364  -7.395 -22.893  0.00  0.00    +0.090 C 
ATOM     33  C   UNL     1      33.606  -7.115 -23.748  0.00  0.00    +0.011 C 
ATOM     34  C   UNL     1      31.134  -7.472 -23.811  0.00  0.00    +0.011 C 
ATOM     35  C   UNL     1      32.152  -6.270 -21.871  0.00  0.00    +0.011 C 
ENDBRANCH  31  32
ENDBRANCH  29  31
ENDBRANCH  28  29
ENDBRANCH  27  28
ENDBRANCH   8  27
TORSDOF 6
ENDMDL
MODEL 2
REMARK VINA RESULT:      -7.5      2.711      5.045
REMARK  Name = 66381
REMARK  6 active torsions:
REMARK  status: ('A' for Active; 'I' for Inactive)
REMARK    1  A    between atoms: C_8  and  C_27
REMARK    2  A    between atoms: C_12  and  O_24
REMARK    3  A    between atoms: C_27  and  C_28
REMARK    4  A    between atoms: C_28  and  O_29
REMARK    5  A    between atoms: O_29  and  C_31
REMARK    6  A    between atoms: C_31  and  C_32
REMARK                            x       y       z     vdW  Elec       q    Type
REMARK                         _______ _______ _______ _____ _____    ______ ____
ROOT
ATOM      1  F   UNL     1      34.744 -12.661 -22.444  0.00  0.00    -0.237 F 
ATOM      2  F   UNL     1      31.693 -14.951 -20.370  0.00  0.00    -0.233 F 
ATOM      3  O   UNL     1      35.546 -17.458 -22.077  0.00  0.00    -0.287 OA
ATOM      4  C   UNL     1      33.108  -9.710 -23.400  0.00  0.00    +0.009 C 
ATOM      5  C   UNL     1      32.832 -10.594 -22.168  0.00  0.00    +0.003 C 
ATOM      6  C   UNL     1      32.471 -12.040 -22.533  0.00  0.00    +0.036 C 
ATOM      7  C   UNL     1      33.668 -12.680 -23.318  0.00  0.00    +0.165 C 
ATOM      8  C   UNL     1      33.400  -8.371 -22.677  0.00  0.00    +0.061 C 
ATOM      9  C   UNL     1      31.851  -9.763 -21.343  0.00  0.00    +0.001 C 
ATOM     10  C   UNL     1      34.318 -10.305 -24.142  0.00  0.00    +0.032 C 
ATOM     11  C   UNL     1      32.325  -8.305 -21.559  0.00  0.00    +0.007 C 
ATOM     12  C   UNL     1      34.124 -11.792 -24.516  0.00  0.00    +0.141 C 
ATOM     13  C   UNL     1      33.414 -14.206 -23.643  0.00  0.00    +0.066 C 
ATOM     14  C   UNL     1      32.145 -12.847 -21.266  0.00  0.00    +0.042 C 
ATOM     15  C   UNL     1      31.894  -9.562 -24.354  0.00  0.00    +0.001 C 
ATOM     16  C   UNL     1      31.899 -14.320 -21.563  0.00  0.00    +0.180 C 
ATOM     17  C   UNL     1      33.063 -14.907 -22.322  0.00  0.00    -0.003 C 
ATOM     18  C   UNL     1      32.884  -7.688 -20.281  0.00  0.00    +0.000 C 
ATOM     19  C   UNL     1      32.256 -14.456 -24.637  0.00  0.00    +0.011 C 
ATOM     20  C   UNL     1      34.654 -14.819 -24.278  0.00  0.00    -0.017 C 
ATOM     21  C   UNL     1      33.753 -15.947 -21.827  0.00  0.00    +0.036 C 
ATOM     22  C   UNL     1      35.345 -15.853 -23.788  0.00  0.00    +0.038 C 
ATOM     23  C   UNL     1      34.930 -16.498 -22.529  0.00  0.00    +0.195 C 
ENDROOT
BRANCH  12  24
ATOM     24  O   UNL     1      33.230 -11.897 -25.613  0.00  0.00    -0.382 OA
ATOM     25  H   UNL     1      33.254 -11.077 -26.130  0.00  0.00    +0.210 HD
ENDBRANCH  12  24
BRANCH   8  27
ATOM     26  O   UNL     1      34.304  -6.913 -24.328  0.00  0.00    -0.292 OA
ATOM     27  C   UNL     1      33.365  -7.175 -23.578  0.00  0.00    +0.194 C 
BRANCH  27  28
ATOM     28  C   UNL     1      32.119  -6.318 -23.507  0.00  0.00    +0.272 C 
BRANCH  28  29
ATOM     29  O   UNL     1      32.300  -5.115 -24.224  0.00  0.00    -0.440 OA
BRANCH  29  31
ATOM     30  O   UNL     1      30.535  -4.158 -23.102  0.00  0.00    -0.250 OA
ATOM     31  C   UNL     1      31.391  -4.113 -23.976  0.00  0.00    +0.316 C 
BRANCH  31  32
ATOM     32  C   UNL     1      31.589  -2.935 -24.936  0.00  0.00    +0.090 C 
ATOM     33  C   UNL     1      30.222  -2.441 -25.429  0.00  0.00    +0.011 C 
ATOM     34  C   UNL     1      32.298  -1.787 -24.201  0.00  0.00    +0.011 C 
ATOM     35  C   UNL     1      32.457  -3.379 -26.121  0.00  0.00    +0.011 C 
ENDBRANCH  31  32
ENDBRANCH  29  31
ENDBRANCH  28  29
ENDBRANCH  27  28
ENDBRANCH   8  27
TORSDOF 6
ENDMDL
MODEL 3
REMARK VINA RESULT:      -7.5      2.911      9.626
REMARK  Name = 66381
REMARK  6 active torsions:
REMARK  status: ('A' for Active; 'I' for Inactive)
REMARK    1  A    between atoms: C_8  and  C_27
REMARK    2  A    between atoms: C_12  and  O_24
REMARK    3  A    between atoms: C_27  and  C_28
REMARK    4  A    between atoms: C_28  and  O_29
REMARK    5  A    between atoms: O_29  and  C_31
REMARK    6  A    between atoms: C_31  and  C_32
REMARK                            x       y       z     vdW  Elec       q    Type
REMARK                         _______ _______ _______ _____ _____    ______ ____
ROOT
ATOM      1  F   UNL     1      31.174  -9.575 -23.148  0.00  0.00    -0.237 F 
ATOM      2  F   UNL     1      31.896  -7.832 -19.237  0.00  0.00    -0.233 F 
ATOM      3  O   UNL     1      29.917  -4.892 -22.625  0.00  0.00    -0.287 OA
ATOM      4  C   UNL     1      33.283 -12.376 -23.248  0.00  0.00    +0.009 C 
ATOM      5  C   UNL     1      32.603 -11.741 -22.019  0.00  0.00    +0.003 C 
ATOM      6  C   UNL     1      32.987 -10.270 -21.810  0.00  0.00    +0.036 C 
ATOM      7  C   UNL     1      32.553  -9.446 -23.072  0.00  0.00    +0.165 C 
ATOM      8  C   UNL     1      32.704 -13.808 -23.132  0.00  0.00    +0.061 C 
ATOM      9  C   UNL     1      32.866 -12.748 -20.903  0.00  0.00    +0.001 C 
ATOM     10  C   UNL     1      32.814 -11.604 -24.494  0.00  0.00    +0.032 C 
ATOM     11  C   UNL     1      32.779 -14.122 -21.613  0.00  0.00    +0.007 C 
ATOM     12  C   UNL     1      33.075 -10.084 -24.396  0.00  0.00    +0.141 C 
ATOM     13  C   UNL     1      32.824  -7.900 -22.892  0.00  0.00    +0.066 C 
ATOM     14  C   UNL     1      32.328  -9.719 -20.536  0.00  0.00    +0.042 C 
ATOM     15  C   UNL     1      34.831 -12.403 -23.167  0.00  0.00    +0.001 C 
ATOM     16  C   UNL     1      32.581  -8.229 -20.349  0.00  0.00    +0.180 C 
ATOM     17  C   UNL     1      32.157  -7.464 -21.578  0.00  0.00    -0.003 C 
ATOM     18  C   UNL     1      31.574 -14.933 -21.148  0.00  0.00    +0.000 C 
ATOM     19  C   UNL     1      34.322  -7.527 -22.812  0.00  0.00    +0.011 C 
ATOM     20  C   UNL     1      32.261  -7.128 -24.077  0.00  0.00    -0.017 C 
ATOM     21  C   UNL     1      31.225  -6.501 -21.503  0.00  0.00    +0.036 C 
ATOM     22  C   UNL     1      31.332  -6.170 -24.006  0.00  0.00    +0.038 C 
ATOM     23  C   UNL     1      30.758  -5.781 -22.705  0.00  0.00    +0.195 C 
ENDROOT
BRANCH  12  24
ATOM     24  O   UNL     1      34.457  -9.823 -24.589  0.00  0.00    -0.382 OA
ATOM     25  H   UNL     1      34.638  -9.723 -25.537  0.00  0.00    +0.210 HD
ENDBRANCH  12  24
BRANCH   8  27
ATOM     26  O   UNL     1      33.090 -15.054 -25.124  0.00  0.00    -0.292 OA
ATOM     27  C   UNL     1      33.426 -14.823 -23.964  0.00  0.00    +0.194 C 
BRANCH  27  28
ATOM     28  C   UNL     1      34.580 -15.539 -23.295  0.00  0.00    +0.272 C 
BRANCH  28  29
ATOM     29  O   UNL     1      34.202 -16.847 -22.915  0.00  0.00    -0.440 OA
BRANCH  29  31
ATOM     30  O   UNL     1      34.987 -16.585 -20.769  0.00  0.00    -0.250 OA
ATOM     31  C   UNL     1      34.704 -17.304 -21.719  0.00  0.00    +0.316 C 
BRANCH  31  32
ATOM     32  C   UNL     1      34.862 -18.828 -21.730  0.00  0.00    +0.090 C 
ATOM     33  C   UNL     1      36.157 -19.215 -21.005  0.00  0.00    +0.011 C 
ATOM     34  C   UNL     1      33.671 -19.473 -21.003  0.00  0.00    +0.011 C 
ATOM     35  C   UNL     1      34.890 -19.330 -23.181  0.00  0.00    +0.011 C 
ENDBRANCH  31  32
ENDBRANCH  29  31
ENDBRANCH  28  29
ENDBRANCH  27  28
ENDBRANCH   8  27
TORSDOF 6
ENDMDL
MODEL 4
REMARK VINA RESULT:      -7.4      2.997      9.431
REMARK  Name = 66381
REMARK  6 active torsions:
REMARK  status: ('A' for Active; 'I' for Inactive)
REMARK    1  A    between atoms: C_8  and  C_27
REMARK    2  A    between atoms: C_12  and  O_24
REMARK    3  A    between atoms: C_27  and  C_28
REMARK    4  A    between atoms: C_28  and  O_29
REMARK    5  A    between atoms: O_29  and  C_31
REMARK    6  A    between atoms: C_31  and  C_32
REMARK                            x       y       z     vdW  Elec       q    Type
REMARK                         _______ _______ _______ _____ _____    ______ ____
ROOT
ATOM      1  F   UNL     1      35.436 -14.263 -24.014  0.00  0.00    -0.237 F 
ATOM      2  F   UNL     1      32.737 -14.053 -27.409  0.00  0.00    -0.233 F 
ATOM      3  O   UNL     1      34.959  -9.882 -26.104  0.00  0.00    -0.287 OA
ATOM      4  C   UNL     1      34.457 -17.168 -22.310  0.00  0.00    +0.009 C 
ATOM      5  C   UNL     1      34.372 -16.877 -23.822  0.00  0.00    +0.003 C 
ATOM      6  C   UNL     1      33.527 -15.639 -24.150  0.00  0.00    +0.036 C 
ATOM      7  C   UNL     1      34.171 -14.386 -23.462  0.00  0.00    +0.165 C 
ATOM      8  C   UNL     1      35.329 -18.447 -22.359  0.00  0.00    +0.061 C 
ATOM      9  C   UNL     1      33.988 -18.226 -24.425  0.00  0.00    +0.001 C 
ATOM     10  C   UNL     1      35.140 -15.963 -21.640  0.00  0.00    +0.032 C 
ATOM     11  C   UNL     1      34.747 -19.255 -23.550  0.00  0.00    +0.007 C 
ATOM     12  C   UNL     1      34.432 -14.623 -21.942  0.00  0.00    +0.141 C 
ATOM     13  C   UNL     1      33.413 -13.050 -23.836  0.00  0.00    +0.066 C 
ATOM     14  C   UNL     1      33.429 -15.445 -25.672  0.00  0.00    +0.042 C 
ATOM     15  C   UNL     1      33.088 -17.465 -21.648  0.00  0.00    +0.001 C 
ATOM     16  C   UNL     1      32.702 -14.162 -26.048  0.00  0.00    +0.180 C 
ATOM     17  C   UNL     1      33.340 -12.975 -25.369  0.00  0.00    -0.003 C 
ATOM     18  C   UNL     1      35.844 -19.973 -24.330  0.00  0.00    +0.000 C 
ATOM     19  C   UNL     1      31.971 -12.967 -23.286  0.00  0.00    +0.011 C 
ATOM     20  C   UNL     1      34.154 -11.851 -23.261  0.00  0.00    -0.017 C 
ATOM     21  C   UNL     1      33.840 -11.957 -26.087  0.00  0.00    +0.036 C 
ATOM     22  C   UNL     1      34.654 -10.836 -23.973  0.00  0.00    +0.038 C 
ATOM     23  C   UNL     1      34.519 -10.815 -25.441  0.00  0.00    +0.195 C 
ENDROOT
BRANCH  12  24
ATOM     24  O   UNL     1      33.233 -14.534 -21.188  0.00  0.00    -0.382 OA
ATOM     25  H   UNL     1      33.441 -14.270 -20.278  0.00  0.00    +0.210 HD
ENDBRANCH  12  24
BRANCH   8  27
ATOM     26  O   UNL     1      36.188 -19.044 -20.220  0.00  0.00    -0.292 OA
ATOM     27  C   UNL     1      35.330 -19.230 -21.081  0.00  0.00    +0.194 C 
BRANCH  27  28
ATOM     28  C   UNL     1      34.225 -20.251 -20.920  0.00  0.00    +0.272 C 
BRANCH  28  29
ATOM     29  O   UNL     1      34.528 -21.153 -19.876  0.00  0.00    -0.440 OA
BRANCH  29  31
ATOM     30  O   UNL     1      32.372 -21.029 -19.084  0.00  0.00    -0.250 OA
ATOM     31  C   UNL     1      33.470 -21.570 -19.103  0.00  0.00    +0.316 C 
BRANCH  31  32
ATOM     32  C   UNL     1      33.845 -22.799 -18.267  0.00  0.00    +0.090 C 
ATOM     33  C   UNL     1      35.158 -22.530 -17.521  0.00  0.00    +0.011 C 
ATOM     34  C   UNL     1      32.736 -23.080 -17.241  0.00  0.00    +0.011 C 
ATOM     35  C   UNL     1      33.992 -24.019 -19.187  0.00  0.00    +0.011 C 
ENDBRANCH  31  32
ENDBRANCH  29  31
ENDBRANCH  28  29
ENDBRANCH  27  28
ENDBRANCH   8  27
TORSDOF 6
ENDMDL
MODEL 5
REMARK VINA RESULT:      -6.8      1.255      1.527
REMARK  Name = 66381
REMARK  6 active torsions:
REMARK  status: ('A' for Active; 'I' for Inactive)
REMARK    1  A    between atoms: C_8  and  C_27
REMARK    2  A    between atoms: C_12  and  O_24
REMARK    3  A    between atoms: C_27  and  C_28
REMARK    4  A    between atoms: C_28  and  O_29
REMARK    5  A    between atoms: O_29  and  C_31
REMARK    6  A    between atoms: C_31  and  C_32
REMARK                            x       y       z     vdW  Elec       q    Type
REMARK                         _______ _______ _______ _____ _____    ______ ____
ROOT
ATOM      1  F   UNL     1      35.208 -15.860 -21.209  0.00  0.00    -0.237 F 
ATOM      2  F   UNL     1      32.522 -18.969 -19.806  0.00  0.00    -0.233 F 
ATOM      3  O   UNL     1      37.215 -20.239 -20.445  0.00  0.00    -0.287 OA
ATOM      4  C   UNL     1      33.084 -13.472 -22.655  0.00  0.00    +0.009 C 
ATOM      5  C   UNL     1      32.783 -14.427 -21.483  0.00  0.00    +0.003 C 
ATOM      6  C   UNL     1      32.941 -15.907 -21.856  0.00  0.00    +0.036 C 
ATOM      7  C   UNL     1      34.420 -16.163 -22.309  0.00  0.00    +0.165 C 
ATOM      8  C   UNL     1      32.808 -12.124 -21.946  0.00  0.00    +0.061 C 
ATOM      9  C   UNL     1      31.442 -13.929 -20.950  0.00  0.00    +0.001 C 
ATOM     10  C   UNL     1      34.553 -13.682 -23.065  0.00  0.00    +0.032 C 
ATOM     11  C   UNL     1      31.524 -12.391 -21.115  0.00  0.00    +0.007 C 
ATOM     12  C   UNL     1      34.880 -15.154 -23.405  0.00  0.00    +0.141 C 
ATOM     13  C   UNL     1      34.690 -17.690 -22.614  0.00  0.00    +0.066 C 
ATOM     14  C   UNL     1      32.564 -16.803 -20.665  0.00  0.00    +0.042 C 
ATOM     15  C   UNL     1      32.141 -13.653 -23.872  0.00  0.00    +0.001 C 
ATOM     16  C   UNL     1      32.819 -18.278 -20.944  0.00  0.00    +0.180 C 
ATOM     17  C   UNL     1      34.247 -18.493 -21.381  0.00  0.00    -0.003 C 
ATOM     18  C   UNL     1      31.566 -11.671 -19.771  0.00  0.00    +0.000 C 
ATOM     19  C   UNL     1      33.920 -18.235 -23.839  0.00  0.00    +0.011 C 
ATOM     20  C   UNL     1      36.166 -17.911 -22.912  0.00  0.00    -0.017 C 
ATOM     21  C   UNL     1      35.063 -19.305 -20.691  0.00  0.00    +0.036 C 
ATOM     22  C   UNL     1      36.983 -18.717 -22.227  0.00  0.00    +0.038 C 
ATOM     23  C   UNL     1      36.480 -19.483 -21.072  0.00  0.00    +0.195 C 
ENDROOT
BRANCH  12  24
ATOM     24  O   UNL     1      34.338 -15.483 -24.675  0.00  0.00    -0.382 OA
ATOM     25  H   UNL     1      33.897 -16.345 -24.626  0.00  0.00    +0.210 HD
ENDBRANCH  12  24
BRANCH   8  27
ATOM     26  O   UNL     1      31.562 -10.424 -23.055  0.00  0.00    -0.292 OA
ATOM     27  C   UNL     1      32.653 -10.965 -22.883  0.00  0.00    +0.194 C 
BRANCH  27  28
ATOM     28  C   UNL     1      33.907 -10.508 -23.597  0.00  0.00    +0.272 C 
BRANCH  28  29
ATOM     29  O   UNL     1      33.657  -9.334 -24.342  0.00  0.00    -0.440 OA
BRANCH  29  31
ATOM     30  O   UNL     1      35.134  -7.936 -23.265  0.00  0.00    -0.250 OA
ATOM     31  C   UNL     1      34.032  -8.148 -23.756  0.00  0.00    +0.316 C 
BRANCH  31  32
ATOM     32  C   UNL     1      32.891  -7.126 -23.795  0.00  0.00    +0.090 C 
ATOM     33  C   UNL     1      33.272  -5.968 -24.727  0.00  0.00    +0.011 C 
ATOM     34  C   UNL     1      31.617  -7.798 -24.331  0.00  0.00    +0.011 C 
ATOM     35  C   UNL     1      32.620  -6.604 -22.378  0.00  0.00    +0.011 C 
ENDBRANCH  31  32
ENDBRANCH  29  31
ENDBRANCH  28  29
ENDBRANCH  27  28
ENDBRANCH   8  27
TORSDOF 6
ENDMDL
MODEL 6
REMARK VINA RESULT:      -6.7      2.794      5.458
REMARK  Name = 66381
REMARK  6 active torsions:
REMARK  status: ('A' for Active; 'I' for Inactive)
REMARK    1  A    between atoms: C_8  and  C_27
REMARK    2  A    between atoms: C_12  and  O_24
REMARK    3  A    between atoms: C_27  and  C_28
REMARK    4  A    between atoms: C_28  and  O_29
REMARK    5  A    between atoms: O_29  and  C_31
REMARK    6  A    between atoms: C_31  and  C_32
REMARK                            x       y       z     vdW  Elec       q    Type
REMARK                         _______ _______ _______ _____ _____    ______ ____
ROOT
ATOM      1  F   UNL     1      34.670 -12.330 -22.504  0.00  0.00    -0.237 F 
ATOM      2  F   UNL     1      31.802 -14.657 -20.222  0.00  0.00    -0.233 F 
ATOM      3  O   UNL     1      35.517 -17.126 -22.257  0.00  0.00    -0.287 OA
ATOM      4  C   UNL     1      32.952  -9.376 -23.293  0.00  0.00    +0.009 C 
ATOM      5  C   UNL     1      32.778 -10.275 -22.054  0.00  0.00    +0.003 C 
ATOM      6  C   UNL     1      32.395 -11.719 -22.405  0.00  0.00    +0.036 C 
ATOM      7  C   UNL     1      33.528 -12.344 -23.290  0.00  0.00    +0.165 C 
ATOM      8  C   UNL     1      33.296  -8.044 -22.581  0.00  0.00    +0.061 C 
ATOM      9  C   UNL     1      31.863  -9.458 -21.144  0.00  0.00    +0.001 C 
ATOM     10  C   UNL     1      34.102  -9.957 -24.136  0.00  0.00    +0.032 C 
ATOM     11  C   UNL     1      32.313  -7.995 -21.380  0.00  0.00    +0.007 C 
ATOM     12  C   UNL     1      33.885 -11.441 -24.510  0.00  0.00    +0.141 C 
ATOM     13  C   UNL     1      33.256 -13.868 -23.611  0.00  0.00    +0.066 C 
ATOM     14  C   UNL     1      32.174 -12.541 -21.126  0.00  0.00    +0.042 C 
ATOM     15  C   UNL     1      31.667  -9.223 -24.146  0.00  0.00    +0.001 C 
ATOM     16  C   UNL     1      31.910 -14.012 -21.420  0.00  0.00    +0.180 C 
ATOM     17  C   UNL     1      33.013 -14.585 -22.275  0.00  0.00    -0.003 C 
ATOM     18  C   UNL     1      32.968  -7.390 -20.143  0.00  0.00    +0.000 C 
ATOM     19  C   UNL     1      32.024 -14.112 -24.513  0.00  0.00    +0.011 C 
ATOM     20  C   UNL     1      34.444 -14.467 -24.350  0.00  0.00    -0.017 C 
ATOM     21  C   UNL     1      33.744 -15.627 -21.848  0.00  0.00    +0.036 C 
ATOM     22  C   UNL     1      35.175 -15.503 -23.928  0.00  0.00    +0.038 C 
ATOM     23  C   UNL     1      34.864 -16.165 -22.648  0.00  0.00    +0.195 C 
ENDROOT
BRANCH  12  24
ATOM     24  O   UNL     1      32.907 -11.538 -25.534  0.00  0.00    -0.382 OA
ATOM     25  H   UNL     1      33.340 -11.491 -26.401  0.00  0.00    +0.210 HD
ENDBRANCH  12  24
BRANCH   8  27
ATOM     26  O   UNL     1      32.323  -5.983 -23.268  0.00  0.00    -0.292 OA
ATOM     27  C   UNL     1      33.185  -6.838 -23.462  0.00  0.00    +0.194 C 
BRANCH  27  28
ATOM     28  C   UNL     1      34.188  -6.739 -24.592  0.00  0.00    +0.272 C 
BRANCH  28  29
ATOM     29  O   UNL     1      33.574  -6.234 -25.760  0.00  0.00    -0.440 OA
BRANCH  29  31
ATOM     30  O   UNL     1      35.522  -5.413 -26.667  0.00  0.00    -0.250 OA
ATOM     31  C   UNL     1      34.311  -5.340 -26.500  0.00  0.00    +0.316 C 
BRANCH  31  32
ATOM     32  C   UNL     1      33.420  -4.240 -27.088  0.00  0.00    +0.090 C 
ATOM     33  C   UNL     1      32.182  -4.055 -26.201  0.00  0.00    +0.011 C 
ATOM     34  C   UNL     1      34.201  -2.918 -27.136  0.00  0.00    +0.011 C 
ATOM     35  C   UNL     1      33.004  -4.625 -28.514  0.00  0.00    +0.011 C 
ENDBRANCH  31  32
ENDBRANCH  29  31
ENDBRANCH  28  29
ENDBRANCH  27  28
ENDBRANCH   8  27
TORSDOF 6
ENDMDL
MODEL 7
REMARK VINA RESULT:      -6.1      4.291     10.383
REMARK  Name = 66381
REMARK  6 active torsions:
REMARK  status: ('A' for Active; 'I' for Inactive)
REMARK    1  A    between atoms: C_8  and  C_27
REMARK    2  A    between atoms: C_12  and  O_24
REMARK    3  A    between atoms: C_27  and  C_28
REMARK    4  A    between atoms: C_28  and  O_29
REMARK    5  A    between atoms: O_29  and  C_31
REMARK    6  A    between atoms: C_31  and  C_32
REMARK                            x       y       z     vdW  Elec       q    Type
REMARK                         _______ _______ _______ _____ _____    ______ ____
ROOT
ATOM      1  F   UNL     1      34.521 -18.395 -19.934  0.00  0.00    -0.237 F 
ATOM      2  F   UNL     1      38.183 -18.165 -22.255  0.00  0.00    -0.233 F 
ATOM      3  O   UNL     1      34.923 -14.565 -22.926  0.00  0.00    -0.287 OA
ATOM      4  C   UNL     1      34.307 -21.766 -18.991  0.00  0.00    +0.009 C 
ATOM      5  C   UNL     1      35.575 -20.928 -19.242  0.00  0.00    +0.003 C 
ATOM      6  C   UNL     1      35.639 -20.340 -20.658  0.00  0.00    +0.036 C 
ATOM      7  C   UNL     1      34.400 -19.404 -20.876  0.00  0.00    +0.165 C 
ATOM      8  C   UNL     1      34.588 -22.200 -17.531  0.00  0.00    +0.061 C 
ATOM      9  C   UNL     1      36.705 -21.833 -18.756  0.00  0.00    +0.001 C 
ATOM     10  C   UNL     1      33.091 -20.835 -19.150  0.00  0.00    +0.032 C 
ATOM     11  C   UNL     1      36.099 -22.559 -17.530  0.00  0.00    +0.007 C 
ATOM     12  C   UNL     1      33.059 -20.113 -20.516  0.00  0.00    +0.141 C 
ATOM     13  C   UNL     1      34.447 -18.679 -22.280  0.00  0.00    +0.066 C 
ATOM     14  C   UNL     1      36.955 -19.574 -20.862  0.00  0.00    +0.042 C 
ATOM     15  C   UNL     1      34.177 -23.004 -19.914  0.00  0.00    +0.001 C 
ATOM     16  C   UNL     1      37.015 -18.869 -22.210  0.00  0.00    +0.180 C 
ATOM     17  C   UNL     1      35.810 -17.980 -22.394  0.00  0.00    -0.003 C 
ATOM     18  C   UNL     1      36.772 -22.144 -16.226  0.00  0.00    +0.000 C 
ATOM     19  C   UNL     1      34.299 -19.632 -23.488  0.00  0.00    +0.011 C 
ATOM     20  C   UNL     1      33.305 -17.679 -22.390  0.00  0.00    -0.017 C 
ATOM     21  C   UNL     1      35.953 -16.661 -22.599  0.00  0.00    +0.036 C 
ATOM     22  C   UNL     1      33.443 -16.365 -22.592  0.00  0.00    +0.038 C 
ATOM     23  C   UNL     1      34.783 -15.766 -22.724  0.00  0.00    +0.195 C 
ENDROOT
BRANCH  12  24
ATOM     24  O   UNL     1      32.663 -21.024 -21.529  0.00  0.00    -0.382 OA
ATOM     25  H   UNL     1      32.945 -20.689 -22.395  0.00  0.00    +0.210 HD
ENDBRANCH  12  24
BRANCH   8  27
ATOM     26  O   UNL     1      33.813 -24.452 -17.564  0.00  0.00    -0.292 OA
ATOM     27  C   UNL     1      33.729 -23.333 -17.058  0.00  0.00    +0.194 C 
BRANCH  27  28
ATOM     28  C   UNL     1      32.764 -23.020 -15.935  0.00  0.00    +0.272 C 
BRANCH  28  29
ATOM     29  O   UNL     1      31.565 -23.751 -16.090  0.00  0.00    -0.440 OA
BRANCH  29  31
ATOM     30  O   UNL     1      30.470 -22.074 -17.220  0.00  0.00    -0.250 OA
ATOM     31  C   UNL     1      30.453 -23.030 -16.456  0.00  0.00    +0.316 C 
BRANCH  31  32
ATOM     32  C   UNL     1      29.191 -23.579 -15.782  0.00  0.00    +0.090 C 
ATOM     33  C   UNL     1      28.380 -22.419 -15.189  0.00  0.00    +0.011 C 
ATOM     34  C   UNL     1      28.328 -24.308 -16.824  0.00  0.00    +0.011 C 
ATOM     35  C   UNL     1      29.587 -24.572 -14.681  0.00  0.00    +0.011 C 
ENDBRANCH  31  32
ENDBRANCH  29  31
ENDBRANCH  28  29
ENDBRANCH  27  28
ENDBRANCH   8  27
TORSDOF 6
ENDMDL
MODEL 8
REMARK VINA RESULT:      -5.9      1.579      2.412
REMARK  Name = 66381
REMARK  6 active torsions:
REMARK  status: ('A' for Active; 'I' for Inactive)
REMARK    1  A    between atoms: C_8  and  C_27
REMARK    2  A    between atoms: C_12  and  O_24
REMARK    3  A    between atoms: C_27  and  C_28
REMARK    4  A    between atoms: C_28  and  O_29
REMARK    5  A    between atoms: O_29  and  C_31
REMARK    6  A    between atoms: C_31  and  C_32
REMARK                            x       y       z     vdW  Elec       q    Type
REMARK                         _______ _______ _______ _____ _____    ______ ____
ROOT
ATOM      1  F   UNL     1      34.930 -14.859 -21.441  0.00  0.00    -0.237 F 
ATOM      2  F   UNL     1      32.276 -17.970 -19.981  0.00  0.00    -0.233 F 
ATOM      3  O   UNL     1      36.898 -19.293 -20.943  0.00  0.00    -0.287 OA
ATOM      4  C   UNL     1      32.768 -12.390 -22.679  0.00  0.00    +0.009 C 
ATOM      5  C   UNL     1      32.520 -13.379 -21.523  0.00  0.00    +0.003 C 
ATOM      6  C   UNL     1      32.628 -14.848 -21.952  0.00  0.00    +0.036 C 
ATOM      7  C   UNL     1      34.073 -15.112 -22.501  0.00  0.00    +0.165 C 
ATOM      8  C   UNL     1      32.559 -11.061 -21.910  0.00  0.00    +0.061 C 
ATOM      9  C   UNL     1      31.222 -12.877 -20.894  0.00  0.00    +0.001 C 
ATOM     10  C   UNL     1      34.205 -12.610 -23.183  0.00  0.00    +0.032 C 
ATOM     11  C   UNL     1      31.322 -11.336 -21.013  0.00  0.00    +0.007 C 
ATOM     12  C   UNL     1      34.484 -14.074 -23.590  0.00  0.00    +0.141 C 
ATOM     13  C   UNL     1      34.296 -16.632 -22.872  0.00  0.00    +0.066 C 
ATOM     14  C   UNL     1      32.306 -15.777 -20.771  0.00  0.00    +0.042 C 
ATOM     15  C   UNL     1      31.751 -12.514 -23.842  0.00  0.00    +0.001 C 
ATOM     16  C   UNL     1      32.517 -17.245 -21.113  0.00  0.00    +0.180 C 
ATOM     17  C   UNL     1      33.913 -17.468 -21.642  0.00  0.00    -0.003 C 
ATOM     18  C   UNL     1      31.457 -10.662 -19.651  0.00  0.00    +0.000 C 
ATOM     19  C   UNL     1      33.445 -17.123 -24.065  0.00  0.00    +0.011 C 
ATOM     20  C   UNL     1      35.748 -16.867 -23.265  0.00  0.00    -0.017 C 
ATOM     21  C   UNL     1      34.754 -18.317 -21.029  0.00  0.00    +0.036 C 
ATOM     22  C   UNL     1      36.589 -17.709 -22.657  0.00  0.00    +0.038 C 
ATOM     23  C   UNL     1      36.141 -18.505 -21.500  0.00  0.00    +0.195 C 
ENDROOT
BRANCH  12  24
ATOM     24  O   UNL     1      33.863 -14.351 -24.835  0.00  0.00    -0.382 OA
ATOM     25  H   UNL     1      32.899 -14.346 -24.724  0.00  0.00    +0.210 HD
ENDBRANCH  12  24
BRANCH   8  27
ATOM     26  O   UNL     1      31.256  -9.553 -23.213  0.00  0.00    -0.292 OA
ATOM     27  C   UNL     1      32.370  -9.870 -22.799  0.00  0.00    +0.194 C 
BRANCH  27  28
ATOM     28  C   UNL     1      33.619  -9.091 -23.150  0.00  0.00    +0.272 C 
BRANCH  28  29
ATOM     29  O   UNL     1      33.580  -7.800 -22.576  0.00  0.00    -0.440 OA
BRANCH  29  31
ATOM     30  O   UNL     1      33.475  -6.520 -24.484  0.00  0.00    -0.250 OA
ATOM     31  C   UNL     1      33.066  -6.797 -23.364  0.00  0.00    +0.316 C 
BRANCH  31  32
ATOM     32  C   UNL     1      31.917  -6.071 -22.657  0.00  0.00    +0.090 C 
ATOM     33  C   UNL     1      31.995  -4.569 -22.960  0.00  0.00    +0.011 C 
ATOM     34  C   UNL     1      30.574  -6.614 -23.171  0.00  0.00    +0.011 C 
ATOM     35  C   UNL     1      32.007  -6.318 -21.145  0.00  0.00    +0.011 C 
ENDBRANCH  31  32
ENDBRANCH  29  31
ENDBRANCH  28  29
ENDBRANCH  27  28
ENDBRANCH   8  27
TORSDOF 6
ENDMDL
MODEL 9
REMARK VINA RESULT:      -5.5      4.284     11.280
REMARK  Name = 66381
REMARK  6 active torsions:
REMARK  status: ('A' for Active; 'I' for Inactive)
REMARK    1  A    between atoms: C_8  and  C_27
REMARK    2  A    between atoms: C_12  and  O_24
REMARK    3  A    between atoms: C_27  and  C_28
REMARK    4  A    between atoms: C_28  and  O_29
REMARK    5  A    between atoms: O_29  and  C_31
REMARK    6  A    between atoms: C_31  and  C_32
REMARK                            x       y       z     vdW  Elec       q    Type
REMARK                         _______ _______ _______ _____ _____    ______ ____
ROOT
ATOM      1  F   UNL     1      34.640 -18.357 -19.984  0.00  0.00    -0.237 F 
ATOM      2  F   UNL     1      38.201 -18.094 -22.455  0.00  0.00    -0.233 F 
ATOM      3  O   UNL     1      34.848 -14.566 -23.046  0.00  0.00    -0.287 OA
ATOM      4  C   UNL     1      34.528 -21.717 -18.984  0.00  0.00    +0.009 C 
ATOM      5  C   UNL     1      35.769 -20.859 -19.299  0.00  0.00    +0.003 C 
ATOM      6  C   UNL     1      35.765 -20.292 -20.725  0.00  0.00    +0.036 C 
ATOM      7  C   UNL     1      34.501 -19.383 -20.907  0.00  0.00    +0.165 C 
ATOM      8  C   UNL     1      34.876 -22.123 -17.531  0.00  0.00    +0.061 C 
ATOM      9  C   UNL     1      36.935 -21.735 -18.845  0.00  0.00    +0.001 C 
ATOM     10  C   UNL     1      33.290 -20.811 -19.108  0.00  0.00    +0.032 C 
ATOM     11  C   UNL     1      36.392 -22.454 -17.585  0.00  0.00    +0.007 C 
ATOM     12  C   UNL     1      33.189 -20.111 -20.482  0.00  0.00    +0.141 C 
ATOM     13  C   UNL     1      34.477 -18.678 -22.322  0.00  0.00    +0.066 C 
ATOM     14  C   UNL     1      37.057 -19.504 -20.992  0.00  0.00    +0.042 C 
ATOM     15  C   UNL     1      34.386 -22.971 -19.884  0.00  0.00    +0.001 C 
ATOM     16  C   UNL     1      37.049 -18.819 -22.352  0.00  0.00    +0.180 C 
ATOM     17  C   UNL     1      35.821 -17.955 -22.500  0.00  0.00    -0.003 C 
ATOM     18  C   UNL     1      37.110 -22.006 -16.316  0.00  0.00    +0.000 C 
ATOM     19  C   UNL     1      34.299 -19.653 -23.509  0.00  0.00    +0.011 C 
ATOM     20  C   UNL     1      33.312 -17.702 -22.400  0.00  0.00    -0.017 C 
ATOM     21  C   UNL     1      35.930 -16.637 -22.730  0.00  0.00    +0.036 C 
ATOM     22  C   UNL     1      33.417 -16.388 -22.627  0.00  0.00    +0.038 C 
ATOM     23  C   UNL     1      34.739 -15.767 -22.821  0.00  0.00    +0.195 C 
ENDROOT
BRANCH  12  24
ATOM     24  O   UNL     1      32.771 -21.045 -21.466  0.00  0.00    -0.382 OA
ATOM     25  H   UNL     1      32.047 -21.585 -21.113  0.00  0.00    +0.210 HD
ENDBRANCH  12  24
BRANCH   8  27
ATOM     26  O   UNL     1      33.367 -23.951 -17.758  0.00  0.00    -0.292 OA
ATOM     27  C   UNL     1      34.059 -23.265 -17.008  0.00  0.00    +0.194 C 
BRANCH  27  28
ATOM     28  C   UNL     1      34.137 -23.517 -15.517  0.00  0.00    +0.272 C 
BRANCH  28  29
ATOM     29  O   UNL     1      34.978 -24.618 -15.241  0.00  0.00    -0.440 OA
BRANCH  29  31
ATOM     30  O   UNL     1      35.655 -23.676 -13.255  0.00  0.00    -0.250 OA
ATOM     31  C   UNL     1      35.810 -24.493 -14.153  0.00  0.00    +0.316 C 
BRANCH  31  32
ATOM     32  C   UNL     1      36.955 -25.509 -14.213  0.00  0.00    +0.090 C 
ATOM     33  C   UNL     1      37.146 -26.148 -12.831  0.00  0.00    +0.011 C 
ATOM     34  C   UNL     1      36.613 -26.611 -15.228  0.00  0.00    +0.011 C 
ATOM     35  C   UNL     1      38.243 -24.804 -14.659  0.00  0.00    +0.011 C 
ENDBRANCH  31  32
ENDBRANCH  29  31
ENDBRANCH  28  29
ENDBRANCH  27  28
ENDBRANCH   8  27
TORSDOF 6
ENDMDL
