MODEL 1
REMARK VINA RESULT:      -7.4      0.000      0.000
REMARK  Name = 11579379
REMARK  7 active torsions:
REMARK  status: ('A' for Active; 'I' for Inactive)
REMARK    1  A    between atoms: C_1  and  C_2
REMARK    2  A    between atoms: C_1  and  CA_11
REMARK    3  A    between atoms: C_7  and  O_8
REMARK    4  A    between atoms: O_8  and  C_10
REMARK    5  A    between atoms: CA_11  and  N_12
REMARK    6  A    between atoms: CA_11  and  C_17
REMARK    7  A    between atoms: C_17  and  O_18
REMARK                            x       y       z     vdW  Elec       q    Type
REMARK                         _______ _______ _______ _____ _____    ______ ____
ROOT
ATOM      1  C   UNL     1      34.278 -18.828 -21.810  0.00  0.00    +0.015 C 
ENDROOT
BRANCH   1   2
ATOM      2  C   UNL     1      34.374 -19.952 -20.804  0.00  0.00    -0.024 C 
ATOM      3  C   UNL     1      35.621 -20.443 -20.454  0.00  0.00    -0.001 C 
ATOM      4  C   UNL     1      33.214 -20.468 -20.252  0.00  0.00    -0.001 C 
ATOM      5  C   UNL     1      35.709 -21.481 -19.525  0.00  0.00    +0.037 C 
ATOM      6  C   UNL     1      33.302 -21.505 -19.323  0.00  0.00    +0.037 C 
ATOM      7  C   UNL     1      34.550 -22.011 -18.960  0.00  0.00    +0.142 C 
BRANCH   7   8
ATOM      8  O   UNL     1      34.637 -23.024 -18.055  0.00  0.00    -0.445 OA
BRANCH   8  10
ATOM      9  F   UNL     1      33.651 -23.179 -16.050  0.00  0.00    -0.181 F 
ATOM     10  C   UNL     1      33.438 -23.390 -17.378  0.00  0.00    +0.403 C 
ENDBRANCH   8  10
ENDBRANCH   7   8
ENDBRANCH   1   2
BRANCH   1  11
ATOM     11  CA  UNL     1      35.452 -17.840 -21.716  0.00  0.00    +0.040 C 
BRANCH  11  12
ATOM     12  N   UNL     1      36.043 -17.651 -23.038  0.00  0.00    +0.389 N 
ATOM     13  H1  UNL     1      36.161 -16.655 -23.218  0.00  0.00    -0.088 HD
ATOM     14  H2  UNL     1      35.428 -18.053 -23.746  0.00  0.00    -0.088 HD
ATOM     15  H3  UNL     1      36.951 -18.114 -23.074  0.00  0.00    -0.088 HD
ENDBRANCH  11  12
BRANCH  11  17
ATOM     16  OXT UNL     1      34.964 -16.114 -20.067  0.00  0.00    -0.253 OA
ATOM     17  C   UNL     1      35.007 -16.468 -21.238  0.00  0.00    +0.293 C 
BRANCH  17  18
ATOM     18  O   UNL     1      34.685 -15.642 -22.268  0.00  0.00    -0.482 OA
ATOM     19  H   UNL     1      33.971 -15.041 -22.182  0.00  0.00    +0.295 HD
ENDBRANCH  17  18
ENDBRANCH  11  17
ENDBRANCH   1  11
TORSDOF 7
ENDMDL
MODEL 2
REMARK VINA RESULT:      -7.4      1.511      2.182
REMARK  Name = 11579379
REMARK  7 active torsions:
REMARK  status: ('A' for Active; 'I' for Inactive)
REMARK    1  A    between atoms: C_1  and  C_2
REMARK    2  A    between atoms: C_1  and  CA_11
REMARK    3  A    between atoms: C_7  and  O_8
REMARK    4  A    between atoms: O_8  and  C_10
REMARK    5  A    between atoms: CA_11  and  N_12
REMARK    6  A    between atoms: CA_11  and  C_17
REMARK    7  A    between atoms: C_17  and  O_18
REMARK                            x       y       z     vdW  Elec       q    Type
REMARK                         _______ _______ _______ _____ _____    ______ ____
ROOT
ATOM      1  C   UNL     1      35.578 -18.721 -21.729  0.00  0.00    +0.015 C 
ENDROOT
BRANCH   1   2
ATOM      2  C   UNL     1      34.831 -19.733 -20.890  0.00  0.00    -0.024 C 
ATOM      3  C   UNL     1      33.449 -19.671 -20.825  0.00  0.00    -0.001 C 
ATOM      4  C   UNL     1      35.544 -20.701 -20.204  0.00  0.00    -0.001 C 
ATOM      5  C   UNL     1      32.761 -20.605 -20.050  0.00  0.00    +0.037 C 
ATOM      6  C   UNL     1      34.855 -21.636 -19.430  0.00  0.00    +0.037 C 
ATOM      7  C   UNL     1      33.464 -21.587 -19.354  0.00  0.00    +0.142 C 
BRANCH   7   8
ATOM      8  O   UNL     1      32.791 -22.498 -18.598  0.00  0.00    -0.445 OA
BRANCH   8  10
ATOM      9  F   UNL     1      32.905 -23.059 -16.433  0.00  0.00    -0.181 F 
ATOM     10  C   UNL     1      33.546 -23.213 -17.624  0.00  0.00    +0.403 C 
ENDBRANCH   8  10
ENDBRANCH   7   8
ENDBRANCH   1   2
BRANCH   1  11
ATOM     11  CA  UNL     1      34.680 -17.576 -22.222  0.00  0.00    +0.040 C 
BRANCH  11  12
ATOM     12  N   UNL     1      34.899 -16.389 -21.399  0.00  0.00    +0.389 N 
ATOM     13  H1  UNL     1      34.115 -16.272 -20.757  0.00  0.00    -0.088 HD
ATOM     14  H2  UNL     1      34.973 -15.568 -21.999  0.00  0.00    -0.088 HD
ATOM     15  H3  UNL     1      35.761 -16.500 -20.866  0.00  0.00    -0.088 HD
ENDBRANCH  11  12
BRANCH  11  17
ATOM     16  OXT UNL     1      34.657 -17.805 -24.647  0.00  0.00    -0.253 OA
ATOM     17  C   UNL     1      34.997 -17.176 -23.653  0.00  0.00    +0.293 C 
BRANCH  17  18
ATOM     18  O   UNL     1      35.685 -16.006 -23.723  0.00  0.00    -0.482 OA
ATOM     19  H   UNL     1      36.251 -15.837 -24.450  0.00  0.00    +0.295 HD
ENDBRANCH  17  18
ENDBRANCH  11  17
ENDBRANCH   1  11
TORSDOF 7
ENDMDL
MODEL 3
REMARK VINA RESULT:      -7.4      0.254      1.273
REMARK  Name = 11579379
REMARK  7 active torsions:
REMARK  status: ('A' for Active; 'I' for Inactive)
REMARK    1  A    between atoms: C_1  and  C_2
REMARK    2  A    between atoms: C_1  and  CA_11
REMARK    3  A    between atoms: C_7  and  O_8
REMARK    4  A    between atoms: O_8  and  C_10
REMARK    5  A    between atoms: CA_11  and  N_12
REMARK    6  A    between atoms: CA_11  and  C_17
REMARK    7  A    between atoms: C_17  and  O_18
REMARK                            x       y       z     vdW  Elec       q    Type
REMARK                         _______ _______ _______ _____ _____    ______ ____
ROOT
ATOM      1  C   UNL     1      34.315 -18.790 -21.915  0.00  0.00    +0.015 C 
ENDROOT
BRANCH   1   2
ATOM      2  C   UNL     1      34.418 -19.902 -20.896  0.00  0.00    -0.024 C 
ATOM      3  C   UNL     1      33.263 -20.395 -20.312  0.00  0.00    -0.001 C 
ATOM      4  C   UNL     1      35.666 -20.404 -20.567  0.00  0.00    -0.001 C 
ATOM      5  C   UNL     1      33.360 -21.421 -19.371  0.00  0.00    +0.037 C 
ATOM      6  C   UNL     1      35.762 -21.430 -19.626  0.00  0.00    +0.037 C 
ATOM      7  C   UNL     1      34.609 -21.938 -19.029  0.00  0.00    +0.142 C 
BRANCH   7   8
ATOM      8  O   UNL     1      34.702 -22.939 -18.110  0.00  0.00    -0.445 OA
BRANCH   8  10
ATOM      9  F   UNL     1      33.881 -23.835 -16.230  0.00  0.00    -0.181 F 
ATOM     10  C   UNL     1      33.507 -23.295 -17.421  0.00  0.00    +0.403 C 
ENDBRANCH   8  10
ENDBRANCH   7   8
ENDBRANCH   1   2
BRANCH   1  11
ATOM     11  CA  UNL     1      35.412 -17.727 -21.752  0.00  0.00    +0.040 C 
BRANCH  11  12
ATOM     12  N   UNL     1      36.009 -17.432 -23.052  0.00  0.00    +0.389 N 
ATOM     13  H1  UNL     1      36.317 -18.301 -23.489  0.00  0.00    -0.088 HD
ATOM     14  H2  UNL     1      36.809 -16.812 -22.927  0.00  0.00    -0.088 HD
ATOM     15  H3  UNL     1      35.317 -16.978 -23.648  0.00  0.00    -0.088 HD
ENDBRANCH  11  12
BRANCH  11  17
ATOM     16  OXT UNL     1      34.998 -16.015 -20.069  0.00  0.00    -0.253 OA
ATOM     17  C   UNL     1      34.863 -16.415 -21.218  0.00  0.00    +0.293 C 
BRANCH  17  18
ATOM     18  O   UNL     1      34.219 -15.697 -22.176  0.00  0.00    -0.482 OA
ATOM     19  H   UNL     1      33.892 -14.841 -21.980  0.00  0.00    +0.295 HD
ENDBRANCH  17  18
ENDBRANCH  11  17
ENDBRANCH   1  11
TORSDOF 7
ENDMDL
MODEL 4
REMARK VINA RESULT:      -7.1      4.783      7.293
REMARK  Name = 11579379
REMARK  7 active torsions:
REMARK  status: ('A' for Active; 'I' for Inactive)
REMARK    1  A    between atoms: C_1  and  C_2
REMARK    2  A    between atoms: C_1  and  CA_11
REMARK    3  A    between atoms: C_7  and  O_8
REMARK    4  A    between atoms: O_8  and  C_10
REMARK    5  A    between atoms: CA_11  and  N_12
REMARK    6  A    between atoms: CA_11  and  C_17
REMARK    7  A    between atoms: C_17  and  O_18
REMARK                            x       y       z     vdW  Elec       q    Type
REMARK                         _______ _______ _______ _____ _____    ______ ____
ROOT
ATOM      1  C   UNL     1      35.311 -17.792 -21.156  0.00  0.00    +0.015 C 
ENDROOT
BRANCH   1   2
ATOM      2  C   UNL     1      34.913 -17.278 -22.521  0.00  0.00    -0.024 C 
ATOM      3  C   UNL     1      34.941 -18.141 -23.604  0.00  0.00    -0.001 C 
ATOM      4  C   UNL     1      34.527 -15.955 -22.660  0.00  0.00    -0.001 C 
ATOM      5  C   UNL     1      34.574 -17.665 -24.864  0.00  0.00    +0.037 C 
ATOM      6  C   UNL     1      34.159 -15.481 -23.919  0.00  0.00    +0.037 C 
ATOM      7  C   UNL     1      34.182 -16.336 -25.020  0.00  0.00    +0.142 C 
BRANCH   7   8
ATOM      8  O   UNL     1      33.825 -15.873 -26.250  0.00  0.00    -0.445 OA
BRANCH   8  10
ATOM      9  F   UNL     1      33.564 -13.922 -27.318  0.00  0.00    -0.181 F 
ATOM     10  C   UNL     1      33.069 -14.666 -26.291  0.00  0.00    +0.403 C 
ENDBRANCH   8  10
ENDBRANCH   7   8
ENDBRANCH   1   2
BRANCH   1  11
ATOM     11  CA  UNL     1      35.587 -19.304 -21.145  0.00  0.00    +0.040 C 
BRANCH  11  12
ATOM     12  N   UNL     1      36.706 -19.593 -20.251  0.00  0.00    +0.389 N 
ATOM     13  H1  UNL     1      37.508 -19.902 -20.800  0.00  0.00    -0.088 HD
ATOM     14  H2  UNL     1      36.438 -20.328 -19.597  0.00  0.00    -0.088 HD
ATOM     15  H3  UNL     1      36.953 -18.750 -19.733  0.00  0.00    -0.088 HD
ENDBRANCH  11  12
BRANCH  11  17
ATOM     16  OXT UNL     1      33.241 -19.938 -20.984  0.00  0.00    -0.253 OA
ATOM     17  C   UNL     1      34.400 -20.098 -20.626  0.00  0.00    +0.293 C 
BRANCH  17  18
ATOM     18  O   UNL     1      34.768 -21.048 -19.726  0.00  0.00    -0.482 OA
ATOM     19  H   UNL     1      35.571 -20.959 -19.253  0.00  0.00    +0.295 HD
ENDBRANCH  17  18
ENDBRANCH  11  17
ENDBRANCH   1  11
TORSDOF 7
ENDMDL
MODEL 5
REMARK VINA RESULT:      -7.1      6.259      7.634
REMARK  Name = 11579379
REMARK  7 active torsions:
REMARK  status: ('A' for Active; 'I' for Inactive)
REMARK    1  A    between atoms: C_1  and  C_2
REMARK    2  A    between atoms: C_1  and  CA_11
REMARK    3  A    between atoms: C_7  and  O_8
REMARK    4  A    between atoms: O_8  and  C_10
REMARK    5  A    between atoms: CA_11  and  N_12
REMARK    6  A    between atoms: CA_11  and  C_17
REMARK    7  A    between atoms: C_17  and  O_18
REMARK                            x       y       z     vdW  Elec       q    Type
REMARK                         _______ _______ _______ _____ _____    ______ ____
ROOT
ATOM      1  C   UNL     1      30.315 -22.941 -15.365  0.00  0.00    +0.015 C 
ENDROOT
BRANCH   1   2
ATOM      2  C   UNL     1      31.794 -23.097 -15.637  0.00  0.00    -0.024 C 
ATOM      3  C   UNL     1      32.665 -23.264 -14.572  0.00  0.00    -0.001 C 
ATOM      4  C   UNL     1      32.249 -23.069 -16.945  0.00  0.00    -0.001 C 
ATOM      5  C   UNL     1      34.030 -23.406 -14.824  0.00  0.00    +0.037 C 
ATOM      6  C   UNL     1      33.614 -23.213 -17.196  0.00  0.00    +0.037 C 
ATOM      7  C   UNL     1      34.504 -23.382 -16.136  0.00  0.00    +0.142 C 
BRANCH   7   8
ATOM      8  O   UNL     1      35.835 -23.521 -16.380  0.00  0.00    -0.445 OA
BRANCH   8  10
ATOM      9  F   UNL     1      36.668 -21.992 -17.789  0.00  0.00    -0.181 F 
ATOM     10  C   UNL     1      36.603 -22.324 -16.471  0.00  0.00    +0.403 C 
ENDBRANCH   8  10
ENDBRANCH   7   8
ENDBRANCH   1   2
BRANCH   1  11
ATOM     11  CA  UNL     1      29.462 -23.995 -16.088  0.00  0.00    +0.040 C 
BRANCH  11  12
ATOM     12  N   UNL     1      28.735 -24.796 -15.106  0.00  0.00    +0.389 N 
ATOM     13  H1  UNL     1      27.958 -24.253 -14.731  0.00  0.00    -0.088 HD
ATOM     14  H2  UNL     1      29.365 -25.057 -14.347  0.00  0.00    -0.088 HD
ATOM     15  H3  UNL     1      28.376 -25.639 -15.554  0.00  0.00    -0.088 HD
ENDBRANCH  11  12
BRANCH  11  17
ATOM     16  OXT UNL     1      27.561 -23.980 -17.611  0.00  0.00    -0.253 OA
ATOM     17  C   UNL     1      28.417 -23.362 -16.991  0.00  0.00    +0.293 C 
BRANCH  17  18
ATOM     18  O   UNL     1      28.508 -22.007 -17.017  0.00  0.00    -0.482 OA
ATOM     19  H   UNL     1      29.071 -21.587 -17.637  0.00  0.00    +0.295 HD
ENDBRANCH  17  18
ENDBRANCH  11  17
ENDBRANCH   1  11
TORSDOF 7
ENDMDL
MODEL 6
REMARK VINA RESULT:      -7.0      3.507      6.545
REMARK  Name = 11579379
REMARK  7 active torsions:
REMARK  status: ('A' for Active; 'I' for Inactive)
REMARK    1  A    between atoms: C_1  and  C_2
REMARK    2  A    between atoms: C_1  and  CA_11
REMARK    3  A    between atoms: C_7  and  O_8
REMARK    4  A    between atoms: O_8  and  C_10
REMARK    5  A    between atoms: CA_11  and  N_12
REMARK    6  A    between atoms: CA_11  and  C_17
REMARK    7  A    between atoms: C_17  and  O_18
REMARK                            x       y       z     vdW  Elec       q    Type
REMARK                         _______ _______ _______ _____ _____    ______ ____
ROOT
ATOM      1  C   UNL     1      34.984 -20.417 -21.092  0.00  0.00    +0.015 C 
ENDROOT
BRANCH   1   2
ATOM      2  C   UNL     1      35.002 -19.064 -21.766  0.00  0.00    -0.024 C 
ATOM      3  C   UNL     1      34.984 -18.997 -23.150  0.00  0.00    -0.001 C 
ATOM      4  C   UNL     1      35.038 -17.920 -20.987  0.00  0.00    -0.001 C 
ATOM      5  C   UNL     1      35.002 -17.748 -23.771  0.00  0.00    +0.037 C 
ATOM      6  C   UNL     1      35.055 -16.671 -21.609  0.00  0.00    +0.037 C 
ATOM      7  C   UNL     1      35.036 -16.586 -23.001  0.00  0.00    +0.142 C 
BRANCH   7   8
ATOM      8  O   UNL     1      35.054 -15.368 -23.609  0.00  0.00    -0.445 OA
BRANCH   8  10
ATOM      9  F   UNL     1      32.937 -14.655 -23.452  0.00  0.00    -0.181 F 
ATOM     10  C   UNL     1      34.207 -14.361 -23.062  0.00  0.00    +0.403 C 
ENDBRANCH   8  10
ENDBRANCH   7   8
ENDBRANCH   1   2
BRANCH   1  11
ATOM     11  CA  UNL     1      33.850 -20.557 -20.065  0.00  0.00    +0.040 C 
BRANCH  11  12
ATOM     12  N   UNL     1      32.560 -20.466 -20.743  0.00  0.00    +0.389 N 
ATOM     13  H1  UNL     1      32.582 -19.698 -21.414  0.00  0.00    -0.088 HD
ATOM     14  H2  UNL     1      31.825 -20.295 -20.055  0.00  0.00    -0.088 HD
ATOM     15  H3  UNL     1      32.370 -21.340 -21.232  0.00  0.00    -0.088 HD
ENDBRANCH  11  12
BRANCH  11  17
ATOM     16  OXT UNL     1      34.859 -22.630 -19.281  0.00  0.00    -0.253 OA
ATOM     17  C   UNL     1      33.878 -21.903 -19.361  0.00  0.00    +0.293 C 
BRANCH  17  18
ATOM     18  O   UNL     1      32.685 -22.212 -18.788  0.00  0.00    -0.482 OA
ATOM     19  H   UNL     1      31.889 -22.091 -19.268  0.00  0.00    +0.295 HD
ENDBRANCH  17  18
ENDBRANCH  11  17
ENDBRANCH   1  11
TORSDOF 7
ENDMDL
MODEL 7
REMARK VINA RESULT:      -7.0      6.605      7.723
REMARK  Name = 11579379
REMARK  7 active torsions:
REMARK  status: ('A' for Active; 'I' for Inactive)
REMARK    1  A    between atoms: C_1  and  C_2
REMARK    2  A    between atoms: C_1  and  CA_11
REMARK    3  A    between atoms: C_7  and  O_8
REMARK    4  A    between atoms: O_8  and  C_10
REMARK    5  A    between atoms: CA_11  and  N_12
REMARK    6  A    between atoms: CA_11  and  C_17
REMARK    7  A    between atoms: C_17  and  O_18
REMARK                            x       y       z     vdW  Elec       q    Type
REMARK                         _______ _______ _______ _____ _____    ______ ____
ROOT
ATOM      1  C   UNL     1      30.308 -22.841 -15.313  0.00  0.00    +0.015 C 
ENDROOT
BRANCH   1   2
ATOM      2  C   UNL     1      31.780 -23.149 -15.476  0.00  0.00    -0.024 C 
ATOM      3  C   UNL     1      32.338 -23.138 -16.743  0.00  0.00    -0.001 C 
ATOM      4  C   UNL     1      32.539 -23.435 -14.354  0.00  0.00    -0.001 C 
ATOM      5  C   UNL     1      33.696 -23.423 -16.892  0.00  0.00    +0.037 C 
ATOM      6  C   UNL     1      33.897 -23.720 -14.503  0.00  0.00    +0.037 C 
ATOM      7  C   UNL     1      34.475 -23.713 -15.773  0.00  0.00    +0.142 C 
BRANCH   7   8
ATOM      8  O   UNL     1      35.799 -23.991 -15.920  0.00  0.00    -0.445 OA
BRANCH   8  10
ATOM      9  F   UNL     1      35.909 -26.175 -15.436  0.00  0.00    -0.181 F 
ATOM     10  C   UNL     1      36.358 -24.955 -15.033  0.00  0.00    +0.403 C 
ENDBRANCH   8  10
ENDBRANCH   7   8
ENDBRANCH   1   2
BRANCH   1  11
ATOM     11  CA  UNL     1      29.407 -23.795 -16.114  0.00  0.00    +0.040 C 
BRANCH  11  12
ATOM     12  N   UNL     1      28.736 -24.717 -15.202  0.00  0.00    +0.389 N 
ATOM     13  H1  UNL     1      27.905 -24.270 -14.816  0.00  0.00    -0.088 HD
ATOM     14  H2  UNL     1      29.371 -24.968 -14.443  0.00  0.00    -0.088 HD
ATOM     15  H3  UNL     1      28.465 -25.559 -15.709  0.00  0.00    -0.088 HD
ENDBRANCH  11  12
BRANCH  11  17
ATOM     16  OXT UNL     1      28.114 -21.847 -16.798  0.00  0.00    -0.253 OA
ATOM     17  C   UNL     1      28.314 -23.053 -16.864  0.00  0.00    +0.293 C 
BRANCH  17  18
ATOM     18  O   UNL     1      27.584 -23.878 -17.661  0.00  0.00    -0.482 OA
ATOM     19  H   UNL     1      27.926 -24.714 -17.908  0.00  0.00    +0.295 HD
ENDBRANCH  17  18
ENDBRANCH  11  17
ENDBRANCH   1  11
TORSDOF 7
ENDMDL
MODEL 8
REMARK VINA RESULT:      -6.9      3.389      4.562
REMARK  Name = 11579379
REMARK  7 active torsions:
REMARK  status: ('A' for Active; 'I' for Inactive)
REMARK    1  A    between atoms: C_1  and  C_2
REMARK    2  A    between atoms: C_1  and  CA_11
REMARK    3  A    between atoms: C_7  and  O_8
REMARK    4  A    between atoms: O_8  and  C_10
REMARK    5  A    between atoms: CA_11  and  N_12
REMARK    6  A    between atoms: CA_11  and  C_17
REMARK    7  A    between atoms: C_17  and  O_18
REMARK                            x       y       z     vdW  Elec       q    Type
REMARK                         _______ _______ _______ _____ _____    ______ ____
ROOT
ATOM      1  C   UNL     1      34.974 -15.629 -23.962  0.00  0.00    +0.015 C 
ENDROOT
BRANCH   1   2
ATOM      2  C   UNL     1      34.867 -16.885 -23.128  0.00  0.00    -0.024 C 
ATOM      3  C   UNL     1      34.918 -18.120 -23.754  0.00  0.00    -0.001 C 
ATOM      4  C   UNL     1      34.718 -16.776 -21.756  0.00  0.00    -0.001 C 
ATOM      5  C   UNL     1      34.818 -19.279 -22.983  0.00  0.00    +0.037 C 
ATOM      6  C   UNL     1      34.619 -17.935 -20.986  0.00  0.00    +0.037 C 
ATOM      7  C   UNL     1      34.669 -19.186 -21.600  0.00  0.00    +0.142 C 
BRANCH   7   8
ATOM      8  O   UNL     1      34.571 -20.317 -20.849  0.00  0.00    -0.445 OA
BRANCH   8  10
ATOM      9  F   UNL     1      32.343 -20.290 -21.070  0.00  0.00    -0.181 F 
ATOM     10  C   UNL     1      33.337 -20.540 -20.174  0.00  0.00    +0.403 C 
ENDBRANCH   8  10
ENDBRANCH   7   8
ENDBRANCH   1   2
BRANCH   1  11
ATOM     11  CA  UNL     1      33.612 -14.963 -24.216  0.00  0.00    +0.040 C 
BRANCH  11  12
ATOM     12  N   UNL     1      33.703 -13.534 -23.930  0.00  0.00    +0.389 N 
ATOM     13  H1  UNL     1      32.794 -13.098 -24.083  0.00  0.00    -0.088 HD
ATOM     14  H2  UNL     1      34.393 -13.106 -24.549  0.00  0.00    -0.088 HD
ATOM     15  H3  UNL     1      33.987 -13.398 -22.960  0.00  0.00    -0.088 HD
ENDBRANCH  11  12
BRANCH  11  17
ATOM     16  OXT UNL     1      33.533 -15.977 -26.430  0.00  0.00    -0.253 OA
ATOM     17  C   UNL     1      33.176 -15.089 -25.666  0.00  0.00    +0.293 C 
BRANCH  17  18
ATOM     18  O   UNL     1      32.302 -14.114 -26.029  0.00  0.00    -0.482 OA
ATOM     19  H   UNL     1      32.363 -13.262 -25.644  0.00  0.00    +0.295 HD
ENDBRANCH  17  18
ENDBRANCH  11  17
ENDBRANCH   1  11
TORSDOF 7
ENDMDL
MODEL 9
REMARK VINA RESULT:      -6.9      3.628      6.518
REMARK  Name = 11579379
REMARK  7 active torsions:
REMARK  status: ('A' for Active; 'I' for Inactive)
REMARK    1  A    between atoms: C_1  and  C_2
REMARK    2  A    between atoms: C_1  and  CA_11
REMARK    3  A    between atoms: C_7  and  O_8
REMARK    4  A    between atoms: O_8  and  C_10
REMARK    5  A    between atoms: CA_11  and  N_12
REMARK    6  A    between atoms: CA_11  and  C_17
REMARK    7  A    between atoms: C_17  and  O_18
REMARK                            x       y       z     vdW  Elec       q    Type
REMARK                         _______ _______ _______ _____ _____    ______ ____
ROOT
ATOM      1  C   UNL     1      33.698 -23.239 -18.354  0.00  0.00    +0.015 C 
ENDROOT
BRANCH   1   2
ATOM      2  C   UNL     1      34.140 -22.055 -19.184  0.00  0.00    -0.024 C 
ATOM      3  C   UNL     1      33.184 -21.200 -19.707  0.00  0.00    -0.001 C 
ATOM      4  C   UNL     1      35.491 -21.851 -19.406  0.00  0.00    -0.001 C 
ATOM      5  C   UNL     1      33.593 -20.108 -20.474  0.00  0.00    +0.037 C 
ATOM      6  C   UNL     1      35.900 -20.759 -20.173  0.00  0.00    +0.037 C 
ATOM      7  C   UNL     1      34.950 -19.888 -20.706  0.00  0.00    +0.142 C 
BRANCH   7   8
ATOM      8  O   UNL     1      35.347 -18.823 -21.455  0.00  0.00    -0.445 OA
BRANCH   8  10
ATOM      9  F   UNL     1      34.949 -19.803 -23.429  0.00  0.00    -0.181 F 
ATOM     10  C   UNL     1      34.725 -18.659 -22.726  0.00  0.00    +0.403 C 
ENDBRANCH   8  10
ENDBRANCH   7   8
ENDBRANCH   1   2
BRANCH   1  11
ATOM     11  CA  UNL     1      33.317 -22.850 -16.917  0.00  0.00    +0.040 C 
BRANCH  11  12
ATOM     12  N   UNL     1      32.023 -23.437 -16.576  0.00  0.00    +0.389 N 
ATOM     13  H1  UNL     1      32.124 -24.447 -16.478  0.00  0.00    -0.088 HD
ATOM     14  H2  UNL     1      31.352 -23.232 -17.316  0.00  0.00    -0.088 HD
ATOM     15  H3  UNL     1      31.692 -23.041 -15.697  0.00  0.00    -0.088 HD
ENDBRANCH  11  12
BRANCH  11  17
ATOM     16  OXT UNL     1      35.164 -24.228 -16.126  0.00  0.00    -0.253 OA
ATOM     17  C   UNL     1      34.314 -23.376 -15.899  0.00  0.00    +0.293 C 
BRANCH  17  18
ATOM     18  O   UNL     1      34.189 -22.767 -14.690  0.00  0.00    -0.482 OA
ATOM     19  H   UNL     1      33.677 -23.168 -14.015  0.00  0.00    +0.295 HD
ENDBRANCH  17  18
ENDBRANCH  11  17
ENDBRANCH   1  11
TORSDOF 7
ENDMDL
