MODEL 1
REMARK VINA RESULT:      -9.6      0.000      0.000
REMARK  Name = 1385
REMARK  5 active torsions:
REMARK  status: ('A' for Active; 'I' for Inactive)
REMARK    1  A    between atoms: C_2  and  N_9
REMARK    2  A    between atoms: C_3  and  C_20
REMARK    3  A    between atoms: C_10  and  C_14
REMARK    4  A    between atoms: C_20  and  O_21
REMARK    5  A    between atoms: O_21  and  C_22
REMARK                            x       y       z     vdW  Elec       q    Type
REMARK                         _______ _______ _______ _____ _____    ______ ____
ROOT
ATOM      1 CL   UNL     1      35.266 -20.053 -24.206  0.00  0.00    -0.082 Cl
ATOM      2  C   UNL     1      34.490 -15.645 -23.770  0.00  0.00    +0.051 C 
ATOM      3  C   UNL     1      35.254 -17.707 -22.812  0.00  0.00    +0.087 C 
ATOM      4  C   UNL     1      35.008 -16.339 -22.690  0.00  0.00    +0.022 C 
ATOM      5  C   UNL     1      34.209 -16.279 -24.970  0.00  0.00    +0.016 C 
ATOM      6  C   UNL     1      34.976 -18.361 -24.013  0.00  0.00    +0.064 C 
ATOM      7  C   UNL     1      34.455 -17.646 -25.091  0.00  0.00    +0.013 C 
ENDROOT
BRANCH   2   9
ATOM      8  O   UNL     1      32.598 -13.852 -25.285  0.00  0.00    -0.269 OA
ATOM      9  N   UNL     1      34.242 -14.257 -23.647  0.00  0.00    -0.280 N 
ATOM     10  C   UNL     1      33.351 -13.490 -24.384  0.00  0.00    +0.258 C 
ATOM     11  H   UNL     1      34.761 -13.781 -22.959  0.00  0.00    +0.155 HD
BRANCH  10  14
ATOM     12  S   UNL     1      34.352 -11.065 -24.968  0.00  0.00    -0.103 S 
ATOM     13  O   UNL     1      32.585 -10.333 -22.484  0.00  0.00    -0.478 OA
ATOM     14  C   UNL     1      33.366 -12.078 -23.972  0.00  0.00    +0.109 C 
ATOM     15  C   UNL     1      34.374  -9.572 -23.950  0.00  0.00    +0.110 C 
ATOM     16  C   UNL     1      32.972  -9.336 -23.429  0.00  0.00    +0.217 C 
ATOM     17  C   UNL     1      32.656 -11.650 -22.907  0.00  0.00    +0.126 C 
ATOM     18  C   UNL     1      31.865 -12.557 -22.004  0.00  0.00    +0.073 C 
ENDBRANCH  10  14
ENDBRANCH   2   9
BRANCH   3  20
ATOM     19  O   UNL     1      36.993 -18.700 -21.518  0.00  0.00    -0.245 OA
ATOM     20  C   UNL     1      35.798 -18.413 -21.659  0.00  0.00    +0.342 C 
BRANCH  20  21
ATOM     21  O   UNL     1      34.823 -18.715 -20.751  0.00  0.00    -0.449 OA
BRANCH  21  22
ATOM     22  C   UNL     1      34.272 -20.035 -20.812  0.00  0.00    +0.169 C 
ATOM     23  C   UNL     1      35.031 -20.940 -19.854  0.00  0.00    +0.047 C 
ATOM     24  C   UNL     1      32.789 -19.974 -20.480  0.00  0.00    +0.047 C 
ENDBRANCH  21  22
ENDBRANCH  20  21
ENDBRANCH   3  20
TORSDOF 5
ENDMDL
MODEL 2
REMARK VINA RESULT:      -9.3      4.115      8.326
REMARK  Name = 1385
REMARK  5 active torsions:
REMARK  status: ('A' for Active; 'I' for Inactive)
REMARK    1  A    between atoms: C_2  and  N_9
REMARK    2  A    between atoms: C_3  and  C_20
REMARK    3  A    between atoms: C_10  and  C_14
REMARK    4  A    between atoms: C_20  and  O_21
REMARK    5  A    between atoms: O_21  and  C_22
REMARK                            x       y       z     vdW  Elec       q    Type
REMARK                         _______ _______ _______ _____ _____    ______ ____
ROOT
ATOM      1 CL   UNL     1      33.662  -6.712 -23.622  0.00  0.00    -0.082 Cl
ATOM      2  C   UNL     1      34.031 -11.156 -24.199  0.00  0.00    +0.051 C 
ATOM      3  C   UNL     1      32.756  -9.279 -23.423  0.00  0.00    +0.087 C 
ATOM      4  C   UNL     1      32.884 -10.655 -23.608  0.00  0.00    +0.022 C 
ATOM      5  C   UNL     1      35.057 -10.321 -24.610  0.00  0.00    +0.016 C 
ATOM      6  C   UNL     1      33.780  -8.423 -23.831  0.00  0.00    +0.064 C 
ATOM      7  C   UNL     1      34.929  -8.944 -24.425  0.00  0.00    +0.013 C 
ENDROOT
BRANCH   2   9
ATOM      8  O   UNL     1      32.279 -13.429 -23.274  0.00  0.00    -0.269 OA
ATOM      9  N   UNL     1      34.161 -12.553 -24.387  0.00  0.00    -0.280 N 
ATOM     10  C   UNL     1      33.311 -13.550 -23.930  0.00  0.00    +0.258 C 
ATOM     11  H   UNL     1      34.944 -12.852 -24.903  0.00  0.00    +0.155 HD
BRANCH  10  14
ATOM     12  S   UNL     1      34.555 -15.765 -23.052  0.00  0.00    -0.103 S 
ATOM     13  O   UNL     1      33.939 -16.627 -26.002  0.00  0.00    -0.478 OA
ATOM     14  C   UNL     1      33.770 -14.891 -24.321  0.00  0.00    +0.109 C 
ATOM     15  C   UNL     1      35.245 -17.133 -24.010  0.00  0.00    +0.110 C 
ATOM     16  C   UNL     1      34.189 -17.601 -24.990  0.00  0.00    +0.217 C 
ATOM     17  C   UNL     1      33.576 -15.363 -25.571  0.00  0.00    +0.126 C 
ATOM     18  C   UNL     1      32.961 -14.561 -26.685  0.00  0.00    +0.073 C 
ENDBRANCH  10  14
ENDBRANCH   2   9
BRANCH   3  20
ATOM     19  O   UNL     1      30.780  -7.948 -23.314  0.00  0.00    -0.245 OA
ATOM     20  C   UNL     1      31.538  -8.779 -22.798  0.00  0.00    +0.342 C 
BRANCH  20  21
ATOM     21  O   UNL     1      31.335  -9.346 -21.571  0.00  0.00    -0.449 OA
BRANCH  21  22
ATOM     22  C   UNL     1      32.266  -9.002 -20.541  0.00  0.00    +0.169 C 
ATOM     23  C   UNL     1      32.175  -7.509 -20.261  0.00  0.00    +0.047 C 
ATOM     24  C   UNL     1      31.969  -9.830 -19.300  0.00  0.00    +0.047 C 
ENDBRANCH  21  22
ENDBRANCH  20  21
ENDBRANCH   3  20
TORSDOF 5
ENDMDL
MODEL 3
REMARK VINA RESULT:      -9.0      3.740      6.181
REMARK  Name = 1385
REMARK  5 active torsions:
REMARK  status: ('A' for Active; 'I' for Inactive)
REMARK    1  A    between atoms: C_2  and  N_9
REMARK    2  A    between atoms: C_3  and  C_20
REMARK    3  A    between atoms: C_10  and  C_14
REMARK    4  A    between atoms: C_20  and  O_21
REMARK    5  A    between atoms: O_21  and  C_22
REMARK                            x       y       z     vdW  Elec       q    Type
REMARK                         _______ _______ _______ _____ _____    ______ ____
ROOT
ATOM      1 CL   UNL     1      36.449 -22.725 -17.323  0.00  0.00    -0.082 Cl
ATOM      2  C   UNL     1      35.241 -19.938 -20.638  0.00  0.00    +0.051 C 
ATOM      3  C   UNL     1      34.721 -21.804 -19.225  0.00  0.00    +0.087 C 
ATOM      4  C   UNL     1      34.359 -20.933 -20.252  0.00  0.00    +0.022 C 
ATOM      5  C   UNL     1      36.476 -19.789 -20.029  0.00  0.00    +0.016 C 
ATOM      6  C   UNL     1      35.961 -21.668 -18.600  0.00  0.00    +0.064 C 
ATOM      7  C   UNL     1      36.837 -20.660 -19.002  0.00  0.00    +0.013 C 
ENDROOT
BRANCH   2   9
ATOM      8  O   UNL     1      36.945 -18.353 -22.555  0.00  0.00    -0.269 OA
ATOM      9  N   UNL     1      34.874 -19.053 -21.681  0.00  0.00    -0.280 N 
ATOM     10  C   UNL     1      35.717 -18.352 -22.530  0.00  0.00    +0.258 C 
ATOM     11  H   UNL     1      33.908 -18.920 -21.819  0.00  0.00    +0.155 HD
BRANCH  10  14
ATOM     12  S   UNL     1      34.790 -15.875 -23.014  0.00  0.00    -0.103 S 
ATOM     13  O   UNL     1      33.816 -17.332 -25.613  0.00  0.00    -0.478 OA
ATOM     14  C   UNL     1      34.971 -17.528 -23.493  0.00  0.00    +0.109 C 
ATOM     15  C   UNL     1      33.570 -15.340 -24.235  0.00  0.00    +0.110 C 
ATOM     16  C   UNL     1      33.966 -15.914 -25.580  0.00  0.00    +0.217 C 
ATOM     17  C   UNL     1      34.488 -18.051 -24.639  0.00  0.00    +0.126 C 
ATOM     18  C   UNL     1      34.586 -19.507 -25.004  0.00  0.00    +0.073 C 
ENDBRANCH  10  14
ENDBRANCH   2   9
BRANCH   3  20
ATOM     19  O   UNL     1      33.830 -24.016 -19.225  0.00  0.00    -0.245 OA
ATOM     20  C   UNL     1      33.774 -22.842 -18.838  0.00  0.00    +0.342 C 
BRANCH  20  21
ATOM     21  O   UNL     1      32.817 -22.357 -17.992  0.00  0.00    -0.449 OA
BRANCH  21  22
ATOM     22  C   UNL     1      32.360 -23.239 -16.962  0.00  0.00    +0.169 C 
ATOM     23  C   UNL     1      33.344 -23.207 -15.802  0.00  0.00    +0.047 C 
ATOM     24  C   UNL     1      30.962 -22.823 -16.530  0.00  0.00    +0.047 C 
ENDBRANCH  21  22
ENDBRANCH  20  21
ENDBRANCH   3  20
TORSDOF 5
ENDMDL
MODEL 4
REMARK VINA RESULT:      -8.7      6.615     10.067
REMARK  Name = 1385
REMARK  5 active torsions:
REMARK  status: ('A' for Active; 'I' for Inactive)
REMARK    1  A    between atoms: C_2  and  N_9
REMARK    2  A    between atoms: C_3  and  C_20
REMARK    3  A    between atoms: C_10  and  C_14
REMARK    4  A    between atoms: C_20  and  O_21
REMARK    5  A    between atoms: O_21  and  C_22
REMARK                            x       y       z     vdW  Elec       q    Type
REMARK                         _______ _______ _______ _____ _____    ______ ____
ROOT
ATOM      1 CL   UNL     1      37.107 -24.912 -12.807  0.00  0.00    -0.082 Cl
ATOM      2  C   UNL     1      36.277 -22.443 -16.471  0.00  0.00    +0.051 C 
ATOM      3  C   UNL     1      35.455 -23.605 -14.541  0.00  0.00    +0.087 C 
ATOM      4  C   UNL     1      35.212 -22.839 -15.681  0.00  0.00    +0.022 C 
ATOM      5  C   UNL     1      37.580 -22.791 -16.156  0.00  0.00    +0.016 C 
ATOM      6  C   UNL     1      36.761 -23.965 -14.209  0.00  0.00    +0.064 C 
ATOM      7  C   UNL     1      37.824 -23.557 -15.016  0.00  0.00    +0.013 C 
ENDROOT
BRANCH   2   9
ATOM      8  O   UNL     1      34.698 -23.077 -18.960  0.00  0.00    -0.269 OA
ATOM      9  N   UNL     1      36.031 -21.664 -17.628  0.00  0.00    -0.280 N 
ATOM     10  C   UNL     1      35.290 -22.022 -18.745  0.00  0.00    +0.258 C 
ATOM     11  H   UNL     1      36.431 -20.765 -17.641  0.00  0.00    +0.155 HD
BRANCH  10  14
ATOM     12  S   UNL     1      36.816 -20.433 -20.285  0.00  0.00    -0.103 S 
ATOM     13  O   UNL     1      33.969 -19.465 -21.169  0.00  0.00    -0.478 OA
ATOM     14  C   UNL     1      35.254 -20.950 -19.751  0.00  0.00    +0.109 C 
ATOM     15  C   UNL     1      36.347 -18.942 -21.191  0.00  0.00    +0.110 C 
ATOM     16  C   UNL     1      35.107 -19.254 -22.003  0.00  0.00    +0.217 C 
ATOM     17  C   UNL     1      34.085 -20.442 -20.195  0.00  0.00    +0.126 C 
ATOM     18  C   UNL     1      32.737 -20.848 -19.664  0.00  0.00    +0.073 C 
ENDBRANCH  10  14
ENDBRANCH   2   9
BRANCH   3  20
ATOM     19  O   UNL     1      34.306 -24.009 -12.491  0.00  0.00    -0.245 OA
ATOM     20  C   UNL     1      34.315 -24.008 -13.728  0.00  0.00    +0.342 C 
BRANCH  20  21
ATOM     21  O   UNL     1      33.254 -24.384 -14.504  0.00  0.00    -0.449 OA
BRANCH  21  22
ATOM     22  C   UNL     1      31.958 -23.957 -14.074  0.00  0.00    +0.169 C 
ATOM     23  C   UNL     1      31.407 -22.945 -15.067  0.00  0.00    +0.047 C 
ATOM     24  C   UNL     1      31.051 -25.171 -13.940  0.00  0.00    +0.047 C 
ENDBRANCH  21  22
ENDBRANCH  20  21
ENDBRANCH   3  20
TORSDOF 5
ENDMDL
MODEL 5
REMARK VINA RESULT:      -8.6      3.359      8.080
REMARK  Name = 1385
REMARK  5 active torsions:
REMARK  status: ('A' for Active; 'I' for Inactive)
REMARK    1  A    between atoms: C_2  and  N_9
REMARK    2  A    between atoms: C_3  and  C_20
REMARK    3  A    between atoms: C_10  and  C_14
REMARK    4  A    between atoms: C_20  and  O_21
REMARK    5  A    between atoms: O_21  and  C_22
REMARK                            x       y       z     vdW  Elec       q    Type
REMARK                         _______ _______ _______ _____ _____    ______ ____
ROOT
ATOM      1 CL   UNL     1      31.750 -11.831 -22.298  0.00  0.00    -0.082 Cl
ATOM      2  C   UNL     1      33.496 -15.838 -21.245  0.00  0.00    +0.051 C 
ATOM      3  C   UNL     1      33.121 -14.120 -22.874  0.00  0.00    +0.087 C 
ATOM      4  C   UNL     1      33.657 -15.361 -22.534  0.00  0.00    +0.022 C 
ATOM      5  C   UNL     1      32.814 -15.111 -20.284  0.00  0.00    +0.016 C 
ATOM      6  C   UNL     1      32.429 -13.373 -21.919  0.00  0.00    +0.064 C 
ATOM      7  C   UNL     1      32.277 -13.869 -20.624  0.00  0.00    +0.013 C 
ENDROOT
BRANCH   2   9
ATOM      8  O   UNL     1      34.573 -18.052 -22.985  0.00  0.00    -0.269 OA
ATOM      9  N   UNL     1      34.041 -17.099 -20.899  0.00  0.00    -0.280 N 
ATOM     10  C   UNL     1      34.520 -18.076 -21.758  0.00  0.00    +0.258 C 
ATOM     11  H   UNL     1      34.085 -17.305 -19.937  0.00  0.00    +0.155 HD
BRANCH  10  14
ATOM     12  S   UNL     1      36.733 -19.320 -20.871  0.00  0.00    -0.103 S 
ATOM     13  O   UNL     1      34.543 -21.300 -19.817  0.00  0.00    -0.478 OA
ATOM     14  C   UNL     1      35.011 -19.257 -21.032  0.00  0.00    +0.109 C 
ATOM     15  C   UNL     1      36.918 -21.015 -20.274  0.00  0.00    +0.110 C 
ATOM     16  C   UNL     1      35.845 -21.268 -19.235  0.00  0.00    +0.217 C 
ATOM     17  C   UNL     1      34.162 -20.187 -20.547  0.00  0.00    +0.126 C 
ATOM     18  C   UNL     1      32.673 -20.158 -20.762  0.00  0.00    +0.073 C 
ENDBRANCH  10  14
ENDBRANCH   2   9
BRANCH   3  20
ATOM     19  O   UNL     1      32.678 -14.068 -25.217  0.00  0.00    -0.245 OA
ATOM     20  C   UNL     1      33.304 -13.642 -24.239  0.00  0.00    +0.342 C 
BRANCH  20  21
ATOM     21  O   UNL     1      34.254 -12.661 -24.303  0.00  0.00    -0.449 OA
BRANCH  21  22
ATOM     22  C   UNL     1      33.909 -11.476 -25.026  0.00  0.00    +0.169 C 
ATOM     23  C   UNL     1      34.258 -10.257 -24.186  0.00  0.00    +0.047 C 
ATOM     24  C   UNL     1      34.640 -11.473 -26.360  0.00  0.00    +0.047 C 
ENDBRANCH  21  22
ENDBRANCH  20  21
ENDBRANCH   3  20
TORSDOF 5
ENDMDL
MODEL 6
REMARK VINA RESULT:      -8.6      3.213      7.343
REMARK  Name = 1385
REMARK  5 active torsions:
REMARK  status: ('A' for Active; 'I' for Inactive)
REMARK    1  A    between atoms: C_2  and  N_9
REMARK    2  A    between atoms: C_3  and  C_20
REMARK    3  A    between atoms: C_10  and  C_14
REMARK    4  A    between atoms: C_20  and  O_21
REMARK    5  A    between atoms: O_21  and  C_22
REMARK                            x       y       z     vdW  Elec       q    Type
REMARK                         _______ _______ _______ _____ _____    ______ ____
ROOT
ATOM      1 CL   UNL     1      33.167 -13.737 -26.539  0.00  0.00    -0.082 Cl
ATOM      2  C   UNL     1      34.259 -17.003 -23.649  0.00  0.00    +0.051 C 
ATOM      3  C   UNL     1      33.631 -14.722 -24.036  0.00  0.00    +0.087 C 
ATOM      4  C   UNL     1      33.971 -15.744 -23.151  0.00  0.00    +0.022 C 
ATOM      5  C   UNL     1      34.217 -17.271 -25.007  0.00  0.00    +0.016 C 
ATOM      6  C   UNL     1      33.584 -14.973 -25.408  0.00  0.00    +0.064 C 
ATOM      7  C   UNL     1      33.877 -16.248 -25.893  0.00  0.00    +0.013 C 
ENDROOT
BRANCH   2   9
ATOM      8  O   UNL     1      34.899 -16.914 -20.704  0.00  0.00    -0.269 OA
ATOM      9  N   UNL     1      34.604 -18.042 -22.751  0.00  0.00    -0.280 N 
ATOM     10  C   UNL     1      34.889 -17.928 -21.398  0.00  0.00    +0.258 C 
ATOM     11  H   UNL     1      34.647 -18.949 -23.130  0.00  0.00    +0.155 HD
BRANCH  10  14
ATOM     12  S   UNL     1      36.900 -19.528 -20.609  0.00  0.00    -0.103 S 
ATOM     13  O   UNL     1      34.449 -21.306 -19.798  0.00  0.00    -0.478 OA
ATOM     14  C   UNL     1      35.206 -19.229 -20.789  0.00  0.00    +0.109 C 
ATOM     15  C   UNL     1      36.853 -21.284 -20.185  0.00  0.00    +0.110 C 
ATOM     16  C   UNL     1      35.728 -21.499 -19.195  0.00  0.00    +0.217 C 
ATOM     17  C   UNL     1      34.232 -20.086 -20.415  0.00  0.00    +0.126 C 
ATOM     18  C   UNL     1      32.766 -19.845 -20.650  0.00  0.00    +0.073 C 
ENDBRANCH  10  14
ENDBRANCH   2   9
BRANCH   3  20
ATOM     19  O   UNL     1      33.987 -12.384 -23.728  0.00  0.00    -0.245 OA
ATOM     20  C   UNL     1      33.334 -13.405 -23.485  0.00  0.00    +0.342 C 
BRANCH  20  21
ATOM     21  O   UNL     1      32.239 -13.441 -22.667  0.00  0.00    -0.449 OA
BRANCH  21  22
ATOM     22  C   UNL     1      32.399 -12.898 -21.353  0.00  0.00    +0.169 C 
ATOM     23  C   UNL     1      31.251 -11.944 -21.061  0.00  0.00    +0.047 C 
ATOM     24  C   UNL     1      32.460 -14.036 -20.345  0.00  0.00    +0.047 C 
ENDBRANCH  21  22
ENDBRANCH  20  21
ENDBRANCH   3  20
TORSDOF 5
ENDMDL
MODEL 7
REMARK VINA RESULT:      -8.6      3.785      8.230
REMARK  Name = 1385
REMARK  5 active torsions:
REMARK  status: ('A' for Active; 'I' for Inactive)
REMARK    1  A    between atoms: C_2  and  N_9
REMARK    2  A    between atoms: C_3  and  C_20
REMARK    3  A    between atoms: C_10  and  C_14
REMARK    4  A    between atoms: C_20  and  O_21
REMARK    5  A    between atoms: O_21  and  C_22
REMARK                            x       y       z     vdW  Elec       q    Type
REMARK                         _______ _______ _______ _____ _____    ______ ____
ROOT
ATOM      1 CL   UNL     1      31.225  -9.673 -19.664  0.00  0.00    -0.082 Cl
ATOM      2  C   UNL     1      32.536 -13.294 -21.984  0.00  0.00    +0.051 C 
ATOM      3  C   UNL     1      32.076 -10.942 -21.926  0.00  0.00    +0.087 C 
ATOM      4  C   UNL     1      32.481 -12.073 -22.633  0.00  0.00    +0.022 C 
ATOM      5  C   UNL     1      32.198 -13.419 -20.647  0.00  0.00    +0.016 C 
ATOM      6  C   UNL     1      31.731 -11.048 -20.578  0.00  0.00    +0.064 C 
ATOM      7  C   UNL     1      31.793 -12.287 -19.939  0.00  0.00    +0.013 C 
ENDROOT
BRANCH   2   9
ATOM      8  O   UNL     1      35.210 -14.684 -22.093  0.00  0.00    -0.269 OA
ATOM      9  N   UNL     1      32.948 -14.443 -22.702  0.00  0.00    -0.280 N 
ATOM     10  C   UNL     1      34.204 -15.032 -22.706  0.00  0.00    +0.258 C 
ATOM     11  H   UNL     1      32.263 -14.874 -23.263  0.00  0.00    +0.155 HD
BRANCH  10  14
ATOM     12  S   UNL     1      34.781 -17.657 -22.773  0.00  0.00    -0.103 S 
ATOM     13  O   UNL     1      33.894 -17.224 -25.749  0.00  0.00    -0.478 OA
ATOM     14  C   UNL     1      34.256 -16.217 -23.576  0.00  0.00    +0.109 C 
ATOM     15  C   UNL     1      35.036 -18.725 -24.208  0.00  0.00    +0.110 C 
ATOM     16  C   UNL     1      33.874 -18.523 -25.158  0.00  0.00    +0.217 C 
ATOM     17  C   UNL     1      33.913 -16.147 -24.879  0.00  0.00    +0.126 C 
ATOM     18  C   UNL     1      33.533 -14.871 -25.580  0.00  0.00    +0.073 C 
ENDBRANCH  10  14
ENDBRANCH   2   9
BRANCH   3  20
ATOM     19  O   UNL     1      31.035  -9.249 -23.244  0.00  0.00    -0.245 OA
ATOM     20  C   UNL     1      32.026  -9.669 -22.634  0.00  0.00    +0.342 C 
BRANCH  20  21
ATOM     21  O   UNL     1      33.211  -8.995 -22.537  0.00  0.00    -0.449 OA
BRANCH  21  22
ATOM     22  C   UNL     1      33.841  -8.619 -23.766  0.00  0.00    +0.169 C 
ATOM     23  C   UNL     1      34.685  -7.375 -23.536  0.00  0.00    +0.047 C 
ATOM     24  C   UNL     1      34.676  -9.784 -24.277  0.00  0.00    +0.047 C 
ENDBRANCH  21  22
ENDBRANCH  20  21
ENDBRANCH   3  20
TORSDOF 5
ENDMDL
MODEL 8
REMARK VINA RESULT:      -8.5      2.207      3.147
REMARK  Name = 1385
REMARK  5 active torsions:
REMARK  status: ('A' for Active; 'I' for Inactive)
REMARK    1  A    between atoms: C_2  and  N_9
REMARK    2  A    between atoms: C_3  and  C_20
REMARK    3  A    between atoms: C_10  and  C_14
REMARK    4  A    between atoms: C_20  and  O_21
REMARK    5  A    between atoms: O_21  and  C_22
REMARK                            x       y       z     vdW  Elec       q    Type
REMARK                         _______ _______ _______ _____ _____    ______ ____
ROOT
ATOM      1 CL   UNL     1      34.224 -17.190 -24.496  0.00  0.00    -0.082 Cl
ATOM      2  C   UNL     1      33.373 -12.938 -23.305  0.00  0.00    +0.051 C 
ATOM      3  C   UNL     1      34.076 -15.148 -22.692  0.00  0.00    +0.087 C 
ATOM      4  C   UNL     1      33.808 -13.826 -22.336  0.00  0.00    +0.022 C 
ATOM      5  C   UNL     1      33.197 -13.334 -24.621  0.00  0.00    +0.016 C 
ATOM      6  C   UNL     1      33.903 -15.563 -24.013  0.00  0.00    +0.064 C 
ATOM      7  C   UNL     1      33.465 -14.655 -24.977  0.00  0.00    +0.013 C 
ENDROOT
BRANCH   2   9
ATOM      8  O   UNL     1      30.966 -11.720 -21.960  0.00  0.00    -0.269 OA
ATOM      9  N   UNL     1      33.102 -11.596 -22.945  0.00  0.00    -0.280 N 
ATOM     10  C   UNL     1      31.964 -11.103 -22.324  0.00  0.00    +0.258 C 
ATOM     11  H   UNL     1      33.802 -10.938 -23.159  0.00  0.00    +0.155 HD
BRANCH  10  14
ATOM     12  S   UNL     1      32.153  -8.725 -23.564  0.00  0.00    -0.103 S 
ATOM     13  O   UNL     1      32.041  -7.768 -20.581  0.00  0.00    -0.478 OA
ATOM     14  C   UNL     1      32.040  -9.650 -22.107  0.00  0.00    +0.109 C 
ATOM     15  C   UNL     1      32.570  -7.111 -22.866  0.00  0.00    +0.110 C 
ATOM     16  C   UNL     1      31.697  -6.886 -21.648  0.00  0.00    +0.217 C 
ATOM     17  C   UNL     1      32.018  -9.123 -20.864  0.00  0.00    +0.126 C 
ATOM     18  C   UNL     1      31.997  -9.945 -19.604  0.00  0.00    +0.073 C 
ENDBRANCH  10  14
ENDBRANCH   2   9
BRANCH   3  20
ATOM     19  O   UNL     1      34.961 -15.702 -20.548  0.00  0.00    -0.245 OA
ATOM     20  C   UNL     1      34.532 -16.061 -21.651  0.00  0.00    +0.342 C 
BRANCH  20  21
ATOM     21  O   UNL     1      34.422 -17.365 -22.046  0.00  0.00    -0.449 OA
BRANCH  21  22
ATOM     22  C   UNL     1      34.818 -18.361 -21.098  0.00  0.00    +0.169 C 
ATOM     23  C   UNL     1      33.833 -19.520 -21.149  0.00  0.00    +0.047 C 
ATOM     24  C   UNL     1      36.238 -18.810 -21.407  0.00  0.00    +0.047 C 
ENDBRANCH  21  22
ENDBRANCH  20  21
ENDBRANCH   3  20
TORSDOF 5
ENDMDL
MODEL 9
REMARK VINA RESULT:      -8.5      4.050      8.825
REMARK  Name = 1385
REMARK  5 active torsions:
REMARK  status: ('A' for Active; 'I' for Inactive)
REMARK    1  A    between atoms: C_2  and  N_9
REMARK    2  A    between atoms: C_3  and  C_20
REMARK    3  A    between atoms: C_10  and  C_14
REMARK    4  A    between atoms: C_20  and  O_21
REMARK    5  A    between atoms: O_21  and  C_22
REMARK                            x       y       z     vdW  Elec       q    Type
REMARK                         _______ _______ _______ _____ _____    ______ ____
ROOT
ATOM      1 CL   UNL     1      34.951 -16.524 -24.693  0.00  0.00    -0.082 Cl
ATOM      2  C   UNL     1      34.684 -19.349 -21.206  0.00  0.00    +0.051 C 
ATOM      3  C   UNL     1      34.571 -17.109 -22.055  0.00  0.00    +0.087 C 
ATOM      4  C   UNL     1      34.491 -17.996 -20.982  0.00  0.00    +0.022 C 
ATOM      5  C   UNL     1      34.955 -19.841 -22.471  0.00  0.00    +0.016 C 
ATOM      6  C   UNL     1      34.844 -17.588 -23.337  0.00  0.00    +0.064 C 
ATOM      7  C   UNL     1      35.035 -18.954 -23.545  0.00  0.00    +0.013 C 
ENDROOT
BRANCH   2   9
ATOM      8  O   UNL     1      36.666 -21.381 -20.192  0.00  0.00    -0.269 OA
ATOM      9  N   UNL     1      34.602 -20.250 -20.116  0.00  0.00    -0.280 N 
ATOM     10  C   UNL     1      35.559 -21.165 -19.704  0.00  0.00    +0.258 C 
ATOM     11  H   UNL     1      33.770 -20.223 -19.591  0.00  0.00    +0.155 HD
BRANCH  10  14
ATOM     12  S   UNL     1      33.575 -22.688 -18.719  0.00  0.00    -0.103 S 
ATOM     13  O   UNL     1      35.560 -22.754 -16.293  0.00  0.00    -0.478 OA
ATOM     14  C   UNL     1      35.120 -21.932 -18.529  0.00  0.00    +0.109 C 
ATOM     15  C   UNL     1      33.274 -23.191 -17.009  0.00  0.00    +0.110 C 
ATOM     16  C   UNL     1      34.562 -23.761 -16.452  0.00  0.00    +0.217 C 
ATOM     17  C   UNL     1      35.884 -22.017 -17.420  0.00  0.00    +0.126 C 
ATOM     18  C   UNL     1      37.189 -21.291 -17.241  0.00  0.00    +0.073 C 
ENDBRANCH  10  14
ENDBRANCH   2   9
BRANCH   3  20
ATOM     19  O   UNL     1      35.007 -15.035 -20.963  0.00  0.00    -0.245 OA
ATOM     20  C   UNL     1      34.364 -15.690 -21.791  0.00  0.00    +0.342 C 
BRANCH  20  21
ATOM     21  O   UNL     1      33.372 -15.174 -22.577  0.00  0.00    -0.449 OA
BRANCH  21  22
ATOM     22  C   UNL     1      33.365 -13.754 -22.756  0.00  0.00    +0.169 C 
ATOM     23  C   UNL     1      33.248 -13.436 -24.239  0.00  0.00    +0.047 C 
ATOM     24  C   UNL     1      32.217 -13.156 -21.956  0.00  0.00    +0.047 C 
ENDBRANCH  21  22
ENDBRANCH  20  21
ENDBRANCH   3  20
TORSDOF 5
ENDMDL
