MODEL 1
REMARK VINA RESULT:     -10.4      0.000      0.000
REMARK  Name = 3747
REMARK  3 active torsions:
REMARK  status: ('A' for Active; 'I' for Inactive)
REMARK    1  A    between atoms: C_5  and  C_12
REMARK    2  A    between atoms: C_6  and  O_18
REMARK    3  A    between atoms: O_18  and  C_19
REMARK                            x       y       z     vdW  Elec       q    Type
REMARK                         _______ _______ _______ _____ _____    ______ ____
ROOT
ATOM      1  O   UNL     1      36.757 -20.073 -20.034  0.00  0.00    -0.450 OA
ATOM      2  O   UNL     1      32.952 -19.866 -21.494  0.00  0.00    -0.286 OA
ATOM      3  C   UNL     1      34.447 -20.812 -19.940  0.00  0.00    +0.074 C 
ATOM      4  C   UNL     1      35.766 -20.849 -19.489  0.00  0.00    +0.151 C 
ATOM      5  C   UNL     1      35.194 -19.068 -21.597  0.00  0.00    +0.077 C 
ATOM      6  C   UNL     1      35.158 -22.515 -17.852  0.00  0.00    +0.141 C 
ATOM      7  C   UNL     1      34.092 -19.907 -21.049  0.00  0.00    +0.202 C 
ATOM      8  C   UNL     1      36.125 -21.701 -18.444  0.00  0.00    +0.074 C 
ATOM      9  C   UNL     1      33.479 -21.627 -19.348  0.00  0.00    +0.009 C 
ATOM     10  C   UNL     1      33.839 -22.478 -18.302  0.00  0.00    +0.037 C 
ATOM     11  C   UNL     1      36.410 -19.219 -21.052  0.00  0.00    +0.183 C 
ENDROOT
BRANCH   5  12
ATOM     12  C   UNL     1      34.967 -18.095 -22.678  0.00  0.00    +0.006 C 
ATOM     13  C   UNL     1      34.862 -18.530 -24.001  0.00  0.00    +0.000 C 
ATOM     14  C   UNL     1      34.857 -16.734 -22.384  0.00  0.00    +0.000 C 
ATOM     15  C   UNL     1      34.648 -17.607 -25.026  0.00  0.00    +0.000 C 
ATOM     16  C   UNL     1      34.643 -15.812 -23.410  0.00  0.00    +0.000 C 
ATOM     17  C   UNL     1      34.538 -16.249 -24.730  0.00  0.00    +0.000 C 
ENDBRANCH   5  12
BRANCH   6  18
ATOM     18  O   UNL     1      35.505 -23.347 -16.831  0.00  0.00    -0.479 OA
BRANCH  18  19
ATOM     19  C   UNL     1      36.052 -22.744 -15.660  0.00  0.00    +0.166 C 
ATOM     20  C   UNL     1      35.252 -23.191 -14.446  0.00  0.00    +0.047 C 
ATOM     21  C   UNL     1      37.521 -23.125 -15.541  0.00  0.00    +0.047 C 
ENDBRANCH  18  19
ENDBRANCH   6  18
TORSDOF 3
ENDMDL
MODEL 2
REMARK VINA RESULT:     -10.4      0.049      1.056
REMARK  Name = 3747
REMARK  3 active torsions:
REMARK  status: ('A' for Active; 'I' for Inactive)
REMARK    1  A    between atoms: C_5  and  C_12
REMARK    2  A    between atoms: C_6  and  O_18
REMARK    3  A    between atoms: O_18  and  C_19
REMARK                            x       y       z     vdW  Elec       q    Type
REMARK                         _______ _______ _______ _____ _____    ______ ____
ROOT
ATOM      1  O   UNL     1      36.746 -20.050 -20.058  0.00  0.00    -0.450 OA
ATOM      2  O   UNL     1      32.932 -19.883 -21.500  0.00  0.00    -0.286 OA
ATOM      3  C   UNL     1      34.443 -20.810 -19.950  0.00  0.00    +0.074 C 
ATOM      4  C   UNL     1      35.765 -20.833 -19.506  0.00  0.00    +0.151 C 
ATOM      5  C   UNL     1      35.166 -19.064 -21.617  0.00  0.00    +0.077 C 
ATOM      6  C   UNL     1      35.181 -22.499 -17.860  0.00  0.00    +0.141 C 
ATOM      7  C   UNL     1      34.075 -19.912 -21.061  0.00  0.00    +0.202 C 
ATOM      8  C   UNL     1      36.137 -21.679 -18.460  0.00  0.00    +0.074 C 
ATOM      9  C   UNL     1      33.486 -21.632 -19.351  0.00  0.00    +0.009 C 
ATOM     10  C   UNL     1      33.859 -22.476 -18.304  0.00  0.00    +0.037 C 
ATOM     11  C   UNL     1      36.386 -19.203 -21.078  0.00  0.00    +0.183 C 
ENDROOT
BRANCH   5  12
ATOM     12  C   UNL     1      34.925 -18.097 -22.700  0.00  0.00    +0.006 C 
ATOM     13  C   UNL     1      34.798 -16.737 -22.409  0.00  0.00    +0.000 C 
ATOM     14  C   UNL     1      34.823 -18.536 -24.022  0.00  0.00    +0.000 C 
ATOM     15  C   UNL     1      34.570 -15.820 -23.435  0.00  0.00    +0.000 C 
ATOM     16  C   UNL     1      34.595 -17.618 -25.048  0.00  0.00    +0.000 C 
ATOM     17  C   UNL     1      34.468 -16.260 -24.754  0.00  0.00    +0.000 C 
ENDBRANCH   5  12
BRANCH   6  18
ATOM     18  O   UNL     1      35.540 -23.324 -16.838  0.00  0.00    -0.479 OA
BRANCH  18  19
ATOM     19  C   UNL     1      36.103 -22.714 -15.678  0.00  0.00    +0.166 C 
ATOM     20  C   UNL     1      35.329 -23.166 -14.449  0.00  0.00    +0.047 C 
ATOM     21  C   UNL     1      37.576 -23.080 -15.585  0.00  0.00    +0.047 C 
ENDBRANCH  18  19
ENDBRANCH   6  18
TORSDOF 3
ENDMDL
MODEL 3
REMARK VINA RESULT:     -10.4      1.122      2.103
REMARK  Name = 3747
REMARK  3 active torsions:
REMARK  status: ('A' for Active; 'I' for Inactive)
REMARK    1  A    between atoms: C_5  and  C_12
REMARK    2  A    between atoms: C_6  and  O_18
REMARK    3  A    between atoms: O_18  and  C_19
REMARK                            x       y       z     vdW  Elec       q    Type
REMARK                         _______ _______ _______ _____ _____    ______ ____
ROOT
ATOM      1  O   UNL     1      32.774 -20.868 -20.315  0.00  0.00    -0.450 OA
ATOM      2  O   UNL     1      36.581 -19.491 -20.817  0.00  0.00    -0.286 OA
ATOM      3  C   UNL     1      35.111 -20.923 -19.664  0.00  0.00    +0.074 C 
ATOM      4  C   UNL     1      33.790 -21.349 -19.529  0.00  0.00    +0.151 C 
ATOM      5  C   UNL     1      34.310 -19.433 -21.531  0.00  0.00    +0.077 C 
ATOM      6  C   UNL     1      34.449 -22.824 -17.737  0.00  0.00    +0.141 C 
ATOM      7  C   UNL     1      35.440 -19.913 -20.687  0.00  0.00    +0.202 C 
ATOM      8  C   UNL     1      33.456 -22.300 -18.565  0.00  0.00    +0.074 C 
ATOM      9  C   UNL     1      36.106 -21.446 -18.835  0.00  0.00    +0.009 C 
ATOM     10  C   UNL     1      35.770 -22.398 -17.871  0.00  0.00    +0.037 C 
ATOM     11  C   UNL     1      33.095 -19.943 -21.278  0.00  0.00    +0.183 C 
ENDROOT
BRANCH   5  12
ATOM     12  C   UNL     1      34.507 -18.456 -22.614  0.00  0.00    +0.006 C 
ATOM     13  C   UNL     1      34.540 -18.882 -23.943  0.00  0.00    +0.000 C 
ATOM     14  C   UNL     1      34.661 -17.101 -22.316  0.00  0.00    +0.000 C 
ATOM     15  C   UNL     1      34.727 -17.956 -24.970  0.00  0.00    +0.000 C 
ATOM     16  C   UNL     1      34.848 -16.175 -23.343  0.00  0.00    +0.000 C 
ATOM     17  C   UNL     1      34.881 -16.603 -24.670  0.00  0.00    +0.000 C 
ENDBRANCH   5  12
BRANCH   6  18
ATOM     18  O   UNL     1      34.127 -23.754 -16.795  0.00  0.00    -0.479 OA
BRANCH  18  19
ATOM     19  C   UNL     1      34.072 -23.313 -15.440  0.00  0.00    +0.166 C 
ATOM     20  C   UNL     1      32.619 -23.229 -14.998  0.00  0.00    +0.047 C 
ATOM     21  C   UNL     1      34.873 -24.270 -14.570  0.00  0.00    +0.047 C 
ENDBRANCH  18  19
ENDBRANCH   6  18
TORSDOF 3
ENDMDL
MODEL 4
REMARK VINA RESULT:     -10.2      3.207      8.819
REMARK  Name = 3747
REMARK  3 active torsions:
REMARK  status: ('A' for Active; 'I' for Inactive)
REMARK    1  A    between atoms: C_5  and  C_12
REMARK    2  A    between atoms: C_6  and  O_18
REMARK    3  A    between atoms: O_18  and  C_19
REMARK                            x       y       z     vdW  Elec       q    Type
REMARK                         _______ _______ _______ _____ _____    ______ ____
ROOT
ATOM      1  O   UNL     1      34.484 -15.194 -21.414  0.00  0.00    -0.450 OA
ATOM      2  O   UNL     1      34.432 -18.466 -23.850  0.00  0.00    -0.286 OA
ATOM      3  C   UNL     1      34.202 -16.133 -23.634  0.00  0.00    +0.074 C 
ATOM      4  C   UNL     1      34.222 -15.053 -22.753  0.00  0.00    +0.151 C 
ATOM      5  C   UNL     1      34.769 -17.593 -21.661  0.00  0.00    +0.077 C 
ATOM      6  C   UNL     1      33.692 -13.559 -24.573  0.00  0.00    +0.141 C 
ATOM      7  C   UNL     1      34.469 -17.488 -23.116  0.00  0.00    +0.202 C 
ATOM      8  C   UNL     1      33.967 -13.763 -23.221  0.00  0.00    +0.074 C 
ATOM      9  C   UNL     1      33.926 -15.931 -24.988  0.00  0.00    +0.009 C 
ATOM     10  C   UNL     1      33.672 -14.640 -25.455  0.00  0.00    +0.037 C 
ATOM     11  C   UNL     1      34.753 -16.457 -20.947  0.00  0.00    +0.183 C 
ENDROOT
BRANCH   5  12
ATOM     12  C   UNL     1      35.093 -18.880 -21.023  0.00  0.00    +0.006 C 
ATOM     13  C   UNL     1      34.069 -19.756 -20.656  0.00  0.00    +0.000 C 
ATOM     14  C   UNL     1      36.423 -19.228 -20.784  0.00  0.00    +0.000 C 
ATOM     15  C   UNL     1      34.375 -20.976 -20.051  0.00  0.00    +0.000 C 
ATOM     16  C   UNL     1      36.729 -20.449 -20.179  0.00  0.00    +0.000 C 
ATOM     17  C   UNL     1      35.705 -21.322 -19.813  0.00  0.00    +0.000 C 
ENDBRANCH   5  12
BRANCH   6  18
ATOM     18  O   UNL     1      33.444 -12.302 -25.033  0.00  0.00    -0.479 OA
BRANCH  18  19
ATOM     19  C   UNL     1      34.176 -11.235 -24.433  0.00  0.00    +0.166 C 
ATOM     20  C   UNL     1      35.081 -10.598 -25.476  0.00  0.00    +0.047 C 
ATOM     21  C   UNL     1      33.199 -10.229 -23.842  0.00  0.00    +0.047 C 
ENDBRANCH  18  19
ENDBRANCH   6  18
TORSDOF 3
ENDMDL
MODEL 5
REMARK VINA RESULT:     -10.1      3.099      8.755
REMARK  Name = 3747
REMARK  3 active torsions:
REMARK  status: ('A' for Active; 'I' for Inactive)
REMARK    1  A    between atoms: C_5  and  C_12
REMARK    2  A    between atoms: C_6  and  O_18
REMARK    3  A    between atoms: O_18  and  C_19
REMARK                            x       y       z     vdW  Elec       q    Type
REMARK                         _______ _______ _______ _____ _____    ______ ____
ROOT
ATOM      1  O   UNL     1      34.324 -17.302 -24.020  0.00  0.00    -0.450 OA
ATOM      2  O   UNL     1      35.011 -16.597 -20.061  0.00  0.00    -0.286 OA
ATOM      3  C   UNL     1      34.466 -15.727 -22.179  0.00  0.00    +0.074 C 
ATOM      4  C   UNL     1      34.252 -16.025 -23.525  0.00  0.00    +0.151 C 
ATOM      5  C   UNL     1      34.834 -18.193 -21.820  0.00  0.00    +0.077 C 
ATOM      6  C   UNL     1      33.868 -13.687 -23.981  0.00  0.00    +0.141 C 
ATOM      7  C   UNL     1      34.787 -16.820 -21.243  0.00  0.00    +0.202 C 
ATOM      8  C   UNL     1      33.953 -15.005 -24.429  0.00  0.00    +0.074 C 
ATOM      9  C   UNL     1      34.383 -14.407 -21.730  0.00  0.00    +0.009 C 
ATOM     10  C   UNL     1      34.082 -13.388 -22.636  0.00  0.00    +0.037 C 
ATOM     11  C   UNL     1      34.602 -18.314 -23.135  0.00  0.00    +0.183 C 
ENDROOT
BRANCH   5  12
ATOM     12  C   UNL     1      35.104 -19.378 -20.989  0.00  0.00    +0.006 C 
ATOM     13  C   UNL     1      36.418 -19.724 -20.668  0.00  0.00    +0.000 C 
ATOM     14  C   UNL     1      34.047 -20.159 -20.519  0.00  0.00    +0.000 C 
ATOM     15  C   UNL     1      36.674 -20.847 -19.881  0.00  0.00    +0.000 C 
ATOM     16  C   UNL     1      34.302 -21.283 -19.731  0.00  0.00    +0.000 C 
ATOM     17  C   UNL     1      35.616 -21.626 -19.412  0.00  0.00    +0.000 C 
ENDBRANCH   5  12
BRANCH   6  18
ATOM     18  O   UNL     1      33.574 -12.689 -24.860  0.00  0.00    -0.479 OA
BRANCH  18  19
ATOM     19  C   UNL     1      34.177 -11.418 -24.625  0.00  0.00    +0.166 C 
ATOM     20  C   UNL     1      34.875 -10.951 -25.893  0.00  0.00    +0.047 C 
ATOM     21  C   UNL     1      33.108 -10.434 -24.172  0.00  0.00    +0.047 C 
ENDBRANCH  18  19
ENDBRANCH   6  18
TORSDOF 3
ENDMDL
MODEL 6
REMARK VINA RESULT:     -10.0      1.144      2.349
REMARK  Name = 3747
REMARK  3 active torsions:
REMARK  status: ('A' for Active; 'I' for Inactive)
REMARK    1  A    between atoms: C_5  and  C_12
REMARK    2  A    between atoms: C_6  and  O_18
REMARK    3  A    between atoms: O_18  and  C_19
REMARK                            x       y       z     vdW  Elec       q    Type
REMARK                         _______ _______ _______ _____ _____    ______ ____
ROOT
ATOM      1  O   UNL     1      32.809 -21.180 -20.019  0.00  0.00    -0.450 OA
ATOM      2  O   UNL     1      36.587 -19.696 -20.430  0.00  0.00    -0.286 OA
ATOM      3  C   UNL     1      35.126 -21.154 -19.298  0.00  0.00    +0.074 C 
ATOM      4  C   UNL     1      33.815 -21.617 -19.196  0.00  0.00    +0.151 C 
ATOM      5  C   UNL     1      34.338 -19.719 -21.213  0.00  0.00    +0.077 C 
ATOM      6  C   UNL     1      34.463 -23.043 -17.359  0.00  0.00    +0.141 C 
ATOM      7  C   UNL     1      35.455 -20.151 -20.327  0.00  0.00    +0.202 C 
ATOM      8  C   UNL     1      33.480 -22.563 -18.226  0.00  0.00    +0.074 C 
ATOM      9  C   UNL     1      36.110 -21.633 -18.430  0.00  0.00    +0.009 C 
ATOM     10  C   UNL     1      35.774 -22.580 -17.461  0.00  0.00    +0.037 C 
ATOM     11  C   UNL     1      33.132 -20.262 -20.988  0.00  0.00    +0.183 C 
ENDROOT
BRANCH   5  12
ATOM     12  C   UNL     1      34.539 -18.754 -22.306  0.00  0.00    +0.006 C 
ATOM     13  C   UNL     1      34.649 -17.391 -22.024  0.00  0.00    +0.000 C 
ATOM     14  C   UNL     1      34.619 -19.198 -23.627  0.00  0.00    +0.000 C 
ATOM     15  C   UNL     1      34.839 -16.475 -23.060  0.00  0.00    +0.000 C 
ATOM     16  C   UNL     1      34.809 -18.282 -24.663  0.00  0.00    +0.000 C 
ATOM     17  C   UNL     1      34.919 -16.921 -24.379  0.00  0.00    +0.000 C 
ENDBRANCH   5  12
BRANCH   6  18
ATOM     18  O   UNL     1      34.140 -23.967 -16.412  0.00  0.00    -0.479 OA
BRANCH  18  19
ATOM     19  C   UNL     1      34.882 -23.936 -15.195  0.00  0.00    +0.166 C 
ATOM     20  C   UNL     1      33.918 -23.850 -14.022  0.00  0.00    +0.047 C 
ATOM     21  C   UNL     1      35.763 -25.173 -15.114  0.00  0.00    +0.047 C 
ENDBRANCH  18  19
ENDBRANCH   6  18
TORSDOF 3
ENDMDL
MODEL 7
REMARK VINA RESULT:      -9.6      5.590     10.253
REMARK  Name = 3747
REMARK  3 active torsions:
REMARK  status: ('A' for Active; 'I' for Inactive)
REMARK    1  A    between atoms: C_5  and  C_12
REMARK    2  A    between atoms: C_6  and  O_18
REMARK    3  A    between atoms: O_18  and  C_19
REMARK                            x       y       z     vdW  Elec       q    Type
REMARK                         _______ _______ _______ _____ _____    ______ ____
ROOT
ATOM      1  O   UNL     1      33.867 -12.244 -24.230  0.00  0.00    -0.450 OA
ATOM      2  O   UNL     1      32.277 -14.977 -21.652  0.00  0.00    -0.286 OA
ATOM      3  C   UNL     1      32.393 -12.737 -22.365  0.00  0.00    +0.074 C 
ATOM      4  C   UNL     1      32.977 -11.846 -23.266  0.00  0.00    +0.151 C 
ATOM      5  C   UNL     1      33.698 -14.559 -23.517  0.00  0.00    +0.077 C 
ATOM      6  C   UNL     1      31.765 -10.024 -22.247  0.00  0.00    +0.141 C 
ATOM      7  C   UNL     1      32.744 -14.167 -22.442  0.00  0.00    +0.202 C 
ATOM      8  C   UNL     1      32.663 -10.487 -23.208  0.00  0.00    +0.074 C 
ATOM      9  C   UNL     1      31.494 -12.274 -21.402  0.00  0.00    +0.009 C 
ATOM     10  C   UNL     1      31.182 -10.915 -21.346  0.00  0.00    +0.037 C 
ATOM     11  C   UNL     1      34.169 -13.581 -24.306  0.00  0.00    +0.183 C 
ENDROOT
BRANCH   5  12
ATOM     12  C   UNL     1      34.100 -15.959 -23.729  0.00  0.00    +0.006 C 
ATOM     13  C   UNL     1      34.592 -16.715 -22.663  0.00  0.00    +0.000 C 
ATOM     14  C   UNL     1      33.991 -16.535 -24.996  0.00  0.00    +0.000 C 
ATOM     15  C   UNL     1      34.973 -18.042 -22.863  0.00  0.00    +0.000 C 
ATOM     16  C   UNL     1      34.373 -17.863 -25.196  0.00  0.00    +0.000 C 
ATOM     17  C   UNL     1      34.864 -18.616 -24.129  0.00  0.00    +0.000 C 
ENDBRANCH   5  12
BRANCH   6  18
ATOM     18  O   UNL     1      31.456  -8.699 -22.188  0.00  0.00    -0.479 OA
BRANCH  18  19
ATOM     19  C   UNL     1      32.521  -7.797 -21.896  0.00  0.00    +0.166 C 
ATOM     20  C   UNL     1      32.254  -6.466 -22.582  0.00  0.00    +0.047 C 
ATOM     21  C   UNL     1      32.645  -7.641 -20.388  0.00  0.00    +0.047 C 
ENDBRANCH  18  19
ENDBRANCH   6  18
TORSDOF 3
ENDMDL
MODEL 8
REMARK VINA RESULT:      -9.4      7.579     12.419
REMARK  Name = 3747
REMARK  3 active torsions:
REMARK  status: ('A' for Active; 'I' for Inactive)
REMARK    1  A    between atoms: C_5  and  C_12
REMARK    2  A    between atoms: C_6  and  O_18
REMARK    3  A    between atoms: O_18  and  C_19
REMARK                            x       y       z     vdW  Elec       q    Type
REMARK                         _______ _______ _______ _____ _____    ______ ____
ROOT
ATOM      1  O   UNL     1      31.895 -10.831 -22.264  0.00  0.00    -0.450 OA
ATOM      2  O   UNL     1      34.853 -11.201 -25.050  0.00  0.00    -0.286 OA
ATOM      3  C   UNL     1      33.576  -9.786 -23.668  0.00  0.00    +0.074 C 
ATOM      4  C   UNL     1      32.551  -9.718 -22.725  0.00  0.00    +0.151 C 
ATOM      5  C   UNL     1      33.254 -12.284 -23.657  0.00  0.00    +0.077 C 
ATOM      6  C   UNL     1      32.783  -7.317 -22.646  0.00  0.00    +0.141 C 
ATOM      7  C   UNL     1      33.978 -11.101 -24.200  0.00  0.00    +0.202 C 
ATOM      8  C   UNL     1      32.152  -8.483 -22.212  0.00  0.00    +0.074 C 
ATOM      9  C   UNL     1      34.208  -8.618 -24.104  0.00  0.00    +0.009 C 
ATOM     10  C   UNL     1      33.808  -7.384 -23.589  0.00  0.00    +0.037 C 
ATOM     11  C   UNL     1      32.292 -12.052 -22.750  0.00  0.00    +0.183 C 
ENDROOT
BRANCH   5  12
ATOM     12  C   UNL     1      33.583 -13.657 -24.072  0.00  0.00    +0.006 C 
ATOM     13  C   UNL     1      34.369 -14.468 -23.251  0.00  0.00    +0.000 C 
ATOM     14  C   UNL     1      33.111 -14.153 -25.289  0.00  0.00    +0.000 C 
ATOM     15  C   UNL     1      34.681 -15.770 -23.645  0.00  0.00    +0.000 C 
ATOM     16  C   UNL     1      33.423 -15.455 -25.683  0.00  0.00    +0.000 C 
ATOM     17  C   UNL     1      34.209 -16.263 -24.860  0.00  0.00    +0.000 C 
ENDBRANCH   5  12
BRANCH   6  18
ATOM     18  O   UNL     1      32.396  -6.111 -22.147  0.00  0.00    -0.479 OA
BRANCH  18  19
ATOM     19  C   UNL     1      31.190  -5.550 -22.663  0.00  0.00    +0.166 C 
ATOM     20  C   UNL     1      30.307  -5.110 -21.506  0.00  0.00    +0.047 C 
ATOM     21  C   UNL     1      31.533  -4.391 -23.587  0.00  0.00    +0.047 C 
ENDBRANCH  18  19
ENDBRANCH   6  18
TORSDOF 3
ENDMDL
MODEL 9
REMARK VINA RESULT:      -9.3      4.487      9.465
REMARK  Name = 3747
REMARK  3 active torsions:
REMARK  status: ('A' for Active; 'I' for Inactive)
REMARK    1  A    between atoms: C_5  and  C_12
REMARK    2  A    between atoms: C_6  and  O_18
REMARK    3  A    between atoms: O_18  and  C_19
REMARK                            x       y       z     vdW  Elec       q    Type
REMARK                         _______ _______ _______ _____ _____    ______ ____
ROOT
ATOM      1  O   UNL     1      32.206 -14.619 -20.743  0.00  0.00    -0.450 OA
ATOM      2  O   UNL     1      35.127 -15.751 -23.357  0.00  0.00    -0.286 OA
ATOM      3  C   UNL     1      33.625 -14.087 -22.639  0.00  0.00    +0.074 C 
ATOM      4  C   UNL     1      32.624 -13.758 -21.725  0.00  0.00    +0.151 C 
ATOM      5  C   UNL     1      33.796 -16.308 -21.462  0.00  0.00    +0.077 C 
ATOM      6  C   UNL     1      32.384 -11.594 -22.768  0.00  0.00    +0.141 C 
ATOM      7  C   UNL     1      34.265 -15.413 -22.557  0.00  0.00    +0.202 C 
ATOM      8  C   UNL     1      32.001 -12.511 -21.788  0.00  0.00    +0.074 C 
ATOM      9  C   UNL     1      34.009 -13.170 -23.621  0.00  0.00    +0.009 C 
ATOM     10  C   UNL     1      33.385 -11.923 -23.682  0.00  0.00    +0.037 C 
ATOM     11  C   UNL     1      32.825 -15.843 -20.663  0.00  0.00    +0.183 C 
ENDROOT
BRANCH   5  12
ATOM     12  C   UNL     1      34.379 -17.642 -21.243  0.00  0.00    +0.006 C 
ATOM     13  C   UNL     1      35.766 -17.804 -21.217  0.00  0.00    +0.000 C 
ATOM     14  C   UNL     1      33.548 -18.748 -21.061  0.00  0.00    +0.000 C 
ATOM     15  C   UNL     1      36.319 -19.068 -21.010  0.00  0.00    +0.000 C 
ATOM     16  C   UNL     1      34.101 -20.013 -20.854  0.00  0.00    +0.000 C 
ATOM     17  C   UNL     1      35.487 -20.172 -20.828  0.00  0.00    +0.000 C 
ENDBRANCH   5  12
BRANCH   6  18
ATOM     18  O   UNL     1      31.780 -10.376 -22.831  0.00  0.00    -0.479 OA
BRANCH  18  19
ATOM     19  C   UNL     1      32.574  -9.239 -22.499  0.00  0.00    +0.166 C 
ATOM     20  C   UNL     1      32.284  -8.119 -23.487  0.00  0.00    +0.047 C 
ATOM     21  C   UNL     1      32.274  -8.821 -21.067  0.00  0.00    +0.047 C 
ENDBRANCH  18  19
ENDBRANCH   6  18
TORSDOF 3
ENDMDL
