MODEL 1
REMARK VINA RESULT:      -8.0      0.000      0.000
REMARK  Name = 6323244
REMARK  11 active torsions:
REMARK  status: ('A' for Active; 'I' for Inactive)
REMARK    1  A    between atoms: C_1  and  O_2
REMARK    2  A    between atoms: C_1  and  C_4
REMARK    3  A    between atoms: C_1  and  C_16
REMARK    4  A    between atoms: C_4  and  N_5
REMARK    5  A    between atoms: C_4  and  C_9
REMARK    6  A    between atoms: C_9  and  C_10
REMARK    7  A    between atoms: C_16  and  C_17
REMARK    8  A    between atoms: C_17  and  C_19
REMARK    9  A    between atoms: C_17  and  C_22
REMARK   10  A    between atoms: C_19  and  O_20
REMARK   11  A    between atoms: C_22  and  C_23
REMARK                            x       y       z     vdW  Elec       q    Type
REMARK                         _______ _______ _______ _____ _____    ______ ____
ROOT
ATOM      1  C   UNL     1      34.875 -17.241 -24.643  0.00  0.00    +0.091 C 
ENDROOT
BRANCH   1   2
ATOM      2  O   UNL     1      33.846 -17.273 -25.634  0.00  0.00    -0.387 OA
ATOM      3  H   UNL     1      32.987 -17.106 -25.216  0.00  0.00    +0.210 HD
ENDBRANCH   1   2
BRANCH   1   4
ATOM      4  C   UNL     1      34.701 -18.457 -23.701  0.00  0.00    -0.038 C 
BRANCH   4   5
ATOM      5  N   UNL     1      34.914 -19.696 -24.454  0.00  0.00    +0.383 N 
ATOM      6  H   UNL     1      34.085 -20.284 -24.384  0.00  0.00    -0.089 HD
ATOM      7  H   UNL     1      35.718 -20.192 -24.069  0.00  0.00    -0.089 HD
ATOM      8  H   UNL     1      35.090 -19.472 -25.434  0.00  0.00    -0.089 HD
ENDBRANCH   4   5
BRANCH   4   9
ATOM      9  C   UNL     1      35.615 -18.402 -22.461  0.00  0.00    -0.020 C 
BRANCH   9  10
ATOM     10  C   UNL     1      35.004 -19.060 -21.225  0.00  0.00    -0.002 C 
ATOM     11  C   UNL     1      33.517 -19.363 -21.453  0.00  0.00    -0.000 C 
ATOM     12  C   UNL     1      35.772 -20.335 -20.855  0.00  0.00    -0.000 C 
ATOM     13  C   UNL     1      32.895 -20.069 -20.251  0.00  0.00    -0.000 C 
ATOM     14  C   UNL     1      35.146 -21.040 -19.653  0.00  0.00    -0.000 C 
ATOM     15  C   UNL     1      33.666 -21.333 -19.880  0.00  0.00    -0.000 C 
ENDBRANCH   9  10
ENDBRANCH   4   9
ENDBRANCH   1   4
BRANCH   1  16
ATOM     16  C   UNL     1      34.832 -15.871 -23.940  0.00  0.00    +0.038 C 
BRANCH  16  17
ATOM     17  C   UNL     1      33.422 -15.236 -23.895  0.00  0.00    +0.101 C 
BRANCH  17  19
ATOM     18  O   UNL     1      33.708 -12.949 -24.698  0.00  0.00    -0.250 OA
ATOM     19  C   UNL     1      33.368 -14.104 -24.906  0.00  0.00    +0.313 C 
BRANCH  19  20
ATOM     20  O   UNL     1      32.861 -14.537 -26.088  0.00  0.00    -0.480 OA
ATOM     21  H   UNL     1      32.329 -15.310 -26.116  0.00  0.00    +0.295 HD
ENDBRANCH  19  20
ENDBRANCH  17  19
BRANCH  17  22
ATOM     22  C   UNL     1      33.121 -14.710 -22.475  0.00  0.00    +0.011 C 
BRANCH  22  23
ATOM     23  C   UNL     1      33.394 -15.719 -21.337  0.00  0.00    +0.001 C 
ATOM     24  C   UNL     1      34.521 -15.290 -20.399  0.00  0.00    +0.000 C 
ATOM     25  C   UNL     1      32.111 -15.931 -20.524  0.00  0.00    +0.000 C 
ENDBRANCH  22  23
ENDBRANCH  17  22
ENDBRANCH  16  17
ENDBRANCH   1  16
TORSDOF 11
ENDMDL
MODEL 2
REMARK VINA RESULT:      -7.8      1.717      2.168
REMARK  Name = 6323244
REMARK  11 active torsions:
REMARK  status: ('A' for Active; 'I' for Inactive)
REMARK    1  A    between atoms: C_1  and  O_2
REMARK    2  A    between atoms: C_1  and  C_4
REMARK    3  A    between atoms: C_1  and  C_16
REMARK    4  A    between atoms: C_4  and  N_5
REMARK    5  A    between atoms: C_4  and  C_9
REMARK    6  A    between atoms: C_9  and  C_10
REMARK    7  A    between atoms: C_16  and  C_17
REMARK    8  A    between atoms: C_17  and  C_19
REMARK    9  A    between atoms: C_17  and  C_22
REMARK   10  A    between atoms: C_19  and  O_20
REMARK   11  A    between atoms: C_22  and  C_23
REMARK                            x       y       z     vdW  Elec       q    Type
REMARK                         _______ _______ _______ _____ _____    ______ ____
ROOT
ATOM      1  C   UNL     1      34.496 -16.695 -22.207  0.00  0.00    +0.091 C 
ENDROOT
BRANCH   1   2
ATOM      2  O   UNL     1      35.219 -16.344 -21.025  0.00  0.00    -0.387 OA
ATOM      3  H   UNL     1      36.164 -16.274 -21.232  0.00  0.00    +0.210 HD
ENDBRANCH   1   2
BRANCH   1   4
ATOM      4  C   UNL     1      34.924 -18.114 -22.653  0.00  0.00    -0.038 C 
BRANCH   4   5
ATOM      5  N   UNL     1      35.493 -18.052 -24.002  0.00  0.00    +0.383 N 
ATOM      6  H   UNL     1      35.885 -17.126 -24.163  0.00  0.00    -0.089 HD
ATOM      7  H   UNL     1      34.760 -18.236 -24.688  0.00  0.00    -0.089 HD
ATOM      8  H   UNL     1      36.228 -18.754 -24.093  0.00  0.00    -0.089 HD
ENDBRANCH   4   5
BRANCH   4   9
ATOM      9  C   UNL     1      35.903 -18.791 -21.673  0.00  0.00    -0.020 C 
BRANCH   9  10
ATOM     10  C   UNL     1      35.206 -19.572 -20.561  0.00  0.00    -0.002 C 
ATOM     11  C   UNL     1      33.762 -19.907 -20.957  0.00  0.00    -0.000 C 
ATOM     12  C   UNL     1      35.990 -20.846 -20.220  0.00  0.00    -0.000 C 
ATOM     13  C   UNL     1      33.060 -20.734 -19.883  0.00  0.00    -0.000 C 
ATOM     14  C   UNL     1      35.284 -21.672 -19.147  0.00  0.00    -0.000 C 
ATOM     15  C   UNL     1      33.846 -21.996 -19.541  0.00  0.00    -0.000 C 
ENDBRANCH   9  10
ENDBRANCH   4   9
ENDBRANCH   1   4
BRANCH   1  16
ATOM     16  C   UNL     1      34.721 -15.593 -23.261  0.00  0.00    +0.038 C 
BRANCH  16  17
ATOM     17  C   UNL     1      33.412 -15.025 -23.859  0.00  0.00    +0.101 C 
BRANCH  17  19
ATOM     18  O   UNL     1      34.178 -16.009 -25.957  0.00  0.00    -0.250 OA
ATOM     19  C   UNL     1      33.427 -15.251 -25.361  0.00  0.00    +0.313 C 
BRANCH  19  20
ATOM     20  O   UNL     1      32.501 -14.473 -25.975  0.00  0.00    -0.480 OA
ATOM     21  H   UNL     1      32.720 -13.598 -26.233  0.00  0.00    +0.295 HD
ENDBRANCH  19  20
ENDBRANCH  17  19
BRANCH  17  22
ATOM     22  C   UNL     1      33.291 -13.520 -23.538  0.00  0.00    +0.011 C 
BRANCH  22  23
ATOM     23  C   UNL     1      32.216 -13.164 -22.486  0.00  0.00    +0.001 C 
ATOM     24  C   UNL     1      32.544 -13.674 -21.083  0.00  0.00    +0.000 C 
ATOM     25  C   UNL     1      32.029 -11.643 -22.442  0.00  0.00    +0.000 C 
ENDBRANCH  22  23
ENDBRANCH  17  22
ENDBRANCH  16  17
ENDBRANCH   1  16
TORSDOF 11
ENDMDL
MODEL 3
REMARK VINA RESULT:      -7.4      8.358     11.767
REMARK  Name = 6323244
REMARK  11 active torsions:
REMARK  status: ('A' for Active; 'I' for Inactive)
REMARK    1  A    between atoms: C_1  and  O_2
REMARK    2  A    between atoms: C_1  and  C_4
REMARK    3  A    between atoms: C_1  and  C_16
REMARK    4  A    between atoms: C_4  and  N_5
REMARK    5  A    between atoms: C_4  and  C_9
REMARK    6  A    between atoms: C_9  and  C_10
REMARK    7  A    between atoms: C_16  and  C_17
REMARK    8  A    between atoms: C_17  and  C_19
REMARK    9  A    between atoms: C_17  and  C_22
REMARK   10  A    between atoms: C_19  and  O_20
REMARK   11  A    between atoms: C_22  and  C_23
REMARK                            x       y       z     vdW  Elec       q    Type
REMARK                         _______ _______ _______ _____ _____    ______ ____
ROOT
ATOM      1  C   UNL     1      36.149 -25.407 -14.886  0.00  0.00    +0.091 C 
ENDROOT
BRANCH   1   2
ATOM      2  O   UNL     1      36.335 -26.536 -15.743  0.00  0.00    -0.387 OA
ATOM      3  H   UNL     1      35.838 -27.292 -15.395  0.00  0.00    +0.210 HD
ENDBRANCH   1   2
BRANCH   1   4
ATOM      4  C   UNL     1      34.819 -24.708 -15.261  0.00  0.00    -0.038 C 
BRANCH   4   5
ATOM      5  N   UNL     1      33.867 -24.842 -14.155  0.00  0.00    +0.383 N 
ATOM      6  H   UNL     1      33.015 -24.328 -14.376  0.00  0.00    -0.089 HD
ATOM      7  H   UNL     1      34.282 -24.465 -13.303  0.00  0.00    -0.089 HD
ATOM      8  H   UNL     1      33.643 -25.828 -14.017  0.00  0.00    -0.089 HD
ENDBRANCH   4   5
BRANCH   4   9
ATOM      9  C   UNL     1      35.000 -23.229 -15.656  0.00  0.00    -0.020 C 
BRANCH   9  10
ATOM     10  C   UNL     1      35.113 -23.013 -17.164  0.00  0.00    -0.002 C 
ATOM     11  C   UNL     1      33.740 -22.689 -17.769  0.00  0.00    -0.000 C 
ATOM     12  C   UNL     1      36.124 -21.903 -17.478  0.00  0.00    -0.000 C 
ATOM     13  C   UNL     1      33.834 -22.416 -19.268  0.00  0.00    -0.000 C 
ATOM     14  C   UNL     1      36.215 -21.631 -18.978  0.00  0.00    -0.000 C 
ATOM     15  C   UNL     1      34.847 -21.318 -19.577  0.00  0.00    -0.000 C 
ENDBRANCH   9  10
ENDBRANCH   4   9
ENDBRANCH   1   4
BRANCH   1  16
ATOM     16  C   UNL     1      37.398 -24.509 -14.985  0.00  0.00    +0.038 C 
BRANCH  16  17
ATOM     17  C   UNL     1      38.393 -24.694 -13.816  0.00  0.00    +0.101 C 
BRANCH  17  19
ATOM     18  O   UNL     1      39.407 -26.740 -14.680  0.00  0.00    -0.250 OA
ATOM     19  C   UNL     1      39.527 -25.590 -14.282  0.00  0.00    +0.313 C 
BRANCH  19  20
ATOM     20  O   UNL     1      40.720 -24.951 -14.178  0.00  0.00    -0.480 OA
ATOM     21  H   UNL     1      41.463 -25.400 -13.823  0.00  0.00    +0.295 HD
ENDBRANCH  19  20
ENDBRANCH  17  19
BRANCH  17  22
ATOM     22  C   UNL     1      37.674 -25.318 -12.599  0.00  0.00    +0.011 C 
BRANCH  22  23
ATOM     23  C   UNL     1      37.224 -24.306 -11.522  0.00  0.00    +0.001 C 
ATOM     24  C   UNL     1      37.550 -22.855 -11.873  0.00  0.00    +0.000 C 
ATOM     25  C   UNL     1      35.715 -24.445 -11.290  0.00  0.00    +0.000 C 
ENDBRANCH  22  23
ENDBRANCH  17  22
ENDBRANCH  16  17
ENDBRANCH   1  16
TORSDOF 11
ENDMDL
MODEL 4
REMARK VINA RESULT:      -7.3      3.113      6.436
REMARK  Name = 6323244
REMARK  11 active torsions:
REMARK  status: ('A' for Active; 'I' for Inactive)
REMARK    1  A    between atoms: C_1  and  O_2
REMARK    2  A    between atoms: C_1  and  C_4
REMARK    3  A    between atoms: C_1  and  C_16
REMARK    4  A    between atoms: C_4  and  N_5
REMARK    5  A    between atoms: C_4  and  C_9
REMARK    6  A    between atoms: C_9  and  C_10
REMARK    7  A    between atoms: C_16  and  C_17
REMARK    8  A    between atoms: C_17  and  C_19
REMARK    9  A    between atoms: C_17  and  C_22
REMARK   10  A    between atoms: C_19  and  O_20
REMARK   11  A    between atoms: C_22  and  C_23
REMARK                            x       y       z     vdW  Elec       q    Type
REMARK                         _______ _______ _______ _____ _____    ______ ____
ROOT
ATOM      1  C   UNL     1      34.542 -14.663 -22.323  0.00  0.00    +0.091 C 
ENDROOT
BRANCH   1   2
ATOM      2  O   UNL     1      34.526 -14.715 -20.895  0.00  0.00    -0.387 OA
ATOM      3  H   UNL     1      35.059 -13.988 -20.538  0.00  0.00    +0.210 HD
ENDBRANCH   1   2
BRANCH   1   4
ATOM      4  C   UNL     1      33.774 -13.402 -22.787  0.00  0.00    -0.038 C 
BRANCH   4   5
ATOM      5  N   UNL     1      34.085 -13.128 -24.193  0.00  0.00    +0.383 N 
ATOM      6  H   UNL     1      33.293 -13.400 -24.775  0.00  0.00    -0.089 HD
ATOM      7  H   UNL     1      34.910 -13.661 -24.468  0.00  0.00    -0.089 HD
ATOM      8  H   UNL     1      34.268 -12.131 -24.312  0.00  0.00    -0.089 HD
ENDBRANCH   4   5
BRANCH   4   9
ATOM      9  C   UNL     1      32.251 -13.503 -22.570  0.00  0.00    -0.020 C 
BRANCH   9  10
ATOM     10  C   UNL     1      31.662 -12.303 -21.829  0.00  0.00    -0.002 C 
ATOM     11  C   UNL     1      31.965 -12.393 -20.327  0.00  0.00    -0.000 C 
ATOM     12  C   UNL     1      32.194 -10.989 -22.416  0.00  0.00    -0.000 C 
ATOM     13  C   UNL     1      31.432 -11.178 -19.571  0.00  0.00    -0.000 C 
ATOM     14  C   UNL     1      31.660  -9.776 -21.657  0.00  0.00    -0.000 C 
ATOM     15  C   UNL     1      31.956  -9.873 -20.163  0.00  0.00    -0.000 C 
ENDBRANCH   9  10
ENDBRANCH   4   9
ENDBRANCH   1   4
BRANCH   1  16
ATOM     16  C   UNL     1      33.982 -15.993 -22.866  0.00  0.00    +0.038 C 
BRANCH  16  17
ATOM     17  C   UNL     1      34.942 -16.726 -23.833  0.00  0.00    +0.101 C 
BRANCH  17  19
ATOM     18  O   UNL     1      34.075 -15.787 -25.913  0.00  0.00    -0.250 OA
ATOM     19  C   UNL     1      34.307 -16.761 -25.212  0.00  0.00    +0.313 C 
BRANCH  19  20
ATOM     20  O   UNL     1      33.998 -18.034 -25.568  0.00  0.00    -0.480 OA
ATOM     21  H   UNL     1      34.605 -18.728 -25.399  0.00  0.00    +0.295 HD
ENDBRANCH  19  20
ENDBRANCH  17  19
BRANCH  17  22
ATOM     22  C   UNL     1      35.217 -18.158 -23.325  0.00  0.00    +0.011 C 
BRANCH  22  23
ATOM     23  C   UNL     1      34.989 -18.365 -21.810  0.00  0.00    +0.001 C 
ATOM     24  C   UNL     1      33.932 -19.421 -21.492  0.00  0.00    +0.000 C 
ATOM     25  C   UNL     1      36.313 -18.757 -21.144  0.00  0.00    +0.000 C 
ENDBRANCH  22  23
ENDBRANCH  17  22
ENDBRANCH  16  17
ENDBRANCH   1  16
TORSDOF 11
ENDMDL
MODEL 5
REMARK VINA RESULT:      -7.3      2.488      4.359
REMARK  Name = 6323244
REMARK  11 active torsions:
REMARK  status: ('A' for Active; 'I' for Inactive)
REMARK    1  A    between atoms: C_1  and  O_2
REMARK    2  A    between atoms: C_1  and  C_4
REMARK    3  A    between atoms: C_1  and  C_16
REMARK    4  A    between atoms: C_4  and  N_5
REMARK    5  A    between atoms: C_4  and  C_9
REMARK    6  A    between atoms: C_9  and  C_10
REMARK    7  A    between atoms: C_16  and  C_17
REMARK    8  A    between atoms: C_17  and  C_19
REMARK    9  A    between atoms: C_17  and  C_22
REMARK   10  A    between atoms: C_19  and  O_20
REMARK   11  A    between atoms: C_22  and  C_23
REMARK                            x       y       z     vdW  Elec       q    Type
REMARK                         _______ _______ _______ _____ _____    ______ ____
ROOT
ATOM      1  C   UNL     1      32.875 -14.098 -23.046  0.00  0.00    +0.091 C 
ENDROOT
BRANCH   1   2
ATOM      2  O   UNL     1      31.887 -13.079 -22.884  0.00  0.00    -0.387 OA
ATOM      3  H   UNL     1      32.314 -12.208 -22.896  0.00  0.00    +0.210 HD
ENDBRANCH   1   2
BRANCH   1   4
ATOM      4  C   UNL     1      33.573 -14.341 -21.686  0.00  0.00    -0.038 C 
BRANCH   4   5
ATOM      5  N   UNL     1      32.587 -14.795 -20.703  0.00  0.00    +0.383 N 
ATOM      6  H   UNL     1      32.831 -15.732 -20.385  0.00  0.00    -0.089 HD
ATOM      7  H   UNL     1      31.662 -14.810 -21.132  0.00  0.00    -0.089 HD
ATOM      8  H   UNL     1      32.582 -14.156 -19.906  0.00  0.00    -0.089 HD
ENDBRANCH   4   5
BRANCH   4   9
ATOM      9  C   UNL     1      34.755 -15.326 -21.777  0.00  0.00    -0.020 C 
BRANCH   9  10
ATOM     10  C   UNL     1      34.356 -16.709 -22.290  0.00  0.00    -0.002 C 
ATOM     11  C   UNL     1      35.083 -17.030 -23.602  0.00  0.00    -0.000 C 
ATOM     12  C   UNL     1      34.638 -17.782 -21.230  0.00  0.00    -0.000 C 
ATOM     13  C   UNL     1      34.740 -18.430 -24.108  0.00  0.00    -0.000 C 
ATOM     14  C   UNL     1      34.296 -19.180 -21.740  0.00  0.00    -0.000 C 
ATOM     15  C   UNL     1      35.014 -19.494 -23.049  0.00  0.00    -0.000 C 
ENDBRANCH   9  10
ENDBRANCH   4   9
ENDBRANCH   1   4
BRANCH   1  16
ATOM     16  C   UNL     1      33.820 -13.682 -24.190  0.00  0.00    +0.038 C 
BRANCH  16  17
ATOM     17  C   UNL     1      33.089 -13.324 -25.505  0.00  0.00    +0.101 C 
BRANCH  17  19
ATOM     18  O   UNL     1      33.557 -15.542 -26.411  0.00  0.00    -0.250 OA
ATOM     19  C   UNL     1      33.484 -14.332 -26.570  0.00  0.00    +0.313 C 
BRANCH  19  20
ATOM     20  O   UNL     1      33.776 -13.708 -27.739  0.00  0.00    -0.480 OA
ATOM     21  H   UNL     1      34.556 -13.934 -28.210  0.00  0.00    +0.295 HD
ENDBRANCH  19  20
ENDBRANCH  17  19
BRANCH  17  22
ATOM     22  C   UNL     1      33.463 -11.892 -25.947  0.00  0.00    +0.011 C 
BRANCH  22  23
ATOM     23  C   UNL     1      34.428 -11.149 -24.996  0.00  0.00    +0.001 C 
ATOM     24  C   UNL     1      35.504 -10.346 -25.724  0.00  0.00    +0.000 C 
ATOM     25  C   UNL     1      33.625 -10.212 -24.086  0.00  0.00    +0.000 C 
ENDBRANCH  22  23
ENDBRANCH  17  22
ENDBRANCH  16  17
ENDBRANCH   1  16
TORSDOF 11
ENDMDL
MODEL 6
REMARK VINA RESULT:      -7.2      6.381      9.568
REMARK  Name = 6323244
REMARK  11 active torsions:
REMARK  status: ('A' for Active; 'I' for Inactive)
REMARK    1  A    between atoms: C_1  and  O_2
REMARK    2  A    between atoms: C_1  and  C_4
REMARK    3  A    between atoms: C_1  and  C_16
REMARK    4  A    between atoms: C_4  and  N_5
REMARK    5  A    between atoms: C_4  and  C_9
REMARK    6  A    between atoms: C_9  and  C_10
REMARK    7  A    between atoms: C_16  and  C_17
REMARK    8  A    between atoms: C_17  and  C_19
REMARK    9  A    between atoms: C_17  and  C_22
REMARK   10  A    between atoms: C_19  and  O_20
REMARK   11  A    between atoms: C_22  and  C_23
REMARK                            x       y       z     vdW  Elec       q    Type
REMARK                         _______ _______ _______ _____ _____    ______ ____
ROOT
ATOM      1  C   UNL     1      36.553 -22.724 -16.539  0.00  0.00    +0.091 C 
ENDROOT
BRANCH   1   2
ATOM      2  O   UNL     1      37.920 -23.077 -16.313  0.00  0.00    -0.387 OA
ATOM      3  H   UNL     1      37.977 -23.683 -15.558  0.00  0.00    +0.210 HD
ENDBRANCH   1   2
BRANCH   1   4
ATOM      4  C   UNL     1      36.503 -21.496 -17.480  0.00  0.00    -0.038 C 
BRANCH   4   5
ATOM      5  N   UNL     1      37.487 -20.503 -17.044  0.00  0.00    +0.383 N 
ATOM      6  H   UNL     1      37.233 -20.155 -16.120  0.00  0.00    -0.089 HD
ATOM      7  H   UNL     1      37.504 -19.728 -17.707  0.00  0.00    -0.089 HD
ATOM      8  H   UNL     1      38.411 -20.935 -17.003  0.00  0.00    -0.089 HD
ENDBRANCH   4   5
BRANCH   4   9
ATOM      9  C   UNL     1      36.707 -21.859 -18.965  0.00  0.00    -0.020 C 
BRANCH   9  10
ATOM     10  C   UNL     1      35.499 -21.534 -19.841  0.00  0.00    -0.002 C 
ATOM     11  C   UNL     1      34.196 -21.680 -19.044  0.00  0.00    -0.000 C 
ATOM     12  C   UNL     1      35.623 -20.124 -20.434  0.00  0.00    -0.000 C 
ATOM     13  C   UNL     1      32.976 -21.309 -19.884  0.00  0.00    -0.000 C 
ATOM     14  C   UNL     1      34.400 -19.756 -21.272  0.00  0.00    -0.000 C 
ATOM     15  C   UNL     1      33.107 -19.910 -20.478  0.00  0.00    -0.000 C 
ENDBRANCH   9  10
ENDBRANCH   4   9
ENDBRANCH   1   4
BRANCH   1  16
ATOM     16  C   UNL     1      35.872 -22.515 -15.172  0.00  0.00    +0.038 C 
BRANCH  16  17
ATOM     17  C   UNL     1      34.835 -23.606 -14.818  0.00  0.00    +0.101 C 
BRANCH  17  19
ATOM     18  O   UNL     1      35.912 -25.625 -15.669  0.00  0.00    -0.250 OA
ATOM     19  C   UNL     1      35.552 -24.942 -14.721  0.00  0.00    +0.313 C 
BRANCH  19  20
ATOM     20  O   UNL     1      35.725 -25.304 -13.425  0.00  0.00    -0.480 OA
ATOM     21  H   UNL     1      36.169 -26.103 -13.216  0.00  0.00    +0.295 HD
ENDBRANCH  19  20
ENDBRANCH  17  19
BRANCH  17  22
ATOM     22  C   UNL     1      33.731 -23.660 -15.896  0.00  0.00    +0.011 C 
BRANCH  22  23
ATOM     23  C   UNL     1      32.416 -22.942 -15.515  0.00  0.00    +0.001 C 
ATOM     24  C   UNL     1      31.336 -23.036 -16.592  0.00  0.00    +0.000 C 
ATOM     25  C   UNL     1      31.877 -23.526 -14.204  0.00  0.00    +0.000 C 
ENDBRANCH  22  23
ENDBRANCH  17  22
ENDBRANCH  16  17
ENDBRANCH   1  16
TORSDOF 11
ENDMDL
MODEL 7
REMARK VINA RESULT:      -7.2      3.046      6.735
REMARK  Name = 6323244
REMARK  11 active torsions:
REMARK  status: ('A' for Active; 'I' for Inactive)
REMARK    1  A    between atoms: C_1  and  O_2
REMARK    2  A    between atoms: C_1  and  C_4
REMARK    3  A    between atoms: C_1  and  C_16
REMARK    4  A    between atoms: C_4  and  N_5
REMARK    5  A    between atoms: C_4  and  C_9
REMARK    6  A    between atoms: C_9  and  C_10
REMARK    7  A    between atoms: C_16  and  C_17
REMARK    8  A    between atoms: C_17  and  C_19
REMARK    9  A    between atoms: C_17  and  C_22
REMARK   10  A    between atoms: C_19  and  O_20
REMARK   11  A    between atoms: C_22  and  C_23
REMARK                            x       y       z     vdW  Elec       q    Type
REMARK                         _______ _______ _______ _____ _____    ______ ____
ROOT
ATOM      1  C   UNL     1      33.834 -15.664 -24.679  0.00  0.00    +0.091 C 
ENDROOT
BRANCH   1   2
ATOM      2  O   UNL     1      34.495 -16.270 -25.792  0.00  0.00    -0.387 OA
ATOM      3  H   UNL     1      35.176 -15.669 -26.131  0.00  0.00    +0.210 HD
ENDBRANCH   1   2
BRANCH   1   4
ATOM      4  C   UNL     1      33.312 -14.270 -25.105  0.00  0.00    -0.038 C 
BRANCH   4   5
ATOM      5  N   UNL     1      32.393 -14.416 -26.237  0.00  0.00    +0.383 N 
ATOM      6  H   UNL     1      32.612 -15.271 -26.745  0.00  0.00    -0.089 HD
ATOM      7  H   UNL     1      32.492 -13.614 -26.859  0.00  0.00    -0.089 HD
ATOM      8  H   UNL     1      31.434 -14.462 -25.891  0.00  0.00    -0.089 HD
ENDBRANCH   4   5
BRANCH   4   9
ATOM      9  C   UNL     1      32.648 -13.491 -23.953  0.00  0.00    -0.020 C 
BRANCH   9  10
ATOM     10  C   UNL     1      33.344 -12.169 -23.633  0.00  0.00    -0.002 C 
ATOM     11  C   UNL     1      34.035 -11.605 -24.882  0.00  0.00    -0.000 C 
ATOM     12  C   UNL     1      32.346 -11.156 -23.056  0.00  0.00    -0.000 C 
ATOM     13  C   UNL     1      34.694 -10.256 -24.601  0.00  0.00    -0.000 C 
ATOM     14  C   UNL     1      33.008  -9.808 -22.778  0.00  0.00    -0.000 C 
ATOM     15  C   UNL     1      33.700  -9.255 -24.019  0.00  0.00    -0.000 C 
ENDBRANCH   9  10
ENDBRANCH   4   9
ENDBRANCH   1   4
BRANCH   1  16
ATOM     16  C   UNL     1      34.807 -15.649 -23.484  0.00  0.00    +0.038 C 
BRANCH  16  17
ATOM     17  C   UNL     1      34.405 -16.611 -22.341  0.00  0.00    +0.101 C 
BRANCH  17  19
ATOM     18  O   UNL     1      34.936 -15.505 -20.230  0.00  0.00    -0.250 OA
ATOM     19  C   UNL     1      34.120 -15.791 -21.095  0.00  0.00    +0.313 C 
BRANCH  19  20
ATOM     20  O   UNL     1      32.814 -15.426 -21.046  0.00  0.00    -0.480 OA
ATOM     21  H   UNL     1      32.415 -15.009 -21.786  0.00  0.00    +0.295 HD
ENDBRANCH  19  20
ENDBRANCH  17  19
BRANCH  17  22
ATOM     22  C   UNL     1      35.540 -17.624 -22.076  0.00  0.00    +0.011 C 
BRANCH  22  23
ATOM     23  C   UNL     1      35.161 -19.102 -22.320  0.00  0.00    +0.001 C 
ATOM     24  C   UNL     1      33.981 -19.577 -21.473  0.00  0.00    +0.000 C 
ATOM     25  C   UNL     1      34.836 -19.307 -23.804  0.00  0.00    +0.000 C 
ENDBRANCH  22  23
ENDBRANCH  17  22
ENDBRANCH  16  17
ENDBRANCH   1  16
TORSDOF 11
ENDMDL
MODEL 8
REMARK VINA RESULT:      -7.2      4.908      8.149
REMARK  Name = 6323244
REMARK  11 active torsions:
REMARK  status: ('A' for Active; 'I' for Inactive)
REMARK    1  A    between atoms: C_1  and  O_2
REMARK    2  A    between atoms: C_1  and  C_4
REMARK    3  A    between atoms: C_1  and  C_16
REMARK    4  A    between atoms: C_4  and  N_5
REMARK    5  A    between atoms: C_4  and  C_9
REMARK    6  A    between atoms: C_9  and  C_10
REMARK    7  A    between atoms: C_16  and  C_17
REMARK    8  A    between atoms: C_17  and  C_19
REMARK    9  A    between atoms: C_17  and  C_22
REMARK   10  A    between atoms: C_19  and  O_20
REMARK   11  A    between atoms: C_22  and  C_23
REMARK                            x       y       z     vdW  Elec       q    Type
REMARK                         _______ _______ _______ _____ _____    ______ ____
ROOT
ATOM      1  C   UNL     1      34.183 -22.115 -18.985  0.00  0.00    +0.091 C 
ENDROOT
BRANCH   1   2
ATOM      2  O   UNL     1      33.925 -23.458 -19.402  0.00  0.00    -0.387 OA
ATOM      3  H   UNL     1      33.097 -23.767 -19.002  0.00  0.00    +0.210 HD
ENDBRANCH   1   2
BRANCH   1   4
ATOM      4  C   UNL     1      33.848 -21.156 -20.153  0.00  0.00    -0.038 C 
BRANCH   4   5
ATOM      5  N   UNL     1      32.614 -20.426 -19.851  0.00  0.00    +0.383 N 
ATOM      6  H   UNL     1      32.716 -19.942 -18.959  0.00  0.00    -0.089 HD
ATOM      7  H   UNL     1      31.836 -21.084 -19.795  0.00  0.00    -0.089 HD
ATOM      8  H   UNL     1      32.432 -19.745 -20.588  0.00  0.00    -0.089 HD
ENDBRANCH   4   5
BRANCH   4   9
ATOM      9  C   UNL     1      34.995 -20.182 -20.488  0.00  0.00    -0.020 C 
BRANCH   9  10
ATOM     10  C   UNL     1      34.584 -19.065 -21.446  0.00  0.00    -0.002 C 
ATOM     11  C   UNL     1      35.216 -17.732 -21.025  0.00  0.00    -0.000 C 
ATOM     12  C   UNL     1      34.965 -19.420 -22.889  0.00  0.00    -0.000 C 
ATOM     13  C   UNL     1      34.862 -16.608 -21.997  0.00  0.00    -0.000 C 
ATOM     14  C   UNL     1      34.612 -18.294 -23.858  0.00  0.00    -0.000 C 
ATOM     15  C   UNL     1      35.235 -16.968 -23.432  0.00  0.00    -0.000 C 
ENDBRANCH   9  10
ENDBRANCH   4   9
ENDBRANCH   1   4
BRANCH   1  16
ATOM     16  C   UNL     1      35.636 -22.032 -18.481  0.00  0.00    +0.038 C 
BRANCH  16  17
ATOM     17  C   UNL     1      35.760 -21.972 -16.940  0.00  0.00    +0.101 C 
BRANCH  17  19
ATOM     18  O   UNL     1      37.953 -22.514 -16.016  0.00  0.00    -0.250 OA
ATOM     19  C   UNL     1      37.213 -21.720 -16.580  0.00  0.00    +0.313 C 
BRANCH  19  20
ATOM     20  O   UNL     1      37.592 -20.470 -16.946  0.00  0.00    -0.480 OA
ATOM     21  H   UNL     1      37.874 -20.304 -17.825  0.00  0.00    +0.295 HD
ENDBRANCH  19  20
ENDBRANCH  17  19
BRANCH  17  22
ATOM     22  C   UNL     1      35.267 -23.295 -16.315  0.00  0.00    +0.011 C 
BRANCH  22  23
ATOM     23  C   UNL     1      34.176 -23.136 -15.232  0.00  0.00    +0.001 C 
ATOM     24  C   UNL     1      32.765 -23.424 -15.742  0.00  0.00    +0.000 C 
ATOM     25  C   UNL     1      34.489 -24.064 -14.053  0.00  0.00    +0.000 C 
ENDBRANCH  22  23
ENDBRANCH  17  22
ENDBRANCH  16  17
ENDBRANCH   1  16
TORSDOF 11
ENDMDL
MODEL 9
REMARK VINA RESULT:      -7.1      2.637      6.549
REMARK  Name = 6323244
REMARK  11 active torsions:
REMARK  status: ('A' for Active; 'I' for Inactive)
REMARK    1  A    between atoms: C_1  and  O_2
REMARK    2  A    between atoms: C_1  and  C_4
REMARK    3  A    between atoms: C_1  and  C_16
REMARK    4  A    between atoms: C_4  and  N_5
REMARK    5  A    between atoms: C_4  and  C_9
REMARK    6  A    between atoms: C_9  and  C_10
REMARK    7  A    between atoms: C_16  and  C_17
REMARK    8  A    between atoms: C_17  and  C_19
REMARK    9  A    between atoms: C_17  and  C_22
REMARK   10  A    between atoms: C_19  and  O_20
REMARK   11  A    between atoms: C_22  and  C_23
REMARK                            x       y       z     vdW  Elec       q    Type
REMARK                         _______ _______ _______ _____ _____    ______ ____
ROOT
ATOM      1  C   UNL     1      34.423 -15.970 -21.364  0.00  0.00    +0.091 C 
ENDROOT
BRANCH   1   2
ATOM      2  O   UNL     1      34.924 -15.475 -20.121  0.00  0.00    -0.387 OA
ATOM      3  H   UNL     1      34.181 -15.254 -19.537  0.00  0.00    +0.210 HD
ENDBRANCH   1   2
BRANCH   1   4
ATOM      4  C   UNL     1      33.410 -14.950 -21.938  0.00  0.00    -0.038 C 
BRANCH   4   5
ATOM      5  N   UNL     1      32.635 -14.361 -20.843  0.00  0.00    +0.383 N 
ATOM      6  H   UNL     1      33.239 -13.760 -20.283  0.00  0.00    -0.089 HD
ATOM      7  H   UNL     1      32.256 -15.105 -20.257  0.00  0.00    -0.089 HD
ATOM      8  H   UNL     1      31.868 -13.808 -21.229  0.00  0.00    -0.089 HD
ENDBRANCH   4   5
BRANCH   4   9
ATOM      9  C   UNL     1      34.071 -13.854 -22.797  0.00  0.00    -0.020 C 
BRANCH   9  10
ATOM     10  C   UNL     1      33.379 -13.636 -24.142  0.00  0.00    -0.002 C 
ATOM     11  C   UNL     1      33.999 -12.445 -24.883  0.00  0.00    -0.000 C 
ATOM     12  C   UNL     1      33.445 -14.908 -24.998  0.00  0.00    -0.000 C 
ATOM     13  C   UNL     1      33.360 -12.239 -26.254  0.00  0.00    -0.000 C 
ATOM     14  C   UNL     1      32.807 -14.698 -26.369  0.00  0.00    -0.000 C 
ATOM     15  C   UNL     1      33.420 -13.508 -27.099  0.00  0.00    -0.000 C 
ENDBRANCH   9  10
ENDBRANCH   4   9
ENDBRANCH   1   4
BRANCH   1  16
ATOM     16  C   UNL     1      33.852 -17.383 -21.132  0.00  0.00    +0.038 C 
BRANCH  16  17
ATOM     17  C   UNL     1      34.890 -18.514 -21.320  0.00  0.00    +0.101 C 
BRANCH  17  19
ATOM     18  O   UNL     1      34.483 -19.028 -23.671  0.00  0.00    -0.250 OA
ATOM     19  C   UNL     1      35.232 -18.619 -22.796  0.00  0.00    +0.313 C 
BRANCH  19  20
ATOM     20  O   UNL     1      36.507 -18.216 -23.026  0.00  0.00    -0.480 OA
ATOM     21  H   UNL     1      36.773 -17.346 -22.797  0.00  0.00    +0.295 HD
ENDBRANCH  19  20
ENDBRANCH  17  19
BRANCH  17  22
ATOM     22  C   UNL     1      34.320 -19.851 -20.798  0.00  0.00    +0.011 C 
BRANCH  22  23
ATOM     23  C   UNL     1      35.383 -20.902 -20.406  0.00  0.00    +0.001 C 
ATOM     24  C   UNL     1      36.721 -20.291 -19.994  0.00  0.00    +0.000 C 
ATOM     25  C   UNL     1      34.846 -21.766 -19.259  0.00  0.00    +0.000 C 
ENDBRANCH  22  23
ENDBRANCH  17  22
ENDBRANCH  16  17
ENDBRANCH   1  16
TORSDOF 11
ENDMDL
