MODEL 1
REMARK VINA RESULT:      -5.0      0.000      0.000
REMARK  Name = 92141
REMARK  8 active torsions:
REMARK  status: ('A' for Active; 'I' for Inactive)
REMARK    1  A    between atoms: O_1  and  C_2
REMARK    2  A    between atoms: O_1  and  C_8
REMARK    3  A    between atoms: C_2  and  C_3
REMARK    4  A    between atoms: C_3  and  C_4
REMARK    5  A    between atoms: C_4  and  O_6
REMARK    6  A    between atoms: C_8  and  C_9
REMARK    7  A    between atoms: C_9  and  C_10
REMARK    8  A    between atoms: C_10  and  O_12
REMARK                            x       y       z     vdW  Elec       q    Type
REMARK                         _______ _______ _______ _____ _____    ______ ____
ROOT
ATOM      1  O   UNL     1      35.716 -17.074 -22.754  0.00  0.00    -0.354 OA
ENDROOT
BRANCH   1   2
ATOM      2  C   UNL     1      35.661 -18.377 -23.318  0.00  0.00    +0.145 C 
BRANCH   2   3
ATOM      3  C   UNL     1      34.465 -19.117 -22.730  0.00  0.00    +0.061 C 
BRANCH   3   4
ATOM      4  C   UNL     1      34.758 -19.692 -21.343  0.00  0.00    +0.113 C 
ATOM      5  C   UNL     1      33.477 -19.986 -20.577  0.00  0.00    +0.032 C 
BRANCH   4   6
ATOM      6  O   UNL     1      35.542 -18.772 -20.588  0.00  0.00    -0.384 OA
ATOM      7  H   UNL     1      36.404 -18.654 -21.017  0.00  0.00    +0.210 HD
ENDBRANCH   4   6
ENDBRANCH   3   4
ENDBRANCH   2   3
ENDBRANCH   1   2
BRANCH   1   8
ATOM      8  C   UNL     1      34.884 -16.164 -23.461  0.00  0.00    +0.145 C 
BRANCH   8   9
ATOM      9  C   UNL     1      34.377 -15.105 -22.490  0.00  0.00    +0.061 C 
BRANCH   9  10
ATOM     10  C   UNL     1      33.878 -15.709 -21.175  0.00  0.00    +0.113 C 
ATOM     11  C   UNL     1      32.823 -14.831 -20.520  0.00  0.00    +0.032 C 
BRANCH  10  12
ATOM     12  O   UNL     1      34.966 -15.873 -20.269  0.00  0.00    -0.384 OA
ATOM     13  H   UNL     1      35.631 -16.459 -20.664  0.00  0.00    +0.210 HD
ENDBRANCH  10  12
ENDBRANCH   9  10
ENDBRANCH   8   9
ENDBRANCH   1   8
TORSDOF 8
ENDMDL
MODEL 2
REMARK VINA RESULT:      -5.0      0.130      3.629
REMARK  Name = 92141
REMARK  8 active torsions:
REMARK  status: ('A' for Active; 'I' for Inactive)
REMARK    1  A    between atoms: O_1  and  C_2
REMARK    2  A    between atoms: O_1  and  C_8
REMARK    3  A    between atoms: C_2  and  C_3
REMARK    4  A    between atoms: C_3  and  C_4
REMARK    5  A    between atoms: C_4  and  O_6
REMARK    6  A    between atoms: C_8  and  C_9
REMARK    7  A    between atoms: C_9  and  C_10
REMARK    8  A    between atoms: C_10  and  O_12
REMARK                            x       y       z     vdW  Elec       q    Type
REMARK                         _______ _______ _______ _____ _____    ______ ____
ROOT
ATOM      1  O   UNL     1      35.700 -17.070 -22.792  0.00  0.00    -0.354 OA
ENDROOT
BRANCH   1   2
ATOM      2  C   UNL     1      34.723 -16.287 -23.464  0.00  0.00    +0.145 C 
BRANCH   2   3
ATOM      3  C   UNL     1      34.220 -15.207 -22.513  0.00  0.00    +0.061 C 
BRANCH   3   4
ATOM      4  C   UNL     1      33.817 -15.773 -21.149  0.00  0.00    +0.113 C 
ATOM      5  C   UNL     1      32.785 -14.891 -20.461  0.00  0.00    +0.032 C 
BRANCH   4   6
ATOM      6  O   UNL     1      34.961 -15.881 -20.307  0.00  0.00    -0.384 OA
ATOM      7  H   UNL     1      34.738 -15.570 -19.416  0.00  0.00    +0.210 HD
ENDBRANCH   4   6
ENDBRANCH   3   4
ENDBRANCH   2   3
ENDBRANCH   1   2
BRANCH   1   8
ATOM      8  C   UNL     1      35.722 -18.406 -23.277  0.00  0.00    +0.145 C 
BRANCH   8   9
ATOM      9  C   UNL     1      34.475 -19.129 -22.780  0.00  0.00    +0.061 C 
BRANCH   9  10
ATOM     10  C   UNL     1      34.646 -19.682 -21.364  0.00  0.00    +0.113 C 
ATOM     11  C   UNL     1      33.308 -19.819 -20.652  0.00  0.00    +0.032 C 
BRANCH  10  12
ATOM     12  O   UNL     1      35.486 -18.821 -20.601  0.00  0.00    -0.384 OA
ATOM     13  H   UNL     1      36.340 -19.255 -20.447  0.00  0.00    +0.210 HD
ENDBRANCH  10  12
ENDBRANCH   9  10
ENDBRANCH   8   9
ENDBRANCH   1   8
TORSDOF 8
ENDMDL
MODEL 3
REMARK VINA RESULT:      -4.9      2.245      3.319
REMARK  Name = 92141
REMARK  8 active torsions:
REMARK  status: ('A' for Active; 'I' for Inactive)
REMARK    1  A    between atoms: O_1  and  C_2
REMARK    2  A    between atoms: O_1  and  C_8
REMARK    3  A    between atoms: C_2  and  C_3
REMARK    4  A    between atoms: C_3  and  C_4
REMARK    5  A    between atoms: C_4  and  O_6
REMARK    6  A    between atoms: C_8  and  C_9
REMARK    7  A    between atoms: C_9  and  C_10
REMARK    8  A    between atoms: C_10  and  O_12
REMARK                            x       y       z     vdW  Elec       q    Type
REMARK                         _______ _______ _______ _____ _____    ______ ____
ROOT
ATOM      1  O   UNL     1      34.444 -18.465 -22.187  0.00  0.00    -0.354 OA
ENDROOT
BRANCH   1   2
ATOM      2  C   UNL     1      34.678 -19.236 -21.017  0.00  0.00    +0.145 C 
BRANCH   2   3
ATOM      3  C   UNL     1      33.437 -20.070 -20.722  0.00  0.00    +0.061 C 
BRANCH   3   4
ATOM      4  C   UNL     1      33.679 -21.109 -19.624  0.00  0.00    +0.113 C 
ATOM      5  C   UNL     1      35.135 -21.549 -19.582  0.00  0.00    +0.032 C 
BRANCH   4   6
ATOM      6  O   UNL     1      32.860 -22.254 -19.845  0.00  0.00    -0.384 OA
ATOM      7  H   UNL     1      32.777 -22.756 -19.020  0.00  0.00    +0.210 HD
ENDBRANCH   4   6
ENDBRANCH   3   4
ENDBRANCH   2   3
ENDBRANCH   1   2
BRANCH   1   8
ATOM      8  C   UNL     1      34.978 -19.096 -23.343  0.00  0.00    +0.145 C 
BRANCH   8   9
ATOM      9  C   UNL     1      34.673 -18.230 -24.560  0.00  0.00    +0.061 C 
BRANCH   9  10
ATOM     10  C   UNL     1      34.456 -16.761 -24.192  0.00  0.00    +0.113 C 
ATOM     11  C   UNL     1      33.924 -15.961 -25.372  0.00  0.00    +0.032 C 
BRANCH  10  12
ATOM     12  O   UNL     1      35.683 -16.179 -23.759  0.00  0.00    -0.384 OA
ATOM     13  H   UNL     1      35.497 -15.386 -23.233  0.00  0.00    +0.210 HD
ENDBRANCH  10  12
ENDBRANCH   9  10
ENDBRANCH   8   9
ENDBRANCH   1   8
TORSDOF 8
ENDMDL
MODEL 4
REMARK VINA RESULT:      -4.8      2.185      3.310
REMARK  Name = 92141
REMARK  8 active torsions:
REMARK  status: ('A' for Active; 'I' for Inactive)
REMARK    1  A    between atoms: O_1  and  C_2
REMARK    2  A    between atoms: O_1  and  C_8
REMARK    3  A    between atoms: C_2  and  C_3
REMARK    4  A    between atoms: C_3  and  C_4
REMARK    5  A    between atoms: C_4  and  O_6
REMARK    6  A    between atoms: C_8  and  C_9
REMARK    7  A    between atoms: C_9  and  C_10
REMARK    8  A    between atoms: C_10  and  O_12
REMARK                            x       y       z     vdW  Elec       q    Type
REMARK                         _______ _______ _______ _____ _____    ______ ____
ROOT
ATOM      1  O   UNL     1      34.754 -19.527 -22.737  0.00  0.00    -0.354 OA
ENDROOT
BRANCH   1   2
ATOM      2  C   UNL     1      34.155 -19.098 -21.522  0.00  0.00    +0.145 C 
BRANCH   2   3
ATOM      3  C   UNL     1      34.290 -20.212 -20.489  0.00  0.00    +0.061 C 
BRANCH   3   4
ATOM      4  C   UNL     1      35.739 -20.670 -20.310  0.00  0.00    +0.113 C 
ATOM      5  C   UNL     1      35.901 -21.537 -19.071  0.00  0.00    +0.032 C 
BRANCH   4   6
ATOM      6  O   UNL     1      36.598 -19.539 -20.194  0.00  0.00    -0.384 OA
ATOM      7  H   UNL     1      37.349 -19.761 -19.621  0.00  0.00    +0.210 HD
ENDBRANCH   4   6
ENDBRANCH   3   4
ENDBRANCH   2   3
ENDBRANCH   1   2
BRANCH   1   8
ATOM      8  C   UNL     1      35.423 -18.459 -23.394  0.00  0.00    +0.145 C 
BRANCH   8   9
ATOM      9  C   UNL     1      34.681 -18.135 -24.686  0.00  0.00    +0.061 C 
BRANCH   9  10
ATOM     10  C   UNL     1      34.743 -16.647 -25.037  0.00  0.00    +0.113 C 
ATOM     11  C   UNL     1      34.418 -15.775 -23.832  0.00  0.00    +0.032 C 
BRANCH  10  12
ATOM     12  O   UNL     1      33.817 -16.351 -26.079  0.00  0.00    -0.384 OA
ATOM     13  H   UNL     1      33.150 -17.054 -26.128  0.00  0.00    +0.210 HD
ENDBRANCH  10  12
ENDBRANCH   9  10
ENDBRANCH   8   9
ENDBRANCH   1   8
TORSDOF 8
ENDMDL
MODEL 5
REMARK VINA RESULT:      -4.7      1.361      4.425
REMARK  Name = 92141
REMARK  8 active torsions:
REMARK  status: ('A' for Active; 'I' for Inactive)
REMARK    1  A    between atoms: O_1  and  C_2
REMARK    2  A    between atoms: O_1  and  C_8
REMARK    3  A    between atoms: C_2  and  C_3
REMARK    4  A    between atoms: C_3  and  C_4
REMARK    5  A    between atoms: C_4  and  O_6
REMARK    6  A    between atoms: C_8  and  C_9
REMARK    7  A    between atoms: C_9  and  C_10
REMARK    8  A    between atoms: C_10  and  O_12
REMARK                            x       y       z     vdW  Elec       q    Type
REMARK                         _______ _______ _______ _____ _____    ______ ____
ROOT
ATOM      1  O   UNL     1      35.348 -17.294 -20.642  0.00  0.00    -0.354 OA
ENDROOT
BRANCH   1   2
ATOM      2  C   UNL     1      34.159 -16.653 -21.082  0.00  0.00    +0.145 C 
BRANCH   2   3
ATOM      3  C   UNL     1      34.369 -15.144 -21.037  0.00  0.00    +0.061 C 
BRANCH   3   4
ATOM      4  C   UNL     1      34.428 -14.521 -22.434  0.00  0.00    +0.113 C 
ATOM      5  C   UNL     1      33.035 -14.257 -22.987  0.00  0.00    +0.032 C 
BRANCH   4   6
ATOM      6  O   UNL     1      35.119 -15.389 -23.328  0.00  0.00    -0.384 OA
ATOM      7  H   UNL     1      35.549 -16.097 -22.823  0.00  0.00    +0.210 HD
ENDBRANCH   4   6
ENDBRANCH   3   4
ENDBRANCH   2   3
ENDBRANCH   1   2
BRANCH   1   8
ATOM      8  C   UNL     1      35.798 -18.262 -21.580  0.00  0.00    +0.145 C 
BRANCH   8   9
ATOM      9  C   UNL     1      34.631 -19.174 -21.943  0.00  0.00    +0.061 C 
BRANCH   9  10
ATOM     10  C   UNL     1      34.436 -20.303 -20.929  0.00  0.00    +0.113 C 
ATOM     11  C   UNL     1      33.049 -20.260 -20.304  0.00  0.00    +0.032 C 
BRANCH  10  12
ATOM     12  O   UNL     1      35.409 -20.204 -19.892  0.00  0.00    -0.384 OA
ATOM     13  H   UNL     1      34.962 -20.099 -19.038  0.00  0.00    +0.210 HD
ENDBRANCH  10  12
ENDBRANCH   9  10
ENDBRANCH   8   9
ENDBRANCH   1   8
TORSDOF 8
ENDMDL
MODEL 6
REMARK VINA RESULT:      -4.7      2.136      4.791
REMARK  Name = 92141
REMARK  8 active torsions:
REMARK  status: ('A' for Active; 'I' for Inactive)
REMARK    1  A    between atoms: O_1  and  C_2
REMARK    2  A    between atoms: O_1  and  C_8
REMARK    3  A    between atoms: C_2  and  C_3
REMARK    4  A    between atoms: C_3  and  C_4
REMARK    5  A    between atoms: C_4  and  O_6
REMARK    6  A    between atoms: C_8  and  C_9
REMARK    7  A    between atoms: C_9  and  C_10
REMARK    8  A    between atoms: C_10  and  O_12
REMARK                            x       y       z     vdW  Elec       q    Type
REMARK                         _______ _______ _______ _____ _____    ______ ____
ROOT
ATOM      1  O   UNL     1      34.572 -18.579 -20.718  0.00  0.00    -0.354 OA
ENDROOT
BRANCH   1   2
ATOM      2  C   UNL     1      35.688 -18.145 -21.482  0.00  0.00    +0.145 C 
BRANCH   2   3
ATOM      3  C   UNL     1      35.430 -18.460 -22.952  0.00  0.00    +0.061 C 
BRANCH   3   4
ATOM      4  C   UNL     1      34.846 -17.266 -23.710  0.00  0.00    +0.113 C 
ATOM      5  C   UNL     1      34.579 -17.607 -25.169  0.00  0.00    +0.032 C 
BRANCH   4   6
ATOM      6  O   UNL     1      35.748 -16.163 -23.656  0.00  0.00    -0.384 OA
ATOM      7  H   UNL     1      36.475 -16.370 -23.047  0.00  0.00    +0.210 HD
ENDBRANCH   4   6
ENDBRANCH   3   4
ENDBRANCH   2   3
ENDBRANCH   1   2
BRANCH   1   8
ATOM      8  C   UNL     1      33.989 -19.753 -21.265  0.00  0.00    +0.145 C 
BRANCH   8   9
ATOM      9  C   UNL     1      33.446 -20.609 -20.126  0.00  0.00    +0.061 C 
BRANCH   9  10
ATOM     10  C   UNL     1      34.466 -21.635 -19.630  0.00  0.00    +0.113 C 
ATOM     11  C   UNL     1      33.919 -22.450 -18.467  0.00  0.00    +0.032 C 
BRANCH  10  12
ATOM     12  O   UNL     1      35.657 -20.975 -19.207  0.00  0.00    -0.384 OA
ATOM     13  H   UNL     1      35.711 -20.995 -18.239  0.00  0.00    +0.210 HD
ENDBRANCH  10  12
ENDBRANCH   9  10
ENDBRANCH   8   9
ENDBRANCH   1   8
TORSDOF 8
ENDMDL
MODEL 7
REMARK VINA RESULT:      -4.7      8.650     11.171
REMARK  Name = 92141
REMARK  8 active torsions:
REMARK  status: ('A' for Active; 'I' for Inactive)
REMARK    1  A    between atoms: O_1  and  C_2
REMARK    2  A    between atoms: O_1  and  C_8
REMARK    3  A    between atoms: C_2  and  C_3
REMARK    4  A    between atoms: C_3  and  C_4
REMARK    5  A    between atoms: C_4  and  O_6
REMARK    6  A    between atoms: C_8  and  C_9
REMARK    7  A    between atoms: C_9  and  C_10
REMARK    8  A    between atoms: C_10  and  O_12
REMARK                            x       y       z     vdW  Elec       q    Type
REMARK                         _______ _______ _______ _____ _____    ______ ____
ROOT
ATOM      1  O   UNL     1      37.558 -23.183 -13.357  0.00  0.00    -0.354 OA
ENDROOT
BRANCH   1   2
ATOM      2  C   UNL     1      36.251 -23.512 -13.806  0.00  0.00    +0.145 C 
BRANCH   2   3
ATOM      3  C   UNL     1      36.139 -23.168 -15.287  0.00  0.00    +0.061 C 
BRANCH   3   4
ATOM      4  C   UNL     1      37.344 -22.373 -15.794  0.00  0.00    +0.113 C 
ATOM      5  C   UNL     1      37.018 -21.620 -17.075  0.00  0.00    +0.032 C 
BRANCH   4   6
ATOM      6  O   UNL     1      38.439 -23.251 -16.044  0.00  0.00    -0.384 OA
ATOM      7  H   UNL     1      39.235 -22.729 -16.232  0.00  0.00    +0.210 HD
ENDBRANCH   4   6
ENDBRANCH   3   4
ENDBRANCH   2   3
ENDBRANCH   1   2
BRANCH   1   8
ATOM      8  C   UNL     1      38.135 -24.245 -12.609  0.00  0.00    +0.145 C 
BRANCH   8   9
ATOM      9  C   UNL     1      37.634 -25.571 -13.170  0.00  0.00    +0.061 C 
BRANCH   9  10
ATOM     10  C   UNL     1      38.638 -26.216 -14.127  0.00  0.00    +0.113 C 
ATOM     11  C   UNL     1      40.015 -25.580 -14.005  0.00  0.00    +0.032 C 
BRANCH  10  12
ATOM     12  O   UNL     1      38.187 -26.080 -15.473  0.00  0.00    -0.384 OA
ATOM     13  H   UNL     1      38.688 -25.375 -15.912  0.00  0.00    +0.210 HD
ENDBRANCH  10  12
ENDBRANCH   9  10
ENDBRANCH   8   9
ENDBRANCH   1   8
TORSDOF 8
ENDMDL
MODEL 8
REMARK VINA RESULT:      -4.7      1.733      2.344
REMARK  Name = 92141
REMARK  8 active torsions:
REMARK  status: ('A' for Active; 'I' for Inactive)
REMARK    1  A    between atoms: O_1  and  C_2
REMARK    2  A    between atoms: O_1  and  C_8
REMARK    3  A    between atoms: C_2  and  C_3
REMARK    4  A    between atoms: C_3  and  C_4
REMARK    5  A    between atoms: C_4  and  O_6
REMARK    6  A    between atoms: C_8  and  C_9
REMARK    7  A    between atoms: C_9  and  C_10
REMARK    8  A    between atoms: C_10  and  O_12
REMARK                            x       y       z     vdW  Elec       q    Type
REMARK                         _______ _______ _______ _____ _____    ______ ____
ROOT
ATOM      1  O   UNL     1      34.020 -17.937 -21.518  0.00  0.00    -0.354 OA
ENDROOT
BRANCH   1   2
ATOM      2  C   UNL     1      34.468 -19.217 -21.941  0.00  0.00    +0.145 C 
BRANCH   2   3
ATOM      3  C   UNL     1      34.761 -20.067 -20.710  0.00  0.00    +0.061 C 
BRANCH   3   4
ATOM      4  C   UNL     1      33.486 -20.512 -19.991  0.00  0.00    +0.113 C 
ATOM      5  C   UNL     1      33.612 -21.931 -19.457  0.00  0.00    +0.032 C 
BRANCH   4   6
ATOM      6  O   UNL     1      32.376 -20.456 -20.884  0.00  0.00    -0.384 OA
ATOM      7  H   UNL     1      31.827 -19.687 -20.669  0.00  0.00    +0.210 HD
ENDBRANCH   4   6
ENDBRANCH   3   4
ENDBRANCH   2   3
ENDBRANCH   1   2
BRANCH   1   8
ATOM      8  C   UNL     1      35.101 -17.122 -21.086  0.00  0.00    +0.145 C 
BRANCH   8   9
ATOM      9  C   UNL     1      34.577 -15.716 -20.812  0.00  0.00    +0.061 C 
BRANCH   9  10
ATOM     10  C   UNL     1      34.449 -14.882 -22.089  0.00  0.00    +0.113 C 
ATOM     11  C   UNL     1      32.993 -14.654 -22.464  0.00  0.00    +0.032 C 
BRANCH  10  12
ATOM     12  O   UNL     1      35.104 -15.540 -23.171  0.00  0.00    -0.384 OA
ATOM     13  H   UNL     1      36.046 -15.309 -23.167  0.00  0.00    +0.210 HD
ENDBRANCH  10  12
ENDBRANCH   9  10
ENDBRANCH   8   9
ENDBRANCH   1   8
TORSDOF 8
ENDMDL
MODEL 9
REMARK VINA RESULT:      -4.6      1.506      4.578
REMARK  Name = 92141
REMARK  8 active torsions:
REMARK  status: ('A' for Active; 'I' for Inactive)
REMARK    1  A    between atoms: O_1  and  C_2
REMARK    2  A    between atoms: O_1  and  C_8
REMARK    3  A    between atoms: C_2  and  C_3
REMARK    4  A    between atoms: C_3  and  C_4
REMARK    5  A    between atoms: C_4  and  O_6
REMARK    6  A    between atoms: C_8  and  C_9
REMARK    7  A    between atoms: C_9  and  C_10
REMARK    8  A    between atoms: C_10  and  O_12
REMARK                            x       y       z     vdW  Elec       q    Type
REMARK                         _______ _______ _______ _____ _____    ______ ____
ROOT
ATOM      1  O   UNL     1      34.934 -18.104 -21.162  0.00  0.00    -0.354 OA
ENDROOT
BRANCH   1   2
ATOM      2  C   UNL     1      35.258 -17.262 -22.260  0.00  0.00    +0.145 C 
BRANCH   2   3
ATOM      3  C   UNL     1      34.279 -16.094 -22.289  0.00  0.00    +0.061 C 
BRANCH   3   4
ATOM      4  C   UNL     1      33.798 -15.701 -20.891  0.00  0.00    +0.113 C 
ATOM      5  C   UNL     1      32.850 -14.511 -20.939  0.00  0.00    +0.032 C 
BRANCH   4   6
ATOM      6  O   UNL     1      34.912 -15.366 -20.067  0.00  0.00    -0.384 OA
ATOM      7  H   UNL     1      35.729 -15.680 -20.484  0.00  0.00    +0.210 HD
ENDBRANCH   4   6
ENDBRANCH   3   4
ENDBRANCH   2   3
ENDBRANCH   1   2
BRANCH   1   8
ATOM      8  C   UNL     1      34.414 -19.353 -21.597  0.00  0.00    +0.145 C 
BRANCH   8   9
ATOM      9  C   UNL     1      34.442 -20.331 -20.428  0.00  0.00    +0.061 C 
BRANCH   9  10
ATOM     10  C   UNL     1      35.851 -20.849 -20.133  0.00  0.00    +0.113 C 
ATOM     11  C   UNL     1      35.877 -21.722 -18.888  0.00  0.00    +0.032 C 
BRANCH  10  12
ATOM     12  O   UNL     1      36.745 -19.755 -19.945  0.00  0.00    -0.384 OA
ATOM     13  H   UNL     1      36.952 -19.665 -19.001  0.00  0.00    +0.210 HD
ENDBRANCH  10  12
ENDBRANCH   9  10
ENDBRANCH   8   9
ENDBRANCH   1   8
TORSDOF 8
ENDMDL
