MODEL 1
REMARK VINA RESULT:     -10.3      0.000      0.000
REMARK  Name = 57519748
REMARK  6 active torsions:
REMARK  status: ('A' for Active; 'I' for Inactive)
REMARK    1  A    between atoms: N_2  and  C_27
REMARK    2  A    between atoms: C_12  and  C_17
REMARK    3  A    between atoms: C_18  and  C_22
REMARK    4  A    between atoms: C_22  and  O_25
REMARK    5  A    between atoms: C_27  and  C_28
REMARK    6  A    between atoms: C_28  and  O_30
REMARK                            x       y       z     vdW  Elec       q    Type
REMARK                         _______ _______ _______ _____ _____    ______ ____
ROOT
ATOM      1  O   UNL     1      35.098 -17.761 -20.792  0.00  0.00    -0.246 OA
ATOM      2  N   UNL     1      34.666 -15.862 -22.158  0.00  0.00    -0.277 N 
ATOM      3  N   UNL     1      34.555 -17.926 -23.088  0.00  0.00    -0.276 N 
ATOM      4  N   UNL     1      33.706 -16.091 -26.193  0.00  0.00    -0.242 NA
ATOM      5  C   UNL     1      34.328 -15.698 -23.523  0.00  0.00    +0.083 A 
ATOM      6  C   UNL     1      34.265 -16.977 -24.073  0.00  0.00    +0.099 A 
ATOM      7  C   UNL     1      34.074 -14.569 -24.318  0.00  0.00    +0.035 C 
ATOM      8  C   UNL     1      34.812 -17.254 -21.868  0.00  0.00    +0.332 A 
ATOM      9  C   UNL     1      33.761 -14.841 -25.677  0.00  0.00    +0.083 C 
ATOM     10  C   UNL     1      34.103 -13.221 -23.887  0.00  0.00    +0.003 C 
ATOM     11  C   UNL     1      33.957 -17.147 -25.393  0.00  0.00    +0.118 C 
ATOM     12  C   UNL     1      33.833 -12.174 -24.766  0.00  0.00    +0.002 C 
ATOM     13  C   UNL     1      34.588 -19.354 -23.282  0.00  0.00    +0.135 C 
ATOM     14  C   UNL     1      33.497 -13.774 -26.529  0.00  0.00    +0.019 C 
ATOM     15  C   UNL     1      33.530 -12.450 -26.089  0.00  0.00    +0.002 C 
ENDROOT
BRANCH  12  17
ATOM     16  N   UNL     1      34.933  -8.633 -24.353  0.00  0.00    -0.243 NA
ATOM     17  C   UNL     1      33.869 -10.803 -24.302  0.00  0.00    +0.019 C 
ATOM     18  C   UNL     1      32.984  -9.006 -22.971  0.00  0.00    +0.021 C 
ATOM     19  C   UNL     1      32.925 -10.327 -23.398  0.00  0.00    +0.001 C 
ATOM     20  C   UNL     1      34.843  -9.924 -24.745  0.00  0.00    +0.099 C 
ATOM     21  C   UNL     1      33.999  -8.207 -23.474  0.00  0.00    +0.097 C 
BRANCH  18  22
ATOM     22  C   UNL     1      31.990  -8.467 -22.006  0.00  0.00    +0.109 C 
ATOM     23  C   UNL     1      32.655  -7.930 -20.714  0.00  0.00    +0.034 C 
ATOM     24  C   UNL     1      31.113  -7.350 -22.626  0.00  0.00    +0.034 C 
BRANCH  22  25
ATOM     25  O   UNL     1      31.059  -9.484 -21.565  0.00  0.00    -0.383 OA
ATOM     26  H   UNL     1      30.230  -9.065 -21.287  0.00  0.00    +0.211 HD
ENDBRANCH  22  25
ENDBRANCH  18  22
ENDBRANCH  12  17
BRANCH   2  27
ATOM     27  C   UNL     1      34.835 -14.794 -21.209  0.00  0.00    +0.140 C 
BRANCH  27  28
ATOM     28  C   UNL     1      33.517 -14.439 -20.529  0.00  0.00    +0.138 C 
ATOM     29  C   UNL     1      32.517 -15.583 -20.638  0.00  0.00    +0.034 C 
BRANCH  28  30
ATOM     30  O   UNL     1      32.970 -13.290 -21.173  0.00  0.00    -0.352 OA
ATOM     31  C   UNL     1      31.960 -12.685 -20.379  0.00  0.00    +0.174 C 
ENDBRANCH  28  30
ENDBRANCH  27  28
ENDBRANCH   2  27
TORSDOF 6
ENDMDL
MODEL 2
REMARK VINA RESULT:     -10.3      2.758      8.077
REMARK  Name = 57519748
REMARK  6 active torsions:
REMARK  status: ('A' for Active; 'I' for Inactive)
REMARK    1  A    between atoms: N_2  and  C_27
REMARK    2  A    between atoms: C_12  and  C_17
REMARK    3  A    between atoms: C_18  and  C_22
REMARK    4  A    between atoms: C_22  and  O_25
REMARK    5  A    between atoms: C_27  and  C_28
REMARK    6  A    between atoms: C_28  and  O_30
REMARK                            x       y       z     vdW  Elec       q    Type
REMARK                         _______ _______ _______ _____ _____    ______ ____
ROOT
ATOM      1  O   UNL     1      33.703 -11.877 -23.073  0.00  0.00    -0.246 OA
ATOM      2  N   UNL     1      34.131 -14.214 -22.960  0.00  0.00    -0.277 N 
ATOM      3  N   UNL     1      33.456 -13.320 -24.930  0.00  0.00    -0.276 N 
ATOM      4  N   UNL     1      33.717 -16.796 -26.188  0.00  0.00    -0.242 NA
ATOM      5  C   UNL     1      34.061 -15.266 -23.905  0.00  0.00    +0.083 A 
ATOM      6  C   UNL     1      33.646 -14.695 -25.106  0.00  0.00    +0.099 A 
ATOM      7  C   UNL     1      34.318 -16.645 -23.824  0.00  0.00    +0.035 C 
ATOM      8  C   UNL     1      33.756 -12.986 -23.587  0.00  0.00    +0.332 A 
ATOM      9  C   UNL     1      34.122 -17.369 -25.031  0.00  0.00    +0.083 C 
ATOM     10  C   UNL     1      34.743 -17.349 -22.673  0.00  0.00    +0.003 C 
ATOM     11  C   UNL     1      33.482 -15.469 -26.219  0.00  0.00    +0.118 C 
ATOM     12  C   UNL     1      34.970 -18.723 -22.708  0.00  0.00    +0.002 C 
ATOM     13  C   UNL     1      33.028 -12.395 -25.949  0.00  0.00    +0.135 C 
ATOM     14  C   UNL     1      34.356 -18.740 -25.032  0.00  0.00    +0.019 C 
ATOM     15  C   UNL     1      34.776 -19.420 -23.888  0.00  0.00    +0.002 C 
ENDROOT
BRANCH  12  17
ATOM     16  N   UNL     1      37.097 -19.760 -19.823  0.00  0.00    -0.243 NA
ATOM     17  C   UNL     1      35.405 -19.421 -21.517  0.00  0.00    +0.019 C 
ATOM     18  C   UNL     1      35.047 -21.041 -19.775  0.00  0.00    +0.021 C 
ATOM     19  C   UNL     1      34.603 -20.387 -20.919  0.00  0.00    +0.001 C 
ATOM     20  C   UNL     1      36.632 -19.147 -20.935  0.00  0.00    +0.099 C 
ATOM     21  C   UNL     1      36.291 -20.693 -19.271  0.00  0.00    +0.097 C 
BRANCH  18  22
ATOM     22  C   UNL     1      34.213 -22.077 -19.111  0.00  0.00    +0.109 C 
ATOM     23  C   UNL     1      34.746 -22.448 -17.705  0.00  0.00    +0.034 C 
ATOM     24  C   UNL     1      32.727 -21.654 -18.995  0.00  0.00    +0.034 C 
BRANCH  22  25
ATOM     25  O   UNL     1      34.201 -23.318 -19.857  0.00  0.00    -0.383 OA
ATOM     26  H   UNL     1      33.297 -23.671 -19.883  0.00  0.00    +0.211 HD
ENDBRANCH  22  25
ENDBRANCH  18  22
ENDBRANCH  12  17
BRANCH   2  27
ATOM     27  C   UNL     1      34.521 -14.358 -21.583  0.00  0.00    +0.140 C 
BRANCH  27  28
ATOM     28  C   UNL     1      33.307 -14.383 -20.660  0.00  0.00    +0.138 C 
ATOM     29  C   UNL     1      32.713 -15.783 -20.572  0.00  0.00    +0.034 C 
BRANCH  28  30
ATOM     30  O   UNL     1      32.318 -13.500 -21.186  0.00  0.00    -0.352 OA
ATOM     31  C   UNL     1      31.952 -12.510 -20.237  0.00  0.00    +0.174 C 
ENDBRANCH  28  30
ENDBRANCH  27  28
ENDBRANCH   2  27
TORSDOF 6
ENDMDL
MODEL 3
REMARK VINA RESULT:      -9.9      2.217      8.037
REMARK  Name = 57519748
REMARK  6 active torsions:
REMARK  status: ('A' for Active; 'I' for Inactive)
REMARK    1  A    between atoms: N_2  and  C_27
REMARK    2  A    between atoms: C_12  and  C_17
REMARK    3  A    between atoms: C_18  and  C_22
REMARK    4  A    between atoms: C_22  and  O_25
REMARK    5  A    between atoms: C_27  and  C_28
REMARK    6  A    between atoms: C_28  and  O_30
REMARK                            x       y       z     vdW  Elec       q    Type
REMARK                         _______ _______ _______ _____ _____    ______ ____
ROOT
ATOM      1  O   UNL     1      32.314  -7.349 -23.870  0.00  0.00    -0.246 OA
ATOM      2  N   UNL     1      32.537  -9.666 -23.376  0.00  0.00    -0.277 N 
ATOM      3  N   UNL     1      31.776  -8.271 -21.760  0.00  0.00    -0.276 N 
ATOM      4  N   UNL     1      31.607 -11.341 -19.690  0.00  0.00    -0.242 NA
ATOM      5  C   UNL     1      32.287 -10.446 -22.221  0.00  0.00    +0.083 A 
ATOM      6  C   UNL     1      31.821  -9.570 -21.243  0.00  0.00    +0.099 A 
ATOM      7  C   UNL     1      32.423 -11.816 -21.944  0.00  0.00    +0.035 C 
ATOM      8  C   UNL     1      32.221  -8.299 -23.103  0.00  0.00    +0.332 A 
ATOM      9  C   UNL     1      32.056 -12.207 -20.628  0.00  0.00    +0.083 C 
ATOM     10  C   UNL     1      32.882 -12.809 -22.842  0.00  0.00    +0.003 C 
ATOM     11  C   UNL     1      31.492 -10.034 -20.001  0.00  0.00    +0.118 C 
ATOM     12  C   UNL     1      32.976 -14.145 -22.458  0.00  0.00    +0.002 C 
ATOM     13  C   UNL     1      31.348  -7.097 -21.041  0.00  0.00    +0.135 C 
ATOM     14  C   UNL     1      32.163 -13.548 -20.275  0.00  0.00    +0.019 C 
ATOM     15  C   UNL     1      32.616 -14.516 -21.173  0.00  0.00    +0.002 C 
ENDROOT
BRANCH  12  17
ATOM     16  N   UNL     1      33.764 -15.834 -25.689  0.00  0.00    -0.243 NA
ATOM     17  C   UNL     1      33.448 -15.142 -23.395  0.00  0.00    +0.019 C 
ATOM     18  C   UNL     1      34.469 -17.266 -23.874  0.00  0.00    +0.021 C 
ATOM     19  C   UNL     1      34.024 -16.327 -22.951  0.00  0.00    +0.001 C 
ATOM     20  C   UNL     1      33.342 -14.945 -24.762  0.00  0.00    +0.099 C 
ATOM     21  C   UNL     1      34.317 -16.974 -25.220  0.00  0.00    +0.097 C 
BRANCH  18  22
ATOM     22  C   UNL     1      35.090 -18.542 -23.431  0.00  0.00    +0.109 C 
ATOM     23  C   UNL     1      34.501 -19.048 -22.091  0.00  0.00    +0.034 C 
ATOM     24  C   UNL     1      34.961 -19.661 -24.495  0.00  0.00    +0.034 C 
BRANCH  22  25
ATOM     25  O   UNL     1      36.511 -18.398 -23.197  0.00  0.00    -0.383 OA
ATOM     26  H   UNL     1      36.656 -18.014 -22.318  0.00  0.00    +0.211 HD
ENDBRANCH  22  25
ENDBRANCH  18  22
ENDBRANCH  12  17
BRANCH   2  27
ATOM     27  C   UNL     1      33.031 -10.170 -24.630  0.00  0.00    +0.140 C 
BRANCH  27  28
ATOM     28  C   UNL     1      34.538 -10.396 -24.584  0.00  0.00    +0.138 C 
ATOM     29  C   UNL     1      35.287  -9.078 -24.440  0.00  0.00    +0.034 C 
BRANCH  28  30
ATOM     30  O   UNL     1      34.941 -11.021 -25.801  0.00  0.00    -0.352 OA
ATOM     31  C   UNL     1      33.932 -11.888 -26.295  0.00  0.00    +0.174 C 
ENDBRANCH  28  30
ENDBRANCH  27  28
ENDBRANCH   2  27
TORSDOF 6
ENDMDL
MODEL 4
REMARK VINA RESULT:      -9.8      7.743     11.549
REMARK  Name = 57519748
REMARK  6 active torsions:
REMARK  status: ('A' for Active; 'I' for Inactive)
REMARK    1  A    between atoms: N_2  and  C_27
REMARK    2  A    between atoms: C_12  and  C_17
REMARK    3  A    between atoms: C_18  and  C_22
REMARK    4  A    between atoms: C_22  and  O_25
REMARK    5  A    between atoms: C_27  and  C_28
REMARK    6  A    between atoms: C_28  and  O_30
REMARK                            x       y       z     vdW  Elec       q    Type
REMARK                         _______ _______ _______ _____ _____    ______ ____
ROOT
ATOM      1  O   UNL     1      32.715 -24.746 -13.052  0.00  0.00    -0.246 OA
ATOM      2  N   UNL     1      33.662 -23.620 -14.922  0.00  0.00    -0.277 N 
ATOM      3  N   UNL     1      35.043 -24.422 -13.314  0.00  0.00    -0.276 N 
ATOM      4  N   UNL     1      37.741 -23.023 -15.435  0.00  0.00    -0.242 NA
ATOM      5  C   UNL     1      34.989 -23.306 -15.303  0.00  0.00    +0.083 A 
ATOM      6  C   UNL     1      35.819 -23.807 -14.302  0.00  0.00    +0.099 A 
ATOM      7  C   UNL     1      35.535 -22.640 -16.412  0.00  0.00    +0.035 C 
ATOM      8  C   UNL     1      33.678 -24.321 -13.677  0.00  0.00    +0.332 A 
ATOM      9  C   UNL     1      36.951 -22.530 -16.417  0.00  0.00    +0.083 C 
ATOM     10  C   UNL     1      34.809 -22.085 -17.494  0.00  0.00    +0.003 C 
ATOM     11  C   UNL     1      37.173 -23.656 -14.388  0.00  0.00    +0.118 C 
ATOM     12  C   UNL     1      35.457 -21.444 -18.547  0.00  0.00    +0.002 C 
ATOM     13  C   UNL     1      35.550 -25.054 -12.122  0.00  0.00    +0.135 C 
ATOM     14  C   UNL     1      37.567 -21.883 -17.483  0.00  0.00    +0.019 C 
ATOM     15  C   UNL     1      36.838 -21.342 -18.542  0.00  0.00    +0.002 C 
ENDROOT
BRANCH  12  17
ATOM     16  N   UNL     1      32.569 -20.661 -20.775  0.00  0.00    -0.243 NA
ATOM     17  C   UNL     1      34.693 -20.885 -19.642  0.00  0.00    +0.019 C 
ATOM     18  C   UNL     1      34.533 -19.539 -21.629  0.00  0.00    +0.021 C 
ATOM     19  C   UNL     1      35.292 -20.062 -20.589  0.00  0.00    +0.001 C 
ATOM     20  C   UNL     1      33.340 -21.151 -19.779  0.00  0.00    +0.099 C 
ATOM     21  C   UNL     1      33.187 -19.866 -21.676  0.00  0.00    +0.097 C 
BRANCH  18  22
ATOM     22  C   UNL     1      35.145 -18.656 -22.656  0.00  0.00    +0.109 C 
ATOM     23  C   UNL     1      34.924 -19.187 -24.095  0.00  0.00    +0.034 C 
ATOM     24  C   UNL     1      34.622 -17.200 -22.568  0.00  0.00    +0.034 C 
BRANCH  22  25
ATOM     25  O   UNL     1      36.580 -18.558 -22.498  0.00  0.00    -0.383 OA
ATOM     26  H   UNL     1      36.874 -19.184 -21.817  0.00  0.00    +0.211 HD
ENDBRANCH  22  25
ENDBRANCH  18  22
ENDBRANCH  12  17
BRANCH   2  27
ATOM     27  C   UNL     1      32.480 -23.287 -15.672  0.00  0.00    +0.140 C 
BRANCH  27  28
ATOM     28  C   UNL     1      31.214 -23.689 -14.923  0.00  0.00    +0.138 C 
ATOM     29  C   UNL     1      30.399 -24.697 -15.722  0.00  0.00    +0.034 C 
BRANCH  28  30
ATOM     30  O   UNL     1      30.420 -22.522 -14.715  0.00  0.00    -0.352 OA
ATOM     31  C   UNL     1      29.156 -22.638 -15.348  0.00  0.00    +0.174 C 
ENDBRANCH  28  30
ENDBRANCH  27  28
ENDBRANCH   2  27
TORSDOF 6
ENDMDL
MODEL 5
REMARK VINA RESULT:      -9.4      1.435      1.927
REMARK  Name = 57519748
REMARK  6 active torsions:
REMARK  status: ('A' for Active; 'I' for Inactive)
REMARK    1  A    between atoms: N_2  and  C_27
REMARK    2  A    between atoms: C_12  and  C_17
REMARK    3  A    between atoms: C_18  and  C_22
REMARK    4  A    between atoms: C_22  and  O_25
REMARK    5  A    between atoms: C_27  and  C_28
REMARK    6  A    between atoms: C_28  and  O_30
REMARK                            x       y       z     vdW  Elec       q    Type
REMARK                         _______ _______ _______ _____ _____    ______ ____
ROOT
ATOM      1  O   UNL     1      35.366 -18.145 -20.629  0.00  0.00    -0.246 OA
ATOM      2  N   UNL     1      34.661 -16.242 -21.870  0.00  0.00    -0.277 N 
ATOM      3  N   UNL     1      35.025 -18.191 -22.969  0.00  0.00    -0.276 N 
ATOM      4  N   UNL     1      34.045 -16.263 -25.979  0.00  0.00    -0.242 NA
ATOM      5  C   UNL     1      34.392 -16.016 -23.242  0.00  0.00    +0.083 A 
ATOM      6  C   UNL     1      34.621 -17.225 -23.897  0.00  0.00    +0.099 A 
ATOM      7  C   UNL     1      33.974 -14.885 -23.963  0.00  0.00    +0.035 C 
ATOM      8  C   UNL     1      35.059 -17.601 -21.682  0.00  0.00    +0.332 A 
ATOM      9  C   UNL     1      33.816 -15.081 -25.361  0.00  0.00    +0.083 C 
ATOM     10  C   UNL     1      33.707 -13.604 -23.424  0.00  0.00    +0.003 C 
ATOM     11  C   UNL     1      34.444 -17.323 -25.247  0.00  0.00    +0.118 C 
ATOM     12  C   UNL     1      33.296 -12.549 -24.237  0.00  0.00    +0.002 C 
ATOM     13  C   UNL     1      35.353 -19.561 -23.274  0.00  0.00    +0.135 C 
ATOM     14  C   UNL     1      33.406 -14.007 -26.144  0.00  0.00    +0.019 C 
ATOM     15  C   UNL     1      33.145 -12.750 -25.598  0.00  0.00    +0.002 C 
ENDROOT
BRANCH  12  17
ATOM     16  N   UNL     1      31.744  -9.893 -22.125  0.00  0.00    -0.243 NA
ATOM     17  C   UNL     1      33.028 -11.247 -23.662  0.00  0.00    +0.019 C 
ATOM     18  C   UNL     1      33.474  -8.891 -23.485  0.00  0.00    +0.021 C 
ATOM     19  C   UNL     1      33.753 -10.128 -24.055  0.00  0.00    +0.001 C 
ATOM     20  C   UNL     1      32.044 -11.078 -22.702  0.00  0.00    +0.099 C 
ATOM     21  C   UNL     1      32.469  -8.827 -22.533  0.00  0.00    +0.097 C 
BRANCH  18  22
ATOM     22  C   UNL     1      34.232  -7.675 -23.883  0.00  0.00    +0.109 C 
ATOM     23  C   UNL     1      34.904  -7.829 -25.270  0.00  0.00    +0.034 C 
ATOM     24  C   UNL     1      33.346  -6.404 -23.889  0.00  0.00    +0.034 C 
BRANCH  22  25
ATOM     25  O   UNL     1      35.311  -7.386 -22.962  0.00  0.00    -0.383 OA
ATOM     26  H   UNL     1      35.179  -7.888 -22.143  0.00  0.00    +0.211 HD
ENDBRANCH  22  25
ENDBRANCH  18  22
ENDBRANCH  12  17
BRANCH   2  27
ATOM     27  C   UNL     1      34.550 -15.257 -20.828  0.00  0.00    +0.140 C 
BRANCH  27  28
ATOM     28  C   UNL     1      33.117 -15.147 -20.316  0.00  0.00    +0.138 C 
ATOM     29  C   UNL     1      32.300 -16.372 -20.703  0.00  0.00    +0.034 C 
BRANCH  28  30
ATOM     30  O   UNL     1      32.515 -13.992 -20.899  0.00  0.00    -0.352 OA
ATOM     31  C   UNL     1      32.300 -12.978 -19.930  0.00  0.00    +0.174 C 
ENDBRANCH  28  30
ENDBRANCH  27  28
ENDBRANCH   2  27
TORSDOF 6
ENDMDL
MODEL 6
REMARK VINA RESULT:      -9.2      3.240      6.050
REMARK  Name = 57519748
REMARK  6 active torsions:
REMARK  status: ('A' for Active; 'I' for Inactive)
REMARK    1  A    between atoms: N_2  and  C_27
REMARK    2  A    between atoms: C_12  and  C_17
REMARK    3  A    between atoms: C_18  and  C_22
REMARK    4  A    between atoms: C_22  and  O_25
REMARK    5  A    between atoms: C_27  and  C_28
REMARK    6  A    between atoms: C_28  and  O_30
REMARK                            x       y       z     vdW  Elec       q    Type
REMARK                         _______ _______ _______ _____ _____    ______ ____
ROOT
ATOM      1  O   UNL     1      32.843 -14.236 -23.547  0.00  0.00    -0.246 OA
ATOM      2  N   UNL     1      32.560 -11.924 -23.064  0.00  0.00    -0.277 N 
ATOM      3  N   UNL     1      32.374 -13.424 -21.376  0.00  0.00    -0.276 N 
ATOM      4  N   UNL     1      31.736 -10.441 -19.272  0.00  0.00    -0.242 NA
ATOM      5  C   UNL     1      32.280 -11.201 -21.879  0.00  0.00    +0.083 A 
ATOM      6  C   UNL     1      32.171 -12.141 -20.857  0.00  0.00    +0.099 A 
ATOM      7  C   UNL     1      32.116  -9.833 -21.608  0.00  0.00    +0.035 C 
ATOM      8  C   UNL     1      32.622 -13.320 -22.766  0.00  0.00    +0.332 A 
ATOM      9  C   UNL     1      31.839  -9.512 -20.252  0.00  0.00    +0.083 C 
ATOM     10  C   UNL     1      32.201  -8.779 -22.549  0.00  0.00    +0.003 C 
ATOM     11  C   UNL     1      31.902 -11.743 -19.578  0.00  0.00    +0.118 C 
ATOM     12  C   UNL     1      32.021  -7.451 -22.167  0.00  0.00    +0.002 C 
ATOM     13  C   UNL     1      32.336 -14.650 -20.619  0.00  0.00    +0.135 C 
ATOM     14  C   UNL     1      31.663  -8.177 -19.904  0.00  0.00    +0.019 C 
ATOM     15  C   UNL     1      31.751  -7.150 -20.843  0.00  0.00    +0.002 C 
ENDROOT
BRANCH  12  17
ATOM     16  N   UNL     1      32.879  -5.644 -25.316  0.00  0.00    -0.243 NA
ATOM     17  C   UNL     1      32.113  -6.391 -23.148  0.00  0.00    +0.019 C 
ATOM     18  C   UNL     1      31.657  -4.142 -23.869  0.00  0.00    +0.021 C 
ATOM     19  C   UNL     1      31.554  -5.141 -22.908  0.00  0.00    +0.001 C 
ATOM     20  C   UNL     1      32.759  -6.590 -24.357  0.00  0.00    +0.099 C 
ATOM     21  C   UNL     1      32.324  -4.442 -25.046  0.00  0.00    +0.097 C 
BRANCH  18  22
ATOM     22  C   UNL     1      31.069  -2.796 -23.642  0.00  0.00    +0.109 C 
ATOM     23  C   UNL     1      32.108  -1.786 -23.093  0.00  0.00    +0.034 C 
ATOM     24  C   UNL     1      30.422  -2.211 -24.923  0.00  0.00    +0.034 C 
BRANCH  22  25
ATOM     25  O   UNL     1      30.008  -2.829 -22.657  0.00  0.00    -0.383 OA
ATOM     26  H   UNL     1      30.394  -2.872 -21.768  0.00  0.00    +0.211 HD
ENDBRANCH  22  25
ENDBRANCH  18  22
ENDBRANCH  12  17
BRANCH   2  27
ATOM     27  C   UNL     1      32.751 -11.344 -24.367  0.00  0.00    +0.140 C 
BRANCH  27  28
ATOM     28  C   UNL     1      34.228 -11.301 -24.745  0.00  0.00    +0.138 C 
ATOM     29  C   UNL     1      34.838  -9.943 -24.422  0.00  0.00    +0.034 C 
BRANCH  28  30
ATOM     30  O   UNL     1      34.345 -11.534 -26.147  0.00  0.00    -0.352 OA
ATOM     31  C   UNL     1      33.469 -12.565 -26.574  0.00  0.00    +0.174 C 
ENDBRANCH  28  30
ENDBRANCH  27  28
ENDBRANCH   2  27
TORSDOF 6
ENDMDL
MODEL 7
REMARK VINA RESULT:      -9.1      2.664      4.928
REMARK  Name = 57519748
REMARK  6 active torsions:
REMARK  status: ('A' for Active; 'I' for Inactive)
REMARK    1  A    between atoms: N_2  and  C_27
REMARK    2  A    between atoms: C_12  and  C_17
REMARK    3  A    between atoms: C_18  and  C_22
REMARK    4  A    between atoms: C_22  and  O_25
REMARK    5  A    between atoms: C_27  and  C_28
REMARK    6  A    between atoms: C_28  and  O_30
REMARK                            x       y       z     vdW  Elec       q    Type
REMARK                         _______ _______ _______ _____ _____    ______ ____
ROOT
ATOM      1  O   UNL     1      34.188 -14.045 -26.923  0.00  0.00    -0.246 OA
ATOM      2  N   UNL     1      33.480 -12.742 -25.063  0.00  0.00    -0.277 N 
ATOM      3  N   UNL     1      33.572 -14.997 -24.847  0.00  0.00    -0.276 N 
ATOM      4  N   UNL     1      32.387 -14.357 -21.395  0.00  0.00    -0.242 NA
ATOM      5  C   UNL     1      33.069 -13.063 -23.746  0.00  0.00    +0.083 A 
ATOM      6  C   UNL     1      33.134 -14.450 -23.636  0.00  0.00    +0.099 A 
ATOM      7  C   UNL     1      32.653 -12.281 -22.656  0.00  0.00    +0.035 C 
ATOM      8  C   UNL     1      33.799 -13.944 -25.766  0.00  0.00    +0.332 A 
ATOM      9  C   UNL     1      32.319 -13.007 -21.482  0.00  0.00    +0.083 C 
ATOM     10  C   UNL     1      32.544 -10.870 -22.633  0.00  0.00    +0.003 C 
ATOM     11  C   UNL     1      32.792 -15.067 -22.466  0.00  0.00    +0.118 C 
ATOM     12  C   UNL     1      32.119 -10.195 -21.490  0.00  0.00    +0.002 C 
ATOM     13  C   UNL     1      33.760 -16.400 -25.114  0.00  0.00    +0.135 C 
ATOM     14  C   UNL     1      31.897 -12.304 -20.358  0.00  0.00    +0.019 C 
ATOM     15  C   UNL     1      31.795 -10.913 -20.351  0.00  0.00    +0.002 C 
ENDROOT
BRANCH  12  17
ATOM     16  N   UNL     1      31.960  -6.684 -20.240  0.00  0.00    -0.243 NA
ATOM     17  C   UNL     1      32.016  -8.752 -21.492  0.00  0.00    +0.019 C 
ATOM     18  C   UNL     1      31.786  -6.657 -22.651  0.00  0.00    +0.021 C 
ATOM     19  C   UNL     1      31.882  -8.043 -22.681  0.00  0.00    +0.001 C 
ATOM     20  C   UNL     1      32.050  -8.031 -20.309  0.00  0.00    +0.099 C 
ATOM     21  C   UNL     1      31.830  -6.030 -21.416  0.00  0.00    +0.097 C 
BRANCH  18  22
ATOM     22  C   UNL     1      31.643  -5.871 -23.905  0.00  0.00    +0.109 C 
ATOM     23  C   UNL     1      31.261  -4.395 -23.633  0.00  0.00    +0.034 C 
ATOM     24  C   UNL     1      32.924  -5.911 -24.775  0.00  0.00    +0.034 C 
BRANCH  22  25
ATOM     25  O   UNL     1      30.589  -6.392 -24.750  0.00  0.00    -0.383 OA
ATOM     26  H   UNL     1      30.939  -6.551 -25.641  0.00  0.00    +0.211 HD
ENDBRANCH  22  25
ENDBRANCH  18  22
ENDBRANCH  12  17
BRANCH   2  27
ATOM     27  C   UNL     1      33.564 -11.414 -25.608  0.00  0.00    +0.140 C 
BRANCH  27  28
ATOM     28  C   UNL     1      34.944 -10.804 -25.380  0.00  0.00    +0.138 C 
ATOM     29  C   UNL     1      34.880  -9.661 -24.375  0.00  0.00    +0.034 C 
BRANCH  28  30
ATOM     30  O   UNL     1      35.427 -10.296 -26.621  0.00  0.00    -0.352 OA
ATOM     31  C   UNL     1      35.694 -11.344 -27.540  0.00  0.00    +0.174 C 
ENDBRANCH  28  30
ENDBRANCH  27  28
ENDBRANCH   2  27
TORSDOF 6
ENDMDL
MODEL 8
REMARK VINA RESULT:      -8.5      1.562      2.096
REMARK  Name = 57519748
REMARK  6 active torsions:
REMARK  status: ('A' for Active; 'I' for Inactive)
REMARK    1  A    between atoms: N_2  and  C_27
REMARK    2  A    between atoms: C_12  and  C_17
REMARK    3  A    between atoms: C_18  and  C_22
REMARK    4  A    between atoms: C_22  and  O_25
REMARK    5  A    between atoms: C_27  and  C_28
REMARK    6  A    between atoms: C_28  and  O_30
REMARK                            x       y       z     vdW  Elec       q    Type
REMARK                         _______ _______ _______ _____ _____    ______ ____
ROOT
ATOM      1  O   UNL     1      35.258 -18.014 -20.874  0.00  0.00    -0.246 OA
ATOM      2  N   UNL     1      34.516 -16.033 -21.963  0.00  0.00    -0.277 N 
ATOM      3  N   UNL     1      35.066 -17.835 -23.224  0.00  0.00    -0.276 N 
ATOM      4  N   UNL     1      34.157 -15.662 -26.085  0.00  0.00    -0.242 NA
ATOM      5  C   UNL     1      34.319 -15.681 -23.321  0.00  0.00    +0.083 A 
ATOM      6  C   UNL     1      34.661 -16.801 -24.076  0.00  0.00    +0.099 A 
ATOM      7  C   UNL     1      33.879 -14.506 -23.951  0.00  0.00    +0.035 C 
ATOM      8  C   UNL     1      34.984 -17.381 -21.886  0.00  0.00    +0.332 A 
ATOM      9  C   UNL     1      33.819 -14.564 -25.369  0.00  0.00    +0.083 C 
ATOM     10  C   UNL     1      33.501 -13.303 -23.306  0.00  0.00    +0.003 C 
ATOM     11  C   UNL     1      34.574 -16.768 -25.438  0.00  0.00    +0.118 C 
ATOM     12  C   UNL     1      33.078 -12.194 -24.034  0.00  0.00    +0.002 C 
ATOM     13  C   UNL     1      35.494 -19.146 -23.642  0.00  0.00    +0.135 C 
ATOM     14  C   UNL     1      33.393 -13.439 -26.067  0.00  0.00    +0.019 C 
ATOM     15  C   UNL     1      33.023 -12.261 -25.417  0.00  0.00    +0.002 C 
ENDROOT
BRANCH  12  17
ATOM     16  N   UNL     1      31.582  -9.915 -21.487  0.00  0.00    -0.243 NA
ATOM     17  C   UNL     1      32.696 -10.976 -23.352  0.00  0.00    +0.019 C 
ATOM     18  C   UNL     1      32.673  -8.577 -23.179  0.00  0.00    +0.021 C 
ATOM     19  C   UNL     1      33.052  -9.730 -23.857  0.00  0.00    +0.001 C 
ATOM     20  C   UNL     1      31.968 -11.013 -22.175  0.00  0.00    +0.099 C 
ATOM     21  C   UNL     1      31.945  -8.723 -22.009  0.00  0.00    +0.097 C 
BRANCH  18  22
ATOM     22  C   UNL     1      33.039  -7.230 -23.693  0.00  0.00    +0.109 C 
ATOM     23  C   UNL     1      32.688  -6.104 -22.689  0.00  0.00    +0.034 C 
ATOM     24  C   UNL     1      34.540  -7.128 -24.064  0.00  0.00    +0.034 C 
BRANCH  22  25
ATOM     25  O   UNL     1      32.320  -6.902 -24.905  0.00  0.00    -0.383 OA
ATOM     26  H   UNL     1      32.697  -7.398 -25.649  0.00  0.00    +0.211 HD
ENDBRANCH  22  25
ENDBRANCH  18  22
ENDBRANCH  12  17
BRANCH   2  27
ATOM     27  C   UNL     1      34.282 -15.169 -20.837  0.00  0.00    +0.140 C 
BRANCH  27  28
ATOM     28  C   UNL     1      32.796 -14.881 -20.657  0.00  0.00    +0.138 C 
ATOM     29  C   UNL     1      32.576 -13.540 -19.968  0.00  0.00    +0.034 C 
BRANCH  28  30
ATOM     30  O   UNL     1      32.229 -15.909 -19.847  0.00  0.00    -0.352 OA
ATOM     31  C   UNL     1      31.568 -16.885 -20.638  0.00  0.00    +0.174 C 
ENDBRANCH  28  30
ENDBRANCH  27  28
ENDBRANCH   2  27
TORSDOF 6
ENDMDL
MODEL 9
REMARK VINA RESULT:      -8.4      8.744     12.746
REMARK  Name = 57519748
REMARK  6 active torsions:
REMARK  status: ('A' for Active; 'I' for Inactive)
REMARK    1  A    between atoms: N_2  and  C_27
REMARK    2  A    between atoms: C_12  and  C_17
REMARK    3  A    between atoms: C_18  and  C_22
REMARK    4  A    between atoms: C_22  and  O_25
REMARK    5  A    between atoms: C_27  and  C_28
REMARK    6  A    between atoms: C_28  and  O_30
REMARK                            x       y       z     vdW  Elec       q    Type
REMARK                         _______ _______ _______ _____ _____    ______ ____
ROOT
ATOM      1  O   UNL     1      37.927 -24.232 -11.815  0.00  0.00    -0.246 OA
ATOM      2  N   UNL     1      36.725 -23.609 -13.771  0.00  0.00    -0.277 N 
ATOM      3  N   UNL     1      35.598 -24.564 -12.052  0.00  0.00    -0.276 N 
ATOM      4  N   UNL     1      32.636 -24.166 -14.244  0.00  0.00    -0.242 NA
ATOM      5  C   UNL     1      35.364 -23.698 -14.150  0.00  0.00    +0.083 A 
ATOM      6  C   UNL     1      34.691 -24.286 -13.081  0.00  0.00    +0.099 A 
ATOM      7  C   UNL     1      34.666 -23.324 -15.310  0.00  0.00    +0.035 C 
ATOM      8  C   UNL     1      36.889 -24.147 -12.457  0.00  0.00    +0.332 A 
ATOM      9  C   UNL     1      33.271 -23.592 -15.292  0.00  0.00    +0.083 C 
ATOM     10  C   UNL     1      35.225 -22.721 -16.462  0.00  0.00    +0.003 C 
ATOM     11  C   UNL     1      33.345 -24.508 -13.149  0.00  0.00    +0.118 C 
ATOM     12  C   UNL     1      34.435 -22.390 -17.561  0.00  0.00    +0.002 C 
ATOM     13  C   UNL     1      35.271 -25.174 -10.788  0.00  0.00    +0.135 C 
ATOM     14  C   UNL     1      32.511 -23.251 -16.405  0.00  0.00    +0.019 C 
ATOM     15  C   UNL     1      33.076 -22.656 -17.533  0.00  0.00    +0.002 C 
ENDROOT
BRANCH  12  17
ATOM     16  N   UNL     1      36.972 -21.449 -20.129  0.00  0.00    -0.243 NA
ATOM     17  C   UNL     1      35.029 -21.773 -18.728  0.00  0.00    +0.019 C 
ATOM     18  C   UNL     1      34.881 -20.366 -20.673  0.00  0.00    +0.021 C 
ATOM     19  C   UNL     1      34.283 -20.944 -19.559  0.00  0.00    +0.001 C 
ATOM     20  C   UNL     1      36.357 -21.992 -19.054  0.00  0.00    +0.099 C 
ATOM     21  C   UNL     1      36.216 -20.648 -20.912  0.00  0.00    +0.097 C 
BRANCH  18  22
ATOM     22  C   UNL     1      34.110 -19.475 -21.581  0.00  0.00    +0.109 C 
ATOM     23  C   UNL     1      34.093 -18.007 -21.088  0.00  0.00    +0.034 C 
ATOM     24  C   UNL     1      34.641 -19.515 -23.036  0.00  0.00    +0.034 C 
BRANCH  22  25
ATOM     25  O   UNL     1      32.720 -19.868 -21.669  0.00  0.00    -0.383 OA
ATOM     26  H   UNL     1      32.582 -20.392 -22.474  0.00  0.00    +0.211 HD
ENDBRANCH  22  25
ENDBRANCH  18  22
ENDBRANCH  12  17
BRANCH   2  27
ATOM     27  C   UNL     1      37.780 -23.060 -14.581  0.00  0.00    +0.140 C 
BRANCH  27  28
ATOM     28  C   UNL     1      38.510 -24.151 -15.357  0.00  0.00    +0.138 C 
ATOM     29  C   UNL     1      37.800 -25.492 -15.220  0.00  0.00    +0.034 C 
BRANCH  28  30
ATOM     30  O   UNL     1      39.830 -24.277 -14.831  0.00  0.00    -0.352 OA
ATOM     31  C   UNL     1      40.088 -25.602 -14.395  0.00  0.00    +0.174 C 
ENDBRANCH  28  30
ENDBRANCH  27  28
ENDBRANCH   2  27
TORSDOF 6
ENDMDL
