MODEL 1
REMARK VINA RESULT:      -7.2      0.000      0.000
REMARK  Name = 10100
REMARK  9 active torsions:
REMARK  status: ('A' for Active; 'I' for Inactive)
REMARK    1  A    between atoms: C_1  and  C_2
REMARK    2  A    between atoms: C_1  and  C_8
REMARK    3  A    between atoms: C_1  and  O_15
REMARK    4  A    between atoms: C_1  and  C_20
REMARK    5  A    between atoms: C_8  and  C_10
REMARK    6  A    between atoms: C_10  and  N_11
REMARK    7  A    between atoms: O_15  and  C_17
REMARK    8  A    between atoms: C_17  and  C_18
REMARK    9  A    between atoms: C_20  and  C_21
REMARK                            x       y       z     vdW  Elec       q    Type
REMARK                         _______ _______ _______ _____ _____    ______ ____
ROOT
ATOM      1  C   UNL     1      35.419 -24.081 -14.566  0.00  0.00    +0.156 C 
ENDROOT
BRANCH   1   2
ATOM      2  C   UNL     1      35.828 -23.890 -13.095  0.00  0.00    +0.014 C 
ATOM      3  C   UNL     1      36.745 -22.915 -12.796  0.00  0.00    -0.001 C 
ATOM      4  C   UNL     1      35.257 -24.705 -12.150  0.00  0.00    -0.001 C 
ATOM      5  C   UNL     1      37.115 -22.743 -11.462  0.00  0.00    -0.000 C 
ATOM      6  C   UNL     1      35.627 -24.534 -10.817  0.00  0.00    -0.000 C 
ATOM      7  C   UNL     1      36.557 -23.553 -10.473  0.00  0.00    -0.000 C 
ENDBRANCH   1   2
BRANCH   1   8
ATOM      8  C   UNL     1      36.578 -24.790 -15.379  0.00  0.00    +0.020 C 
ATOM      9  C   UNL     1      36.419 -26.322 -15.431  0.00  0.00    +0.002 C 
BRANCH   8  10
ATOM     10  C   UNL     1      37.975 -24.423 -14.807  0.00  0.00    -0.074 C 
BRANCH  10  11
ATOM     11  N   UNL     1      38.780 -25.598 -14.475  0.00  0.00    +0.384 N 
ATOM     12  C   UNL     1      38.910 -25.736 -13.025  0.00  0.00    -0.101 C 
ATOM     13  C   UNL     1      40.099 -25.507 -15.100  0.00  0.00    -0.101 C 
ATOM     14  H   UNL     1      38.306 -26.424 -14.838  0.00  0.00    -0.080 HD
ENDBRANCH  10  11
ENDBRANCH   8  10
ENDBRANCH   1   8
BRANCH   1  15
ATOM     15  O   UNL     1      35.201 -22.801 -15.179  0.00  0.00    -0.451 OA
BRANCH  15  17
ATOM     16  O   UNL     1      34.845 -23.286 -17.407  0.00  0.00    -0.250 OA
ATOM     17  C   UNL     1      35.478 -22.739 -16.514  0.00  0.00    +0.317 C 
BRANCH  17  18
ATOM     18  C   UNL     1      36.703 -21.877 -16.715  0.00  0.00    +0.110 C 
ATOM     19  C   UNL     1      36.832 -21.394 -18.150  0.00  0.00    +0.012 C 
ENDBRANCH  17  18
ENDBRANCH  15  17
ENDBRANCH   1  15
BRANCH   1  20
ATOM     20  C   UNL     1      34.080 -24.881 -14.650  0.00  0.00    +0.071 C 
BRANCH  20  21
ATOM     21  C   UNL     1      32.818 -24.043 -14.710  0.00  0.00    -0.018 C 
ATOM     22  C   UNL     1      32.291 -23.535 -13.537  0.00  0.00    -0.004 C 
ATOM     23  C   UNL     1      32.226 -23.807 -15.937  0.00  0.00    -0.004 C 
ATOM     24  C   UNL     1      31.130 -22.764 -13.594  0.00  0.00    -0.000 C 
ATOM     25  C   UNL     1      31.065 -23.034 -15.993  0.00  0.00    -0.000 C 
ATOM     26  C   UNL     1      30.517 -22.514 -14.821  0.00  0.00    -0.000 C 
ENDBRANCH  20  21
ENDBRANCH   1  20
TORSDOF 9
ENDMDL
MODEL 2
REMARK VINA RESULT:      -6.7     14.591     17.475
REMARK  Name = 10100
REMARK  9 active torsions:
REMARK  status: ('A' for Active; 'I' for Inactive)
REMARK    1  A    between atoms: C_1  and  C_2
REMARK    2  A    between atoms: C_1  and  C_8
REMARK    3  A    between atoms: C_1  and  O_15
REMARK    4  A    between atoms: C_1  and  C_20
REMARK    5  A    between atoms: C_8  and  C_10
REMARK    6  A    between atoms: C_10  and  N_11
REMARK    7  A    between atoms: O_15  and  C_17
REMARK    8  A    between atoms: C_17  and  C_18
REMARK    9  A    between atoms: C_20  and  C_21
REMARK                            x       y       z     vdW  Elec       q    Type
REMARK                         _______ _______ _______ _____ _____    ______ ____
ROOT
ATOM      1  C   UNL     1      32.653  -9.390 -22.993  0.00  0.00    +0.156 C 
ENDROOT
BRANCH   1   2
ATOM      2  C   UNL     1      31.997  -9.913 -21.704  0.00  0.00    +0.014 C 
ATOM      3  C   UNL     1      30.983 -10.830 -21.815  0.00  0.00    -0.001 C 
ATOM      4  C   UNL     1      32.457  -9.438 -20.501  0.00  0.00    -0.001 C 
ATOM      5  C   UNL     1      30.388 -11.303 -20.645  0.00  0.00    -0.000 C 
ATOM      6  C   UNL     1      31.863  -9.912 -19.332  0.00  0.00    -0.000 C 
ATOM      7  C   UNL     1      30.828 -10.844 -19.403  0.00  0.00    -0.000 C 
ENDBRANCH   1   2
BRANCH   1   8
ATOM      8  C   UNL     1      33.378 -10.566 -23.767  0.00  0.00    +0.020 C 
ATOM      9  C   UNL     1      33.043 -10.586 -25.271  0.00  0.00    +0.002 C 
BRANCH   8  10
ATOM     10  C   UNL     1      33.046 -11.947 -23.135  0.00  0.00    -0.074 C 
BRANCH  10  11
ATOM     11  N   UNL     1      33.912 -13.019 -23.624  0.00  0.00    +0.384 N 
ATOM     12  C   UNL     1      33.258 -13.749 -24.709  0.00  0.00    -0.101 C 
ATOM     13  C   UNL     1      34.264 -13.929 -22.535  0.00  0.00    -0.101 C 
ATOM     14  H   UNL     1      34.768 -12.600 -23.985  0.00  0.00    -0.080 HD
ENDBRANCH  10  11
ENDBRANCH   8  10
ENDBRANCH   1   8
BRANCH   1  15
ATOM     15  O   UNL     1      33.661  -8.422 -22.666  0.00  0.00    -0.451 OA
BRANCH  15  17
ATOM     16  O   UNL     1      35.371  -9.227 -23.991  0.00  0.00    -0.250 OA
ATOM     17  C   UNL     1      34.678  -8.311 -23.569  0.00  0.00    +0.317 C 
BRANCH  17  18
ATOM     18  C   UNL     1      34.811  -6.860 -23.972  0.00  0.00    +0.110 C 
ATOM     19  C   UNL     1      34.606  -6.660 -25.464  0.00  0.00    +0.012 C 
ENDBRANCH  17  18
ENDBRANCH  15  17
ENDBRANCH   1  15
BRANCH   1  20
ATOM     20  C   UNL     1      31.585  -8.681 -23.887  0.00  0.00    +0.071 C 
BRANCH  20  21
ATOM     21  C   UNL     1      31.352  -7.213 -23.590  0.00  0.00    -0.018 C 
ATOM     22  C   UNL     1      31.296  -6.315 -24.640  0.00  0.00    -0.004 C 
ATOM     23  C   UNL     1      31.202  -6.808 -22.276  0.00  0.00    -0.004 C 
ATOM     24  C   UNL     1      31.080  -4.964 -24.366  0.00  0.00    -0.000 C 
ATOM     25  C   UNL     1      30.986  -5.457 -22.003  0.00  0.00    -0.000 C 
ATOM     26  C   UNL     1      30.926  -4.536 -23.048  0.00  0.00    -0.000 C 
ENDBRANCH  20  21
ENDBRANCH   1  20
TORSDOF 9
ENDMDL
MODEL 3
REMARK VINA RESULT:      -6.3      1.866      4.463
REMARK  Name = 10100
REMARK  9 active torsions:
REMARK  status: ('A' for Active; 'I' for Inactive)
REMARK    1  A    between atoms: C_1  and  C_2
REMARK    2  A    between atoms: C_1  and  C_8
REMARK    3  A    between atoms: C_1  and  O_15
REMARK    4  A    between atoms: C_1  and  C_20
REMARK    5  A    between atoms: C_8  and  C_10
REMARK    6  A    between atoms: C_10  and  N_11
REMARK    7  A    between atoms: O_15  and  C_17
REMARK    8  A    between atoms: C_17  and  C_18
REMARK    9  A    between atoms: C_20  and  C_21
REMARK                            x       y       z     vdW  Elec       q    Type
REMARK                         _______ _______ _______ _____ _____    ______ ____
ROOT
ATOM      1  C   UNL     1      35.894 -23.642 -15.491  0.00  0.00    +0.156 C 
ENDROOT
BRANCH   1   2
ATOM      2  C   UNL     1      36.954 -24.683 -15.091  0.00  0.00    +0.014 C 
ATOM      3  C   UNL     1      36.528 -25.916 -14.669  0.00  0.00    -0.001 C 
ATOM      4  C   UNL     1      38.277 -24.328 -15.173  0.00  0.00    -0.001 C 
ATOM      5  C   UNL     1      37.490 -26.859 -14.305  0.00  0.00    -0.000 C 
ATOM      6  C   UNL     1      39.239 -25.270 -14.810  0.00  0.00    -0.000 C 
ATOM      7  C   UNL     1      38.846 -26.536 -14.375  0.00  0.00    -0.000 C 
ENDBRANCH   1   2
BRANCH   1   8
ATOM      8  C   UNL     1      36.454 -22.682 -16.619  0.00  0.00    +0.020 C 
ATOM      9  C   UNL     1      37.382 -21.585 -16.061  0.00  0.00    +0.002 C 
BRANCH   8  10
ATOM     10  C   UNL     1      35.300 -22.033 -17.433  0.00  0.00    -0.074 C 
BRANCH  10  11
ATOM     11  N   UNL     1      35.407 -22.281 -18.869  0.00  0.00    +0.384 N 
ATOM     12  C   UNL     1      36.142 -21.198 -19.522  0.00  0.00    -0.101 C 
ATOM     13  C   UNL     1      34.079 -22.428 -19.463  0.00  0.00    -0.101 C 
ATOM     14  H   UNL     1      35.922 -23.150 -19.007  0.00  0.00    -0.080 HD
ENDBRANCH  10  11
ENDBRANCH   8  10
ENDBRANCH   1   8
BRANCH   1  15
ATOM     15  O   UNL     1      35.573 -22.817 -14.362  0.00  0.00    -0.451 OA
BRANCH  15  17
ATOM     16  O   UNL     1      37.408 -22.896 -12.964  0.00  0.00    -0.250 OA
ATOM     17  C   UNL     1      36.231 -23.127 -13.207  0.00  0.00    +0.317 C 
BRANCH  17  18
ATOM     18  C   UNL     1      35.263 -23.806 -12.266  0.00  0.00    +0.110 C 
ATOM     19  C   UNL     1      35.979 -24.607 -11.192  0.00  0.00    +0.012 C 
ENDBRANCH  17  18
ENDBRANCH  15  17
ENDBRANCH   1  15
BRANCH   1  20
ATOM     20  C   UNL     1      34.582 -24.361 -15.942  0.00  0.00    +0.071 C 
BRANCH  20  21
ATOM     21  C   UNL     1      33.354 -24.073 -15.101  0.00  0.00    -0.018 C 
ATOM     22  C   UNL     1      32.700 -22.865 -15.257  0.00  0.00    -0.004 C 
ATOM     23  C   UNL     1      32.919 -25.025 -14.198  0.00  0.00    -0.004 C 
ATOM     24  C   UNL     1      31.570 -22.600 -14.483  0.00  0.00    -0.000 C 
ATOM     25  C   UNL     1      31.788 -24.760 -13.424  0.00  0.00    -0.000 C 
ATOM     26  C   UNL     1      31.114 -23.548 -13.567  0.00  0.00    -0.000 C 
ENDBRANCH  20  21
ENDBRANCH   1  20
TORSDOF 9
ENDMDL
MODEL 4
REMARK VINA RESULT:      -6.2      2.012      4.888
REMARK  Name = 10100
REMARK  9 active torsions:
REMARK  status: ('A' for Active; 'I' for Inactive)
REMARK    1  A    between atoms: C_1  and  C_2
REMARK    2  A    between atoms: C_1  and  C_8
REMARK    3  A    between atoms: C_1  and  O_15
REMARK    4  A    between atoms: C_1  and  C_20
REMARK    5  A    between atoms: C_8  and  C_10
REMARK    6  A    between atoms: C_10  and  N_11
REMARK    7  A    between atoms: O_15  and  C_17
REMARK    8  A    between atoms: C_17  and  C_18
REMARK    9  A    between atoms: C_20  and  C_21
REMARK                            x       y       z     vdW  Elec       q    Type
REMARK                         _______ _______ _______ _____ _____    ______ ____
ROOT
ATOM      1  C   UNL     1      35.491 -23.678 -14.885  0.00  0.00    +0.156 C 
ENDROOT
BRANCH   1   2
ATOM      2  C   UNL     1      35.974 -23.675 -13.424  0.00  0.00    +0.014 C 
ATOM      3  C   UNL     1      35.333 -24.490 -12.526  0.00  0.00    -0.001 C 
ATOM      4  C   UNL     1      37.022 -22.857 -13.087  0.00  0.00    -0.001 C 
ATOM      5  C   UNL     1      35.771 -24.487 -11.201  0.00  0.00    -0.000 C 
ATOM      6  C   UNL     1      37.460 -22.853 -11.763  0.00  0.00    -0.000 C 
ATOM      7  C   UNL     1      36.834 -23.668 -10.820  0.00  0.00    -0.000 C 
ENDBRANCH   1   2
BRANCH   1   8
ATOM      8  C   UNL     1      34.072 -24.370 -15.002  0.00  0.00    +0.020 C 
ATOM      9  C   UNL     1      33.768 -24.870 -16.428  0.00  0.00    +0.002 C 
BRANCH   8  10
ATOM     10  C   UNL     1      32.939 -23.421 -14.523  0.00  0.00    -0.074 C 
BRANCH  10  11
ATOM     11  N   UNL     1      31.604 -23.979 -14.730  0.00  0.00    +0.384 N 
ATOM     12  C   UNL     1      30.605 -22.912 -14.781  0.00  0.00    -0.101 C 
ATOM     13  C   UNL     1      31.278 -24.933 -13.670  0.00  0.00    -0.101 C 
ATOM     14  H   UNL     1      31.597 -24.472 -15.622  0.00  0.00    -0.080 HD
ENDBRANCH  10  11
ENDBRANCH   8  10
ENDBRANCH   1   8
BRANCH   1  15
ATOM     15  O   UNL     1      36.397 -24.443 -15.694  0.00  0.00    -0.451 OA
BRANCH  15  17
ATOM     16  O   UNL     1      36.423 -26.545 -14.740  0.00  0.00    -0.250 OA
ATOM     17  C   UNL     1      36.981 -25.506 -15.069  0.00  0.00    +0.317 C 
BRANCH  17  18
ATOM     18  C   UNL     1      38.443 -25.195 -14.847  0.00  0.00    +0.110 C 
ATOM     19  C   UNL     1      38.976 -25.830 -13.574  0.00  0.00    +0.012 C 
ENDBRANCH  17  18
ENDBRANCH  15  17
ENDBRANCH   1  15
BRANCH   1  20
ATOM     20  C   UNL     1      35.472 -22.219 -15.445  0.00  0.00    +0.071 C 
BRANCH  20  21
ATOM     21  C   UNL     1      35.574 -22.094 -16.952  0.00  0.00    -0.018 C 
ATOM     22  C   UNL     1      34.467 -22.387 -17.727  0.00  0.00    -0.004 C 
ATOM     23  C   UNL     1      36.771 -21.690 -17.513  0.00  0.00    -0.004 C 
ATOM     24  C   UNL     1      34.561 -22.271 -19.114  0.00  0.00    -0.000 C 
ATOM     25  C   UNL     1      36.864 -21.573 -18.901  0.00  0.00    -0.000 C 
ATOM     26  C   UNL     1      35.760 -21.864 -19.701  0.00  0.00    -0.000 C 
ENDBRANCH  20  21
ENDBRANCH   1  20
TORSDOF 9
ENDMDL
MODEL 5
REMARK VINA RESULT:      -6.2      2.032      6.280
REMARK  Name = 10100
REMARK  9 active torsions:
REMARK  status: ('A' for Active; 'I' for Inactive)
REMARK    1  A    between atoms: C_1  and  C_2
REMARK    2  A    between atoms: C_1  and  C_8
REMARK    3  A    between atoms: C_1  and  O_15
REMARK    4  A    between atoms: C_1  and  C_20
REMARK    5  A    between atoms: C_8  and  C_10
REMARK    6  A    between atoms: C_10  and  N_11
REMARK    7  A    between atoms: O_15  and  C_17
REMARK    8  A    between atoms: C_17  and  C_18
REMARK    9  A    between atoms: C_20  and  C_21
REMARK                            x       y       z     vdW  Elec       q    Type
REMARK                         _______ _______ _______ _____ _____    ______ ____
ROOT
ATOM      1  C   UNL     1      35.128 -23.856 -14.587  0.00  0.00    +0.156 C 
ENDROOT
BRANCH   1   2
ATOM      2  C   UNL     1      35.351 -23.112 -15.915  0.00  0.00    +0.014 C 
ATOM      3  C   UNL     1      34.497 -23.369 -16.957  0.00  0.00    -0.001 C 
ATOM      4  C   UNL     1      36.396 -22.226 -15.997  0.00  0.00    -0.001 C 
ATOM      5  C   UNL     1      34.700 -22.694 -18.161  0.00  0.00    -0.000 C 
ATOM      6  C   UNL     1      36.600 -21.551 -17.200  0.00  0.00    -0.000 C 
ATOM      7  C   UNL     1      35.752 -21.786 -18.283  0.00  0.00    -0.000 C 
ENDBRANCH   1   2
BRANCH   1   8
ATOM      8  C   UNL     1      33.589 -23.880 -14.214  0.00  0.00    +0.020 C 
ATOM      9  C   UNL     1      32.953 -25.272 -14.398  0.00  0.00    +0.002 C 
BRANCH   8  10
ATOM     10  C   UNL     1      32.793 -22.825 -15.030  0.00  0.00    -0.074 C 
BRANCH  10  11
ATOM     11  N   UNL     1      31.413 -23.229 -15.290  0.00  0.00    +0.384 N 
ATOM     12  C   UNL     1      31.003 -22.816 -16.632  0.00  0.00    -0.101 C 
ATOM     13  C   UNL     1      30.515 -22.663 -14.284  0.00  0.00    -0.101 C 
ATOM     14  H   UNL     1      31.361 -24.246 -15.235  0.00  0.00    -0.080 HD
ENDBRANCH  10  11
ENDBRANCH   8  10
ENDBRANCH   1   8
BRANCH   1  15
ATOM     15  O   UNL     1      35.804 -23.167 -13.525  0.00  0.00    -0.451 OA
BRANCH  15  17
ATOM     16  O   UNL     1      34.476 -24.160 -11.921  0.00  0.00    -0.250 OA
ATOM     17  C   UNL     1      35.508 -23.601 -12.266  0.00  0.00    +0.317 C 
BRANCH  17  18
ATOM     18  C   UNL     1      36.671 -23.279 -11.357  0.00  0.00    +0.110 C 
ATOM     19  C   UNL     1      37.834 -22.660 -12.113  0.00  0.00    +0.012 C 
ENDBRANCH  17  18
ENDBRANCH  15  17
ENDBRANCH   1  15
BRANCH   1  20
ATOM     20  C   UNL     1      35.725 -25.297 -14.674  0.00  0.00    +0.071 C 
BRANCH  20  21
ATOM     21  C   UNL     1      37.211 -25.409 -14.396  0.00  0.00    -0.018 C 
ATOM     22  C   UNL     1      37.633 -26.060 -13.251  0.00  0.00    -0.004 C 
ATOM     23  C   UNL     1      38.107 -24.857 -15.293  0.00  0.00    -0.004 C 
ATOM     24  C   UNL     1      39.001 -26.163 -12.996  0.00  0.00    -0.000 C 
ATOM     25  C   UNL     1      39.475 -24.961 -15.038  0.00  0.00    -0.000 C 
ATOM     26  C   UNL     1      39.921 -25.613 -13.889  0.00  0.00    -0.000 C 
ENDBRANCH  20  21
ENDBRANCH   1  20
TORSDOF 9
ENDMDL
MODEL 6
REMARK VINA RESULT:      -6.1     14.104     17.459
REMARK  Name = 10100
REMARK  9 active torsions:
REMARK  status: ('A' for Active; 'I' for Inactive)
REMARK    1  A    between atoms: C_1  and  C_2
REMARK    2  A    between atoms: C_1  and  C_8
REMARK    3  A    between atoms: C_1  and  O_15
REMARK    4  A    between atoms: C_1  and  C_20
REMARK    5  A    between atoms: C_8  and  C_10
REMARK    6  A    between atoms: C_10  and  N_11
REMARK    7  A    between atoms: O_15  and  C_17
REMARK    8  A    between atoms: C_17  and  C_18
REMARK    9  A    between atoms: C_20  and  C_21
REMARK                            x       y       z     vdW  Elec       q    Type
REMARK                         _______ _______ _______ _____ _____    ______ ____
ROOT
ATOM      1  C   UNL     1      32.346  -9.574 -22.695  0.00  0.00    +0.156 C 
ENDROOT
BRANCH   1   2
ATOM      2  C   UNL     1      33.353  -9.972 -23.787  0.00  0.00    +0.014 C 
ATOM      3  C   UNL     1      34.563  -9.327 -23.822  0.00  0.00    -0.001 C 
ATOM      4  C   UNL     1      32.995 -10.953 -24.677  0.00  0.00    -0.001 C 
ATOM      5  C   UNL     1      35.476  -9.688 -24.813  0.00  0.00    -0.000 C 
ATOM      6  C   UNL     1      33.907 -11.314 -25.667  0.00  0.00    -0.000 C 
ATOM      7  C   UNL     1      35.148 -10.681 -25.736  0.00  0.00    -0.000 C 
ENDBRANCH   1   2
BRANCH   1   8
ATOM      8  C   UNL     1      31.665  -8.187 -23.043  0.00  0.00    +0.020 C 
ATOM      9  C   UNL     1      30.388  -8.346 -23.892  0.00  0.00    +0.002 C 
BRANCH   8  10
ATOM     10  C   UNL     1      32.660  -7.234 -23.762  0.00  0.00    -0.074 C 
BRANCH  10  11
ATOM     11  N   UNL     1      31.994  -6.129 -24.449  0.00  0.00    +0.384 N 
ATOM     12  C   UNL     1      32.865  -5.569 -25.482  0.00  0.00    -0.101 C 
ATOM     13  C   UNL     1      31.603  -5.094 -23.494  0.00  0.00    -0.101 C 
ATOM     14  H   UNL     1      31.152  -6.491 -24.897  0.00  0.00    -0.080 HD
ENDBRANCH  10  11
ENDBRANCH   8  10
ENDBRANCH   1   8
BRANCH   1  15
ATOM     15  O   UNL     1      33.028  -9.401 -21.444  0.00  0.00    -0.451 OA
BRANCH  15  17
ATOM     16  O   UNL     1      31.349  -9.115 -19.887  0.00  0.00    -0.250 OA
ATOM     17  C   UNL     1      32.335  -8.714 -20.491  0.00  0.00    +0.317 C 
BRANCH  17  18
ATOM     18  C   UNL     1      32.986  -7.364 -20.296  0.00  0.00    +0.110 C 
ATOM     19  C   UNL     1      31.963  -6.246 -20.192  0.00  0.00    +0.012 C 
ENDBRANCH  17  18
ENDBRANCH  15  17
ENDBRANCH   1  15
BRANCH   1  20
ATOM     20  C   UNL     1      31.287 -10.707 -22.505  0.00  0.00    +0.071 C 
BRANCH  20  21
ATOM     21  C   UNL     1      31.818 -12.015 -21.953  0.00  0.00    -0.018 C 
ATOM     22  C   UNL     1      31.873 -12.194 -20.583  0.00  0.00    -0.004 C 
ATOM     23  C   UNL     1      32.235 -12.996 -22.833  0.00  0.00    -0.004 C 
ATOM     24  C   UNL     1      32.361 -13.398 -20.076  0.00  0.00    -0.000 C 
ATOM     25  C   UNL     1      32.723 -14.201 -22.326  0.00  0.00    -0.000 C 
ATOM     26  C   UNL     1      32.786 -14.401 -20.947  0.00  0.00    -0.000 C 
ENDBRANCH  20  21
ENDBRANCH   1  20
TORSDOF 9
ENDMDL
MODEL 7
REMARK VINA RESULT:      -6.1     14.112     17.515
REMARK  Name = 10100
REMARK  9 active torsions:
REMARK  status: ('A' for Active; 'I' for Inactive)
REMARK    1  A    between atoms: C_1  and  C_2
REMARK    2  A    between atoms: C_1  and  C_8
REMARK    3  A    between atoms: C_1  and  O_15
REMARK    4  A    between atoms: C_1  and  C_20
REMARK    5  A    between atoms: C_8  and  C_10
REMARK    6  A    between atoms: C_10  and  N_11
REMARK    7  A    between atoms: O_15  and  C_17
REMARK    8  A    between atoms: C_17  and  C_18
REMARK    9  A    between atoms: C_20  and  C_21
REMARK                            x       y       z     vdW  Elec       q    Type
REMARK                         _______ _______ _______ _____ _____    ______ ____
ROOT
ATOM      1  C   UNL     1      32.349  -9.566 -22.708  0.00  0.00    +0.156 C 
ENDROOT
BRANCH   1   2
ATOM      2  C   UNL     1      33.355  -9.972 -23.799  0.00  0.00    +0.014 C 
ATOM      3  C   UNL     1      32.989 -10.947 -24.692  0.00  0.00    -0.001 C 
ATOM      4  C   UNL     1      34.573  -9.340 -23.829  0.00  0.00    -0.001 C 
ATOM      5  C   UNL     1      33.902 -11.315 -25.680  0.00  0.00    -0.000 C 
ATOM      6  C   UNL     1      35.486  -9.708 -24.817  0.00  0.00    -0.000 C 
ATOM      7  C   UNL     1      35.150 -10.696 -25.743  0.00  0.00    -0.000 C 
ENDBRANCH   1   2
BRANCH   1   8
ATOM      8  C   UNL     1      31.670  -8.181 -23.064  0.00  0.00    +0.020 C 
ATOM      9  C   UNL     1      30.386  -8.344 -23.901  0.00  0.00    +0.002 C 
BRANCH   8  10
ATOM     10  C   UNL     1      32.662  -7.238 -23.800  0.00  0.00    -0.074 C 
BRANCH  10  11
ATOM     11  N   UNL     1      31.995  -6.129 -24.479  0.00  0.00    +0.384 N 
ATOM     12  C   UNL     1      32.866  -5.559 -25.507  0.00  0.00    -0.101 C 
ATOM     13  C   UNL     1      31.601  -5.101 -23.516  0.00  0.00    -0.101 C 
ATOM     14  H   UNL     1      31.154  -6.488 -24.931  0.00  0.00    -0.080 HD
ENDBRANCH  10  11
ENDBRANCH   8  10
ENDBRANCH   1   8
BRANCH   1  15
ATOM     15  O   UNL     1      33.035  -9.386 -21.460  0.00  0.00    -0.451 OA
BRANCH  15  17
ATOM     16  O   UNL     1      31.354  -9.105 -19.903  0.00  0.00    -0.250 OA
ATOM     17  C   UNL     1      32.339  -8.702 -20.506  0.00  0.00    +0.317 C 
BRANCH  17  18
ATOM     18  C   UNL     1      32.988  -7.351 -20.310  0.00  0.00    +0.110 C 
ATOM     19  C   UNL     1      31.964  -6.233 -20.219  0.00  0.00    +0.012 C 
ENDBRANCH  17  18
ENDBRANCH  15  17
ENDBRANCH   1  15
BRANCH   1  20
ATOM     20  C   UNL     1      31.290 -10.697 -22.510  0.00  0.00    +0.071 C 
BRANCH  20  21
ATOM     21  C   UNL     1      31.821 -12.004 -21.955  0.00  0.00    -0.018 C 
ATOM     22  C   UNL     1      32.234 -12.988 -22.834  0.00  0.00    -0.004 C 
ATOM     23  C   UNL     1      31.881 -12.178 -20.585  0.00  0.00    -0.004 C 
ATOM     24  C   UNL     1      32.723 -14.191 -22.324  0.00  0.00    -0.000 C 
ATOM     25  C   UNL     1      32.371 -13.381 -20.075  0.00  0.00    -0.000 C 
ATOM     26  C   UNL     1      32.792 -14.387 -20.945  0.00  0.00    -0.000 C 
ENDBRANCH  20  21
ENDBRANCH   1  20
TORSDOF 9
ENDMDL
MODEL 8
REMARK VINA RESULT:      -6.0     15.729     18.714
REMARK  Name = 10100
REMARK  9 active torsions:
REMARK  status: ('A' for Active; 'I' for Inactive)
REMARK    1  A    between atoms: C_1  and  C_2
REMARK    2  A    between atoms: C_1  and  C_8
REMARK    3  A    between atoms: C_1  and  O_15
REMARK    4  A    between atoms: C_1  and  C_20
REMARK    5  A    between atoms: C_8  and  C_10
REMARK    6  A    between atoms: C_10  and  N_11
REMARK    7  A    between atoms: O_15  and  C_17
REMARK    8  A    between atoms: C_17  and  C_18
REMARK    9  A    between atoms: C_20  and  C_21
REMARK                            x       y       z     vdW  Elec       q    Type
REMARK                         _______ _______ _______ _____ _____    ______ ____
ROOT
ATOM      1  C   UNL     1      32.680  -8.088 -22.690  0.00  0.00    +0.156 C 
ENDROOT
BRANCH   1   2
ATOM      2  C   UNL     1      32.080  -9.116 -21.716  0.00  0.00    +0.014 C 
ATOM      3  C   UNL     1      32.537  -9.131 -20.423  0.00  0.00    -0.001 C 
ATOM      4  C   UNL     1      31.115  -9.972 -22.186  0.00  0.00    -0.001 C 
ATOM      5  C   UNL     1      31.993 -10.065 -19.541  0.00  0.00    -0.000 C 
ATOM      6  C   UNL     1      30.571 -10.904 -21.304  0.00  0.00    -0.000 C 
ATOM      7  C   UNL     1      31.010 -10.952 -19.981  0.00  0.00    -0.000 C 
ENDBRANCH   1   2
BRANCH   1   8
ATOM      8  C   UNL     1      34.083  -8.584 -23.230  0.00  0.00    +0.020 C 
ATOM      9  C   UNL     1      35.097  -7.436 -23.402  0.00  0.00    +0.002 C 
BRANCH   8  10
ATOM     10  C   UNL     1      33.932  -9.359 -24.568  0.00  0.00    -0.074 C 
BRANCH  10  11
ATOM     11  N   UNL     1      34.830 -10.509 -24.665  0.00  0.00    +0.384 N 
ATOM     12  C   UNL     1      35.600 -10.453 -25.908  0.00  0.00    -0.101 C 
ATOM     13  C   UNL     1      34.072 -11.757 -24.588  0.00  0.00    -0.101 C 
ATOM     14  H   UNL     1      35.480 -10.475 -23.880  0.00  0.00    -0.080 HD
ENDBRANCH  10  11
ENDBRANCH   8  10
ENDBRANCH   1   8
BRANCH   1  15
ATOM     15  O   UNL     1      32.912  -6.848 -22.005  0.00  0.00    -0.451 OA
BRANCH  15  17
ATOM     16  O   UNL     1      32.554  -6.717 -19.729  0.00  0.00    -0.250 OA
ATOM     17  C   UNL     1      32.158  -6.650 -20.885  0.00  0.00    +0.317 C 
BRANCH  17  18
ATOM     18  C   UNL     1      30.742  -6.331 -21.304  0.00  0.00    +0.110 C 
ATOM     19  C   UNL     1      30.476  -4.836 -21.328  0.00  0.00    +0.012 C 
ENDBRANCH  17  18
ENDBRANCH  15  17
ENDBRANCH   1  15
BRANCH   1  20
ATOM     20  C   UNL     1      31.678  -7.806 -23.855  0.00  0.00    +0.071 C 
BRANCH  20  21
ATOM     21  C   UNL     1      31.824  -6.458 -24.534  0.00  0.00    -0.018 C 
ATOM     22  C   UNL     1      30.800  -5.536 -24.423  0.00  0.00    -0.004 C 
ATOM     23  C   UNL     1      32.977  -6.186 -25.246  0.00  0.00    -0.004 C 
ATOM     24  C   UNL     1      30.935  -4.295 -25.048  0.00  0.00    -0.000 C 
ATOM     25  C   UNL     1      33.112  -4.945 -25.870  0.00  0.00    -0.000 C 
ATOM     26  C   UNL     1      32.091  -4.000 -25.771  0.00  0.00    -0.000 C 
ENDBRANCH  20  21
ENDBRANCH   1  20
TORSDOF 9
ENDMDL
MODEL 9
REMARK VINA RESULT:      -5.9      1.879      4.941
REMARK  Name = 10100
REMARK  9 active torsions:
REMARK  status: ('A' for Active; 'I' for Inactive)
REMARK    1  A    between atoms: C_1  and  C_2
REMARK    2  A    between atoms: C_1  and  C_8
REMARK    3  A    between atoms: C_1  and  O_15
REMARK    4  A    between atoms: C_1  and  C_20
REMARK    5  A    between atoms: C_8  and  C_10
REMARK    6  A    between atoms: C_10  and  N_11
REMARK    7  A    between atoms: O_15  and  C_17
REMARK    8  A    between atoms: C_17  and  C_18
REMARK    9  A    between atoms: C_20  and  C_21
REMARK                            x       y       z     vdW  Elec       q    Type
REMARK                         _______ _______ _______ _____ _____    ______ ____
ROOT
ATOM      1  C   UNL     1      35.718 -23.574 -15.694  0.00  0.00    +0.156 C 
ENDROOT
BRANCH   1   2
ATOM      2  C   UNL     1      36.520 -24.833 -15.322  0.00  0.00    +0.014 C 
ATOM      3  C   UNL     1      35.855 -26.030 -15.251  0.00  0.00    -0.001 C 
ATOM      4  C   UNL     1      37.864 -24.699 -15.079  0.00  0.00    -0.001 C 
ATOM      5  C   UNL     1      36.584 -27.171 -14.913  0.00  0.00    -0.000 C 
ATOM      6  C   UNL     1      38.592 -25.840 -14.741  0.00  0.00    -0.000 C 
ATOM      7  C   UNL     1      37.952 -27.076 -14.658  0.00  0.00    -0.000 C 
ENDBRANCH   1   2
BRANCH   1   8
ATOM      8  C   UNL     1      34.221 -23.951 -16.044  0.00  0.00    +0.020 C 
ATOM      9  C   UNL     1      33.831 -23.567 -17.486  0.00  0.00    +0.002 C 
BRANCH   8  10
ATOM     10  C   UNL     1      33.226 -23.306 -15.040  0.00  0.00    -0.074 C 
BRANCH  10  11
ATOM     11  N   UNL     1      31.903 -23.928 -15.071  0.00  0.00    +0.384 N 
ATOM     12  C   UNL     1      30.857 -22.912 -14.956  0.00  0.00    -0.101 C 
ATOM     13  C   UNL     1      31.777 -24.915 -13.999  0.00  0.00    -0.101 C 
ATOM     14  H   UNL     1      31.794 -24.406 -15.965  0.00  0.00    -0.080 HD
ENDBRANCH  10  11
ENDBRANCH   8  10
ENDBRANCH   1   8
BRANCH   1  15
ATOM     15  O   UNL     1      36.281 -22.968 -16.867  0.00  0.00    -0.451 OA
BRANCH  15  17
ATOM     16  O   UNL     1      37.892 -21.795 -15.703  0.00  0.00    -0.250 OA
ATOM     17  C   UNL     1      37.109 -21.908 -16.636  0.00  0.00    +0.317 C 
BRANCH  17  18
ATOM     18  C   UNL     1      36.903 -20.886 -17.730  0.00  0.00    +0.110 C 
ATOM     19  C   UNL     1      36.434 -21.522 -19.027  0.00  0.00    +0.012 C 
ENDBRANCH  17  18
ENDBRANCH  15  17
ENDBRANCH   1  15
BRANCH   1  20
ATOM     20  C   UNL     1      35.796 -22.528 -14.536  0.00  0.00    +0.071 C 
BRANCH  20  21
ATOM     21  C   UNL     1      36.023 -23.100 -13.150  0.00  0.00    -0.018 C 
ATOM     22  C   UNL     1      37.207 -22.821 -12.493  0.00  0.00    -0.004 C 
ATOM     23  C   UNL     1      35.040 -23.887 -12.578  0.00  0.00    -0.004 C 
ATOM     24  C   UNL     1      37.415 -23.347 -11.218  0.00  0.00    -0.000 C 
ATOM     25  C   UNL     1      35.248 -24.412 -11.302  0.00  0.00    -0.000 C 
ATOM     26  C   UNL     1      36.436 -24.142 -10.623  0.00  0.00    -0.000 C 
ENDBRANCH  20  21
ENDBRANCH   1  20
TORSDOF 9
ENDMDL
