MODEL 1
REMARK VINA RESULT:      -6.2      0.000      0.000
REMARK  Name = 5287779
REMARK  7 active torsions:
REMARK  status: ('A' for Active; 'I' for Inactive)
REMARK    1  A    between atoms: C_1  and  N_2
REMARK    2  A    between atoms: C_1  and  C_7
REMARK    3  A    between atoms: C_1  and  C_13
REMARK    4  A    between atoms: C_7  and  O_8
REMARK    5  A    between atoms: O_8  and  C_9
REMARK    6  A    between atoms: C_13  and  C_14
REMARK    7  A    between atoms: C_14  and  C_17
REMARK                            x       y       z     vdW  Elec       q    Type
REMARK                         _______ _______ _______ _____ _____    ______ ____
ROOT
ATOM      1  C   UNL     1      33.747 -15.518 -22.035  0.00  0.00    +0.036 C 
ENDROOT
BRANCH   1   2
ATOM      2  N   UNL     1      33.208 -14.561 -21.067  0.00  0.00    +0.389 N 
ATOM      3  H   UNL     1      33.472 -14.844 -20.124  0.00  0.00    -0.088 HD
ATOM      4  H   UNL     1      32.190 -14.539 -21.142  0.00  0.00    -0.088 HD
ATOM      5  H   UNL     1      33.583 -13.632 -21.262  0.00  0.00    -0.088 HD
ENDBRANCH   1   2
BRANCH   1   7
ATOM      6  O   UNL     1      35.090 -16.191 -20.121  0.00  0.00    -0.252 OA
ATOM      7  C   UNL     1      34.802 -16.325 -21.303  0.00  0.00    +0.296 C 
BRANCH   7   8
ATOM      8  O   UNL     1      35.356 -17.233 -22.161  0.00  0.00    -0.457 OA
BRANCH   8   9
ATOM      9  C   UNL     1      35.117 -18.607 -21.843  0.00  0.00    +0.136 C 
ATOM     10  C   UNL     1      33.814 -18.704 -21.053  0.00  0.00    +0.044 C 
ATOM     11  C   UNL     1      35.004 -19.372 -23.161  0.00  0.00    +0.044 C 
ATOM     12  C   UNL     1      36.294 -19.128 -21.019  0.00  0.00    +0.044 C 
ENDBRANCH   8   9
ENDBRANCH   7   8
ENDBRANCH   1   7
BRANCH   1  13
ATOM     13  C   UNL     1      34.331 -14.763 -23.237  0.00  0.00    -0.001 C 
BRANCH  13  14
ATOM     14  C   UNL     1      33.384 -14.705 -24.440  0.00  0.00    +0.083 C 
BRANCH  14  17
ATOM     15  O   UNL     1      33.220 -15.651 -26.669  0.00  0.00    -0.275 OA
ATOM     16  N   UNL     1      34.726 -16.560 -25.191  0.00  0.00    -0.329 N 
ATOM     17  C   UNL     1      33.735 -15.674 -25.555  0.00  0.00    +0.219 C 
ATOM     18  H   UNL     1      35.039 -17.239 -25.832  0.00  0.00    +0.145 HD
ATOM     19  H   UNL     1      35.121 -16.514 -24.290  0.00  0.00    +0.145 HD
ENDBRANCH  14  17
ENDBRANCH  13  14
ENDBRANCH   1  13
TORSDOF 7
ENDMDL
MODEL 2
REMARK VINA RESULT:      -6.1      1.050      1.720
REMARK  Name = 5287779
REMARK  7 active torsions:
REMARK  status: ('A' for Active; 'I' for Inactive)
REMARK    1  A    between atoms: C_1  and  N_2
REMARK    2  A    between atoms: C_1  and  C_7
REMARK    3  A    between atoms: C_1  and  C_13
REMARK    4  A    between atoms: C_7  and  O_8
REMARK    5  A    between atoms: O_8  and  C_9
REMARK    6  A    between atoms: C_13  and  C_14
REMARK    7  A    between atoms: C_14  and  C_17
REMARK                            x       y       z     vdW  Elec       q    Type
REMARK                         _______ _______ _______ _____ _____    ______ ____
ROOT
ATOM      1  C   UNL     1      34.306 -16.029 -21.798  0.00  0.00    +0.036 C 
ENDROOT
BRANCH   1   2
ATOM      2  N   UNL     1      34.584 -15.237 -20.599  0.00  0.00    +0.389 N 
ATOM      3  H   UNL     1      35.340 -15.672 -20.070  0.00  0.00    -0.088 HD
ATOM      4  H   UNL     1      33.746 -15.193 -20.019  0.00  0.00    -0.088 HD
ATOM      5  H   UNL     1      34.859 -14.292 -20.871  0.00  0.00    -0.088 HD
ENDBRANCH   1   2
BRANCH   1   7
ATOM      6  O   UNL     1      36.167 -17.488 -22.372  0.00  0.00    -0.252 OA
ATOM      7  C   UNL     1      35.165 -17.276 -21.702  0.00  0.00    +0.296 C 
BRANCH   7   8
ATOM      8  O   UNL     1      34.659 -18.103 -20.739  0.00  0.00    -0.457 OA
BRANCH   8   9
ATOM      9  C   UNL     1      34.373 -19.439 -21.162  0.00  0.00    +0.136 C 
ATOM     10  C   UNL     1      34.411 -19.485 -22.689  0.00  0.00    +0.044 C 
ATOM     11  C   UNL     1      35.447 -20.350 -20.570  0.00  0.00    +0.044 C 
ATOM     12  C   UNL     1      32.991 -19.830 -20.640  0.00  0.00    +0.044 C 
ENDBRANCH   8   9
ENDBRANCH   7   8
ENDBRANCH   1   7
BRANCH   1  13
ATOM     13  C   UNL     1      34.631 -15.202 -23.050  0.00  0.00    -0.001 C 
BRANCH  13  14
ATOM     14  C   UNL     1      33.523 -15.235 -24.108  0.00  0.00    +0.083 C 
BRANCH  14  17
ATOM     15  O   UNL     1      33.503 -15.559 -26.513  0.00  0.00    -0.275 OA
ATOM     16  N   UNL     1      34.860 -16.896 -25.230  0.00  0.00    -0.329 N 
ATOM     17  C   UNL     1      33.929 -15.897 -25.412  0.00  0.00    +0.219 C 
ATOM     18  H   UNL     1      35.201 -17.400 -26.004  0.00  0.00    +0.145 HD
ATOM     19  H   UNL     1      35.185 -17.106 -24.324  0.00  0.00    +0.145 HD
ENDBRANCH  14  17
ENDBRANCH  13  14
ENDBRANCH   1  13
TORSDOF 7
ENDMDL
MODEL 3
REMARK VINA RESULT:      -6.0      3.262      5.835
REMARK  Name = 5287779
REMARK  7 active torsions:
REMARK  status: ('A' for Active; 'I' for Inactive)
REMARK    1  A    between atoms: C_1  and  N_2
REMARK    2  A    between atoms: C_1  and  C_7
REMARK    3  A    between atoms: C_1  and  C_13
REMARK    4  A    between atoms: C_7  and  O_8
REMARK    5  A    between atoms: O_8  and  C_9
REMARK    6  A    between atoms: C_13  and  C_14
REMARK    7  A    between atoms: C_14  and  C_17
REMARK                            x       y       z     vdW  Elec       q    Type
REMARK                         _______ _______ _______ _____ _____    ______ ____
ROOT
ATOM      1  C   UNL     1      34.262 -18.929 -21.813  0.00  0.00    +0.036 C 
ENDROOT
BRANCH   1   2
ATOM      2  N   UNL     1      34.853 -19.234 -23.117  0.00  0.00    +0.389 N 
ATOM      3  H   UNL     1      34.580 -18.519 -23.791  0.00  0.00    -0.088 HD
ATOM      4  H   UNL     1      34.521 -20.145 -23.436  0.00  0.00    -0.088 HD
ATOM      5  H   UNL     1      35.870 -19.254 -23.034  0.00  0.00    -0.088 HD
ENDBRANCH   1   2
BRANCH   1   7
ATOM      6  O   UNL     1      35.550 -17.350 -20.483  0.00  0.00    -0.252 OA
ATOM      7  C   UNL     1      34.781 -17.561 -21.412  0.00  0.00    +0.296 C 
BRANCH   7   8
ATOM      8  O   UNL     1      34.278 -16.616 -22.262  0.00  0.00    -0.457 OA
BRANCH   8   9
ATOM      9  C   UNL     1      33.555 -15.550 -21.640  0.00  0.00    +0.136 C 
ATOM     10  C   UNL     1      32.429 -16.151 -20.801  0.00  0.00    +0.044 C 
ATOM     11  C   UNL     1      34.535 -14.784 -20.754  0.00  0.00    +0.044 C 
ATOM     12  C   UNL     1      32.994 -14.641 -22.733  0.00  0.00    +0.044 C 
ENDBRANCH   8   9
ENDBRANCH   7   8
ENDBRANCH   1   7
BRANCH   1  13
ATOM     13  C   UNL     1      34.656 -20.013 -20.801  0.00  0.00    -0.001 C 
BRANCH  13  14
ATOM     14  C   UNL     1      33.457 -20.652 -20.093  0.00  0.00    +0.083 C 
BRANCH  14  17
ATOM     15  O   UNL     1      34.874 -22.493 -19.394  0.00  0.00    -0.275 OA
ATOM     16  N   UNL     1      32.742 -22.358 -18.550  0.00  0.00    -0.329 N 
ATOM     17  C   UNL     1      33.787 -21.927 -19.338  0.00  0.00    +0.219 C 
ATOM     18  H   UNL     1      32.836 -23.177 -18.011  0.00  0.00    +0.145 HD
ATOM     19  H   UNL     1      31.900 -21.847 -18.525  0.00  0.00    +0.145 HD
ENDBRANCH  14  17
ENDBRANCH  13  14
ENDBRANCH   1  13
TORSDOF 7
ENDMDL
MODEL 4
REMARK VINA RESULT:      -5.9      2.722      5.219
REMARK  Name = 5287779
REMARK  7 active torsions:
REMARK  status: ('A' for Active; 'I' for Inactive)
REMARK    1  A    between atoms: C_1  and  N_2
REMARK    2  A    between atoms: C_1  and  C_7
REMARK    3  A    between atoms: C_1  and  C_13
REMARK    4  A    between atoms: C_7  and  O_8
REMARK    5  A    between atoms: O_8  and  C_9
REMARK    6  A    between atoms: C_13  and  C_14
REMARK    7  A    between atoms: C_14  and  C_17
REMARK                            x       y       z     vdW  Elec       q    Type
REMARK                         _______ _______ _______ _____ _____    ______ ____
ROOT
ATOM      1  C   UNL     1      34.896 -17.795 -22.200  0.00  0.00    +0.036 C 
ENDROOT
BRANCH   1   2
ATOM      2  N   UNL     1      36.073 -18.037 -23.036  0.00  0.00    +0.389 N 
ATOM      3  H   UNL     1      36.867 -18.282 -22.444  0.00  0.00    -0.088 HD
ATOM      4  H   UNL     1      36.293 -17.193 -23.566  0.00  0.00    -0.088 HD
ATOM      5  H   UNL     1      35.881 -18.803 -23.682  0.00  0.00    -0.088 HD
ENDBRANCH   1   2
BRANCH   1   7
ATOM      6  O   UNL     1      35.016 -16.031 -20.529  0.00  0.00    -0.252 OA
ATOM      7  C   UNL     1      35.002 -16.365 -21.707  0.00  0.00    +0.296 C 
BRANCH   7   8
ATOM      8  O   UNL     1      35.102 -15.521 -22.776  0.00  0.00    -0.457 OA
BRANCH   8   9
ATOM      9  C   UNL     1      33.885 -14.887 -23.179  0.00  0.00    +0.136 C 
ATOM     10  C   UNL     1      34.110 -13.376 -23.207  0.00  0.00    +0.044 C 
ATOM     11  C   UNL     1      33.536 -15.404 -24.573  0.00  0.00    +0.044 C 
ATOM     12  C   UNL     1      32.790 -15.257 -22.180  0.00  0.00    +0.044 C 
ENDBRANCH   8   9
ENDBRANCH   7   8
ENDBRANCH   1   7
BRANCH   1  13
ATOM     13  C   UNL     1      34.868 -18.803 -21.043  0.00  0.00    -0.001 C 
BRANCH  13  14
ATOM     14  C   UNL     1      33.592 -19.649 -21.000  0.00  0.00    +0.083 C 
BRANCH  14  17
ATOM     15  O   UNL     1      32.723 -21.570 -19.799  0.00  0.00    -0.275 OA
ATOM     16  N   UNL     1      34.974 -21.126 -19.691  0.00  0.00    -0.329 N 
ATOM     17  C   UNL     1      33.683 -20.868 -20.101  0.00  0.00    +0.219 C 
ATOM     18  H   UNL     1      35.161 -21.892 -19.103  0.00  0.00    +0.145 HD
ATOM     19  H   UNL     1      35.710 -20.541 -19.987  0.00  0.00    +0.145 HD
ENDBRANCH  14  17
ENDBRANCH  13  14
ENDBRANCH   1  13
TORSDOF 7
ENDMDL
MODEL 5
REMARK VINA RESULT:      -5.7      2.783      5.233
REMARK  Name = 5287779
REMARK  7 active torsions:
REMARK  status: ('A' for Active; 'I' for Inactive)
REMARK    1  A    between atoms: C_1  and  N_2
REMARK    2  A    between atoms: C_1  and  C_7
REMARK    3  A    between atoms: C_1  and  C_13
REMARK    4  A    between atoms: C_7  and  O_8
REMARK    5  A    between atoms: O_8  and  C_9
REMARK    6  A    between atoms: C_13  and  C_14
REMARK    7  A    between atoms: C_14  and  C_17
REMARK                            x       y       z     vdW  Elec       q    Type
REMARK                         _______ _______ _______ _____ _____    ______ ____
ROOT
ATOM      1  C   UNL     1      34.808 -17.977 -22.657  0.00  0.00    +0.036 C 
ENDROOT
BRANCH   1   2
ATOM      2  N   UNL     1      36.168 -18.240 -23.131  0.00  0.00    +0.389 N 
ATOM      3  H   UNL     1      36.465 -17.486 -23.751  0.00  0.00    -0.088 HD
ATOM      4  H   UNL     1      36.185 -19.124 -23.641  0.00  0.00    -0.088 HD
ATOM      5  H   UNL     1      36.802 -18.295 -22.334  0.00  0.00    -0.088 HD
ENDBRANCH   1   2
BRANCH   1   7
ATOM      6  O   UNL     1      35.432 -15.679 -23.159  0.00  0.00    -0.252 OA
ATOM      7  C   UNL     1      34.587 -16.482 -22.785  0.00  0.00    +0.296 C 
BRANCH   7   8
ATOM      8  O   UNL     1      33.298 -16.182 -22.444  0.00  0.00    -0.457 OA
BRANCH   8   9
ATOM      9  C   UNL     1      33.144 -15.185 -21.430  0.00  0.00    +0.136 C 
ATOM     10  C   UNL     1      32.638 -13.901 -22.085  0.00  0.00    +0.044 C 
ATOM     11  C   UNL     1      32.126 -15.709 -20.419  0.00  0.00    +0.044 C 
ATOM     12  C   UNL     1      34.498 -14.958 -20.760  0.00  0.00    +0.044 C 
ENDBRANCH   8   9
ENDBRANCH   7   8
ENDBRANCH   1   7
BRANCH   1  13
ATOM     13  C   UNL     1      34.666 -18.457 -21.206  0.00  0.00    -0.001 C 
BRANCH  13  14
ATOM     14  C   UNL     1      33.527 -19.461 -21.004  0.00  0.00    +0.083 C 
BRANCH  14  17
ATOM     15  O   UNL     1      35.032 -20.873 -19.726  0.00  0.00    -0.275 OA
ATOM     16  N   UNL     1      32.834 -21.508 -19.938  0.00  0.00    -0.329 N 
ATOM     17  C   UNL     1      33.906 -20.673 -20.172  0.00  0.00    +0.219 C 
ATOM     18  H   UNL     1      32.955 -22.329 -19.410  0.00  0.00    +0.145 HD
ATOM     19  H   UNL     1      31.946 -21.282 -20.301  0.00  0.00    +0.145 HD
ENDBRANCH  14  17
ENDBRANCH  13  14
ENDBRANCH   1  13
TORSDOF 7
ENDMDL
MODEL 6
REMARK VINA RESULT:      -5.7      2.228      3.023
REMARK  Name = 5287779
REMARK  7 active torsions:
REMARK  status: ('A' for Active; 'I' for Inactive)
REMARK    1  A    between atoms: C_1  and  N_2
REMARK    2  A    between atoms: C_1  and  C_7
REMARK    3  A    between atoms: C_1  and  C_13
REMARK    4  A    between atoms: C_7  and  O_8
REMARK    5  A    between atoms: O_8  and  C_9
REMARK    6  A    between atoms: C_13  and  C_14
REMARK    7  A    between atoms: C_14  and  C_17
REMARK                            x       y       z     vdW  Elec       q    Type
REMARK                         _______ _______ _______ _____ _____    ______ ____
ROOT
ATOM      1  C   UNL     1      34.264 -15.129 -21.673  0.00  0.00    +0.036 C 
ENDROOT
BRANCH   1   2
ATOM      2  N   UNL     1      34.623 -14.931 -23.079  0.00  0.00    +0.389 N 
ATOM      3  H   UNL     1      35.527 -14.461 -23.137  0.00  0.00    -0.088 HD
ATOM      4  H   UNL     1      33.912 -14.356 -23.533  0.00  0.00    -0.088 HD
ATOM      5  H   UNL     1      34.678 -15.835 -23.547  0.00  0.00    -0.088 HD
ENDBRANCH   1   2
BRANCH   1   7
ATOM      6  O   UNL     1      35.303 -16.857 -20.310  0.00  0.00    -0.252 OA
ATOM      7  C   UNL     1      34.679 -16.543 -21.316  0.00  0.00    +0.296 C 
BRANCH   7   8
ATOM      8  O   UNL     1      34.228 -17.406 -22.275  0.00  0.00    -0.457 OA
BRANCH   8   9
ATOM      9  C   UNL     1      34.978 -18.615 -22.419  0.00  0.00    +0.136 C 
ATOM     10  C   UNL     1      34.469 -19.628 -21.395  0.00  0.00    +0.044 C 
ATOM     11  C   UNL     1      34.754 -19.130 -23.840  0.00  0.00    +0.044 C 
ATOM     12  C   UNL     1      36.456 -18.303 -22.188  0.00  0.00    +0.044 C 
ENDBRANCH   8   9
ENDBRANCH   7   8
ENDBRANCH   1   7
BRANCH   1  13
ATOM     13  C   UNL     1      32.757 -14.908 -21.489  0.00  0.00    -0.001 C 
BRANCH  13  14
ATOM     14  C   UNL     1      32.400 -13.495 -21.018  0.00  0.00    +0.083 C 
BRANCH  14  17
ATOM     15  O   UNL     1      32.681 -12.464 -23.196  0.00  0.00    -0.275 OA
ATOM     16  N   UNL     1      30.947 -11.768 -21.861  0.00  0.00    -0.329 N 
ATOM     17  C   UNL     1      32.059 -12.532 -22.141  0.00  0.00    +0.219 C 
ATOM     18  H   UNL     1      30.627 -11.104 -22.514  0.00  0.00    +0.145 HD
ATOM     19  H   UNL     1      30.472 -11.885 -21.006  0.00  0.00    +0.145 HD
ENDBRANCH  14  17
ENDBRANCH  13  14
ENDBRANCH   1  13
TORSDOF 7
ENDMDL
MODEL 7
REMARK VINA RESULT:      -5.7      1.784      2.348
REMARK  Name = 5287779
REMARK  7 active torsions:
REMARK  status: ('A' for Active; 'I' for Inactive)
REMARK    1  A    between atoms: C_1  and  N_2
REMARK    2  A    between atoms: C_1  and  C_7
REMARK    3  A    between atoms: C_1  and  C_13
REMARK    4  A    between atoms: C_7  and  O_8
REMARK    5  A    between atoms: O_8  and  C_9
REMARK    6  A    between atoms: C_13  and  C_14
REMARK    7  A    between atoms: C_14  and  C_17
REMARK                            x       y       z     vdW  Elec       q    Type
REMARK                         _______ _______ _______ _____ _____    ______ ____
ROOT
ATOM      1  C   UNL     1      33.601 -15.344 -22.309  0.00  0.00    +0.036 C 
ENDROOT
BRANCH   1   2
ATOM      2  N   UNL     1      32.757 -14.608 -21.366  0.00  0.00    +0.389 N 
ATOM      3  H   UNL     1      31.909 -15.142 -21.179  0.00  0.00    -0.088 HD
ATOM      4  H   UNL     1      32.506 -13.704 -21.768  0.00  0.00    -0.088 HD
ATOM      5  H   UNL     1      33.267 -14.462 -20.494  0.00  0.00    -0.088 HD
ENDBRANCH   1   2
BRANCH   1   7
ATOM      6  O   UNL     1      34.898 -15.794 -20.299  0.00  0.00    -0.252 OA
ATOM      7  C   UNL     1      34.693 -16.004 -21.488  0.00  0.00    +0.296 C 
BRANCH   7   8
ATOM      8  O   UNL     1      35.387 -16.880 -22.275  0.00  0.00    -0.457 OA
BRANCH   8   9
ATOM      9  C   UNL     1      35.162 -18.266 -22.001  0.00  0.00    +0.136 C 
ATOM     10  C   UNL     1      36.353 -18.805 -21.211  0.00  0.00    +0.044 C 
ATOM     11  C   UNL     1      33.879 -18.371 -21.179  0.00  0.00    +0.044 C 
ATOM     12  C   UNL     1      35.011 -19.006 -23.330  0.00  0.00    +0.044 C 
ENDBRANCH   8   9
ENDBRANCH   7   8
ENDBRANCH   1   7
BRANCH   1  13
ATOM     13  C   UNL     1      34.172 -14.377 -23.354  0.00  0.00    -0.001 C 
BRANCH  13  14
ATOM     14  C   UNL     1      33.191 -13.275 -23.767  0.00  0.00    +0.083 C 
BRANCH  14  17
ATOM     15  O   UNL     1      33.612 -12.302 -25.950  0.00  0.00    -0.275 OA
ATOM     16  N   UNL     1      34.459 -11.252 -24.090  0.00  0.00    -0.329 N 
ATOM     17  C   UNL     1      33.769 -12.257 -24.733  0.00  0.00    +0.219 C 
ATOM     18  H   UNL     1      34.881 -10.531 -24.612  0.00  0.00    +0.145 HD
ATOM     19  H   UNL     1      34.530 -11.254 -23.108  0.00  0.00    +0.145 HD
ENDBRANCH  14  17
ENDBRANCH  13  14
ENDBRANCH   1  13
TORSDOF 7
ENDMDL
MODEL 8
REMARK VINA RESULT:      -5.7      8.575     10.585
REMARK  Name = 5287779
REMARK  7 active torsions:
REMARK  status: ('A' for Active; 'I' for Inactive)
REMARK    1  A    between atoms: C_1  and  N_2
REMARK    2  A    between atoms: C_1  and  C_7
REMARK    3  A    between atoms: C_1  and  C_13
REMARK    4  A    between atoms: C_7  and  O_8
REMARK    5  A    between atoms: O_8  and  C_9
REMARK    6  A    between atoms: C_13  and  C_14
REMARK    7  A    between atoms: C_14  and  C_17
REMARK                            x       y       z     vdW  Elec       q    Type
REMARK                         _______ _______ _______ _____ _____    ______ ____
ROOT
ATOM      1  C   UNL     1      35.878 -23.595 -15.252  0.00  0.00    +0.036 C 
ENDROOT
BRANCH   1   2
ATOM      2  N   UNL     1      35.243 -23.071 -14.041  0.00  0.00    +0.389 N 
ATOM      3  H   UNL     1      34.303 -22.746 -14.264  0.00  0.00    -0.088 HD
ATOM      4  H   UNL     1      35.795 -22.293 -13.678  0.00  0.00    -0.088 HD
ATOM      5  H   UNL     1      35.191 -23.809 -13.338  0.00  0.00    -0.088 HD
ENDBRANCH   1   2
BRANCH   1   7
ATOM      6  O   UNL     1      38.210 -23.144 -15.781  0.00  0.00    -0.252 OA
ATOM      7  C   UNL     1      37.373 -23.578 -15.000  0.00  0.00    +0.296 C 
BRANCH   7   8
ATOM      8  O   UNL     1      37.631 -24.097 -13.762  0.00  0.00    -0.457 OA
BRANCH   8   9
ATOM      9  C   UNL     1      38.077 -25.455 -13.743  0.00  0.00    +0.136 C 
ATOM     10  C   UNL     1      39.604 -25.466 -13.767  0.00  0.00    +0.044 C 
ATOM     11  C   UNL     1      37.556 -26.093 -12.456  0.00  0.00    +0.044 C 
ATOM     12  C   UNL     1      37.508 -26.172 -14.967  0.00  0.00    +0.044 C 
ENDBRANCH   8   9
ENDBRANCH   7   8
ENDBRANCH   1   7
BRANCH   1  13
ATOM     13  C   UNL     1      35.488 -22.726 -16.456  0.00  0.00    -0.001 C 
BRANCH  13  14
ATOM     14  C   UNL     1      34.098 -23.045 -17.014  0.00  0.00    +0.083 C 
BRANCH  14  17
ATOM     15  O   UNL     1      34.768 -22.872 -19.340  0.00  0.00    -0.275 OA
ATOM     16  N   UNL     1      32.672 -22.151 -18.738  0.00  0.00    -0.329 N 
ATOM     17  C   UNL     1      33.917 -22.682 -18.477  0.00  0.00    +0.219 C 
ATOM     18  H   UNL     1      32.435 -21.876 -19.654  0.00  0.00    +0.145 HD
ATOM     19  H   UNL     1      32.018 -22.046 -18.009  0.00  0.00    +0.145 HD
ENDBRANCH  14  17
ENDBRANCH  13  14
ENDBRANCH   1  13
TORSDOF 7
ENDMDL
MODEL 9
REMARK VINA RESULT:      -5.7      8.960     10.900
REMARK  Name = 5287779
REMARK  7 active torsions:
REMARK  status: ('A' for Active; 'I' for Inactive)
REMARK    1  A    between atoms: C_1  and  N_2
REMARK    2  A    between atoms: C_1  and  C_7
REMARK    3  A    between atoms: C_1  and  C_13
REMARK    4  A    between atoms: C_7  and  O_8
REMARK    5  A    between atoms: O_8  and  C_9
REMARK    6  A    between atoms: C_13  and  C_14
REMARK    7  A    between atoms: C_14  and  C_17
REMARK                            x       y       z     vdW  Elec       q    Type
REMARK                         _______ _______ _______ _____ _____    ______ ____
ROOT
ATOM      1  C   UNL     1      35.044 -24.155 -14.926  0.00  0.00    +0.036 C 
ENDROOT
BRANCH   1   2
ATOM      2  N   UNL     1      34.979 -23.475 -13.631  0.00  0.00    +0.389 N 
ATOM      3  H   UNL     1      34.704 -22.503 -13.770  0.00  0.00    -0.088 HD
ATOM      4  H   UNL     1      35.896 -23.507 -13.184  0.00  0.00    -0.088 HD
ATOM      5  H   UNL     1      34.295 -23.942 -13.035  0.00  0.00    -0.088 HD
ENDBRANCH   1   2
BRANCH   1   7
ATOM      6  O   UNL     1      36.538 -25.977 -15.533  0.00  0.00    -0.252 OA
ATOM      7  C   UNL     1      36.356 -24.916 -14.951  0.00  0.00    +0.296 C 
BRANCH   7   8
ATOM      8  O   UNL     1      37.298 -24.220 -14.247  0.00  0.00    -0.457 OA
BRANCH   8   9
ATOM      9  C   UNL     1      38.018 -24.975 -13.268  0.00  0.00    +0.136 C 
ATOM     10  C   UNL     1      37.180 -26.192 -12.880  0.00  0.00    +0.044 C 
ATOM     11  C   UNL     1      39.338 -25.411 -13.901  0.00  0.00    +0.044 C 
ATOM     12  C   UNL     1      38.273 -24.080 -12.055  0.00  0.00    +0.044 C 
ENDBRANCH   8   9
ENDBRANCH   7   8
ENDBRANCH   1   7
BRANCH   1  13
ATOM     13  C   UNL     1      34.957 -23.120 -16.056  0.00  0.00    -0.001 C 
BRANCH  13  14
ATOM     14  C   UNL     1      33.712 -23.278 -16.934  0.00  0.00    +0.083 C 
BRANCH  14  17
ATOM     15  O   UNL     1      34.881 -22.739 -18.991  0.00  0.00    -0.275 OA
ATOM     16  N   UNL     1      32.681 -22.115 -18.775  0.00  0.00    -0.329 N 
ATOM     17  C   UNL     1      33.852 -22.686 -18.325  0.00  0.00    +0.219 C 
ATOM     18  H   UNL     1      32.647 -21.697 -19.666  0.00  0.00    +0.145 HD
ATOM     19  H   UNL     1      31.877 -22.125 -18.206  0.00  0.00    +0.145 HD
ENDBRANCH  14  17
ENDBRANCH  13  14
ENDBRANCH   1  13
TORSDOF 7
ENDMDL
