MODEL 1
REMARK VINA RESULT:      -3.8      0.000      0.000
REMARK  Name = 447466
REMARK  1 active torsions:
REMARK  status: ('A' for Active; 'I' for Inactive)
REMARK    1  A    between atoms: C_3  and  C_5
REMARK                            x       y       z     vdW  Elec       q    Type
REMARK                         _______ _______ _______ _____ _____    ______ ____
ROOT
ATOM      1  C   UNL     1      33.214 -20.654 -20.141  0.00  0.00    -0.022 C 
ATOM      2  C   UNL     1      33.480 -19.422 -20.942  0.00  0.00    +0.031 C 
ATOM      3  C   UNL     1      34.182 -21.389 -19.580  0.00  0.00    +0.041 C 
ENDROOT
BRANCH   3   5
ATOM      4  O   UNL     1      33.880 -23.716 -19.288  0.00  0.00    -0.283 OA
ATOM      5  C   UNL     1      33.815 -22.591 -18.807  0.00  0.00    +0.234 C 
ENDBRANCH   3   5
TORSDOF 1
ENDMDL
MODEL 2
REMARK VINA RESULT:      -3.7      1.207      1.394
REMARK  Name = 447466
REMARK  1 active torsions:
REMARK  status: ('A' for Active; 'I' for Inactive)
REMARK    1  A    between atoms: C_3  and  C_5
REMARK                            x       y       z     vdW  Elec       q    Type
REMARK                         _______ _______ _______ _____ _____    ______ ____
ROOT
ATOM      1  C   UNL     1      34.317 -20.034 -20.651  0.00  0.00    -0.022 C 
ATOM      2  C   UNL     1      34.198 -18.810 -21.499  0.00  0.00    +0.031 C 
ATOM      3  C   UNL     1      33.266 -20.651 -20.098  0.00  0.00    +0.041 C 
ENDROOT
BRANCH   3   5
ATOM      4  O   UNL     1      32.621 -22.307 -18.539  0.00  0.00    -0.283 OA
ATOM      5  C   UNL     1      33.490 -21.854 -19.275  0.00  0.00    +0.234 C 
ENDBRANCH   3   5
TORSDOF 1
ENDMDL
MODEL 3
REMARK VINA RESULT:      -3.6      2.546      2.770
REMARK  Name = 447466
REMARK  1 active torsions:
REMARK  status: ('A' for Active; 'I' for Inactive)
REMARK    1  A    between atoms: C_3  and  C_5
REMARK                            x       y       z     vdW  Elec       q    Type
REMARK                         _______ _______ _______ _____ _____    ______ ____
ROOT
ATOM      1  C   UNL     1      34.192 -20.085 -20.584  0.00  0.00    -0.022 C 
ATOM      2  C   UNL     1      32.701 -20.062 -20.655  0.00  0.00    +0.031 C 
ATOM      3  C   UNL     1      34.881 -20.988 -19.876  0.00  0.00    +0.041 C 
ENDROOT
BRANCH   3   5
ATOM      4  O   UNL     1      36.958 -19.858 -19.869  0.00  0.00    -0.283 OA
ATOM      5  C   UNL     1      36.355 -20.925 -19.870  0.00  0.00    +0.234 C 
ENDBRANCH   3   5
TORSDOF 1
ENDMDL
MODEL 4
REMARK VINA RESULT:      -3.5      5.241      6.402
REMARK  Name = 447466
REMARK  1 active torsions:
REMARK  status: ('A' for Active; 'I' for Inactive)
REMARK    1  A    between atoms: C_3  and  C_5
REMARK                            x       y       z     vdW  Elec       q    Type
REMARK                         _______ _______ _______ _____ _____    ______ ____
ROOT
ATOM      1  C   UNL     1      34.787 -19.180 -23.251  0.00  0.00    -0.022 C 
ATOM      2  C   UNL     1      35.148 -19.471 -21.831  0.00  0.00    +0.031 C 
ATOM      3  C   UNL     1      34.925 -17.973 -23.812  0.00  0.00    +0.041 C 
ENDROOT
BRANCH   3   5
ATOM      4  O   UNL     1      34.764 -16.745 -25.826  0.00  0.00    -0.283 OA
ATOM      5  C   UNL     1      34.539 -17.788 -25.224  0.00  0.00    +0.234 C 
ENDBRANCH   3   5
TORSDOF 1
ENDMDL
MODEL 5
REMARK VINA RESULT:      -3.5      2.096      3.082
REMARK  Name = 447466
REMARK  1 active torsions:
REMARK  status: ('A' for Active; 'I' for Inactive)
REMARK    1  A    between atoms: C_3  and  C_5
REMARK                            x       y       z     vdW  Elec       q    Type
REMARK                         _______ _______ _______ _____ _____    ______ ____
ROOT
ATOM      1  C   UNL     1      35.107 -20.991 -19.828  0.00  0.00    -0.022 C 
ATOM      2  C   UNL     1      36.539 -21.285 -19.522  0.00  0.00    +0.031 C 
ATOM      3  C   UNL     1      34.719 -20.035 -20.681  0.00  0.00    +0.041 C 
ENDROOT
BRANCH   3   5
ATOM      4  O   UNL     1      32.445 -20.686 -20.660  0.00  0.00    -0.283 OA
ATOM      5  C   UNL     1      33.278 -19.823 -20.914  0.00  0.00    +0.234 C 
ENDBRANCH   3   5
TORSDOF 1
ENDMDL
MODEL 6
REMARK VINA RESULT:      -3.5      3.102      3.808
REMARK  Name = 447466
REMARK  1 active torsions:
REMARK  status: ('A' for Active; 'I' for Inactive)
REMARK    1  A    between atoms: C_3  and  C_5
REMARK                            x       y       z     vdW  Elec       q    Type
REMARK                         _______ _______ _______ _____ _____    ______ ____
ROOT
ATOM      1  C   UNL     1      33.867 -20.413 -20.242  0.00  0.00    -0.022 C 
ATOM      2  C   UNL     1      33.429 -21.649 -19.527  0.00  0.00    +0.031 C 
ATOM      3  C   UNL     1      35.140 -20.164 -20.568  0.00  0.00    +0.041 C 
ENDROOT
BRANCH   3   5
ATOM      4  O   UNL     1      35.507 -17.831 -20.695  0.00  0.00    -0.283 OA
ATOM      5  C   UNL     1      35.470 -18.911 -21.274  0.00  0.00    +0.234 C 
ENDBRANCH   3   5
TORSDOF 1
ENDMDL
MODEL 7
REMARK VINA RESULT:      -3.5      3.883      4.538
REMARK  Name = 447466
REMARK  1 active torsions:
REMARK  status: ('A' for Active; 'I' for Inactive)
REMARK    1  A    between atoms: C_3  and  C_5
REMARK                            x       y       z     vdW  Elec       q    Type
REMARK                         _______ _______ _______ _____ _____    ______ ____
ROOT
ATOM      1  C   UNL     1      35.171 -18.814 -23.573  0.00  0.00    -0.022 C 
ATOM      2  C   UNL     1      34.387 -18.736 -24.842  0.00  0.00    +0.031 C 
ATOM      3  C   UNL     1      34.656 -19.252 -22.417  0.00  0.00    +0.041 C 
ENDROOT
BRANCH   3   5
ATOM      4  O   UNL     1      35.805 -18.276 -20.596  0.00  0.00    -0.283 OA
ATOM      5  C   UNL     1      35.514 -19.291 -21.218  0.00  0.00    +0.234 C 
ENDBRANCH   3   5
TORSDOF 1
ENDMDL
MODEL 8
REMARK VINA RESULT:      -3.5      6.029      6.496
REMARK  Name = 447466
REMARK  1 active torsions:
REMARK  status: ('A' for Active; 'I' for Inactive)
REMARK    1  A    between atoms: C_3  and  C_5
REMARK                            x       y       z     vdW  Elec       q    Type
REMARK                         _______ _______ _______ _____ _____    ______ ____
ROOT
ATOM      1  C   UNL     1      29.778 -22.787 -15.122  0.00  0.00    -0.022 C 
ATOM      2  C   UNL     1      31.187 -22.778 -14.628  0.00  0.00    +0.031 C 
ATOM      3  C   UNL     1      29.453 -22.898 -16.416  0.00  0.00    +0.041 C 
ENDROOT
BRANCH   3   5
ATOM      4  O   UNL     1      27.655 -23.292 -17.900  0.00  0.00    -0.283 OA
ATOM      5  C   UNL     1      28.030 -22.896 -16.802  0.00  0.00    +0.234 C 
ENDBRANCH   3   5
TORSDOF 1
ENDMDL
MODEL 9
REMARK VINA RESULT:      -3.5      3.395      4.225
REMARK  Name = 447466
REMARK  1 active torsions:
REMARK  status: ('A' for Active; 'I' for Inactive)
REMARK    1  A    between atoms: C_3  and  C_5
REMARK                            x       y       z     vdW  Elec       q    Type
REMARK                         _______ _______ _______ _____ _____    ______ ____
ROOT
ATOM      1  C   UNL     1      33.837 -19.384 -20.967  0.00  0.00    -0.022 C 
ATOM      2  C   UNL     1      33.022 -20.422 -20.267  0.00  0.00    +0.031 C 
ATOM      3  C   UNL     1      35.171 -19.440 -21.066  0.00  0.00    +0.041 C 
ENDROOT
BRANCH   3   5
ATOM      4  O   UNL     1      36.014 -18.367 -22.997  0.00  0.00    -0.283 OA
ATOM      5  C   UNL     1      35.884 -18.363 -21.778  0.00  0.00    +0.234 C 
ENDBRANCH   3   5
TORSDOF 1
ENDMDL
