MODEL 1
REMARK VINA RESULT:      -8.5      0.000      0.000
REMARK  Name = 46937073
REMARK  4 active torsions:
REMARK  status: ('A' for Active; 'I' for Inactive)
REMARK    1  A    between atoms: C_1  and  O_10
REMARK    2  A    between atoms: C_5  and  O_8
REMARK    3  A    between atoms: O_10  and  C_11
REMARK    4  A    between atoms: C_11  and  C_13
REMARK                            x       y       z     vdW  Elec       q    Type
REMARK                         _______ _______ _______ _____ _____    ______ ____
ROOT
ATOM      1  C   UNL     1      34.868 -16.536 -22.560  0.00  0.00    +0.138 C 
ATOM      2  C   UNL     1      34.322 -15.441 -21.888  0.00  0.00    +0.012 C 
ATOM      3  C   UNL     1      34.710 -16.657 -23.940  0.00  0.00    +0.073 C 
ATOM      4  C   UNL     1      33.616 -14.470 -22.598  0.00  0.00    +0.002 C 
ATOM      5  C   UNL     1      34.004 -15.685 -24.649  0.00  0.00    +0.142 C 
ATOM      6  C   UNL     1      33.457 -14.591 -23.978  0.00  0.00    +0.037 C 
ATOM      7  C   UNL     1      34.481 -15.294 -20.411  0.00  0.00    +0.034 C 
ENDROOT
BRANCH   5   8
ATOM      8  O   UNL     1      33.848 -15.804 -25.996  0.00  0.00    -0.471 OA
ATOM      9  C   UNL     1      32.990 -14.860 -26.636  0.00  0.00    +0.252 C 
ENDBRANCH   5   8
BRANCH   1  10
ATOM     10  O   UNL     1      35.562 -17.493 -21.882  0.00  0.00    -0.471 OA
BRANCH  10  11
ATOM     11  C   UNL     1      35.477 -18.828 -22.377  0.00  0.00    +0.232 C 
BRANCH  11  13
ATOM     12  N   UNL     1      33.676 -21.326 -19.382  0.00  0.00    -0.242 NA
ATOM     13  C   UNL     1      34.848 -19.700 -21.331  0.00  0.00    +0.024 C 
ATOM     14  C   UNL     1      35.638 -20.542 -20.556  0.00  0.00    +0.020 C 
ATOM     15  C   UNL     1      33.471 -19.670 -21.133  0.00  0.00    +0.020 C 
ATOM     16  C   UNL     1      35.009 -21.327 -19.604  0.00  0.00    +0.099 C 
ATOM     17  C   UNL     1      32.939 -20.495 -20.155  0.00  0.00    +0.099 C 
ENDBRANCH  11  13
ENDBRANCH  10  11
ENDBRANCH   1  10
TORSDOF 4
ENDMDL
MODEL 2
REMARK VINA RESULT:      -8.4      1.620      2.888
REMARK  Name = 46937073
REMARK  4 active torsions:
REMARK  status: ('A' for Active; 'I' for Inactive)
REMARK    1  A    between atoms: C_1  and  O_10
REMARK    2  A    between atoms: C_5  and  O_8
REMARK    3  A    between atoms: O_10  and  C_11
REMARK    4  A    between atoms: C_11  and  C_13
REMARK                            x       y       z     vdW  Elec       q    Type
REMARK                         _______ _______ _______ _____ _____    ______ ____
ROOT
ATOM      1  C   UNL     1      34.827 -17.985 -22.815  0.00  0.00    +0.138 C 
ATOM      2  C   UNL     1      34.729 -18.258 -24.180  0.00  0.00    +0.012 C 
ATOM      3  C   UNL     1      34.742 -16.670 -22.359  0.00  0.00    +0.073 C 
ATOM      4  C   UNL     1      34.546 -17.213 -25.088  0.00  0.00    +0.002 C 
ATOM      5  C   UNL     1      34.559 -15.627 -23.266  0.00  0.00    +0.142 C 
ATOM      6  C   UNL     1      34.461 -15.898 -24.631  0.00  0.00    +0.037 C 
ATOM      7  C   UNL     1      34.818 -19.659 -24.688  0.00  0.00    +0.034 C 
ENDROOT
BRANCH   5   8
ATOM      8  O   UNL     1      34.477 -14.344 -22.820  0.00  0.00    -0.471 OA
ATOM      9  C   UNL     1      33.864 -13.393 -23.690  0.00  0.00    +0.252 C 
ENDBRANCH   5   8
BRANCH   1  10
ATOM     10  O   UNL     1      35.005 -18.993 -21.916  0.00  0.00    -0.471 OA
BRANCH  10  11
ATOM     11  C   UNL     1      33.852 -19.438 -21.205  0.00  0.00    +0.232 C 
BRANCH  11  13
ATOM     12  N   UNL     1      35.005 -22.530 -18.455  0.00  0.00    -0.242 NA
ATOM     13  C   UNL     1      34.254 -20.519 -20.245  0.00  0.00    +0.024 C 
ATOM     14  C   UNL     1      33.285 -21.309 -19.636  0.00  0.00    +0.020 C 
ATOM     15  C   UNL     1      35.599 -20.733 -19.959  0.00  0.00    +0.020 C 
ATOM     16  C   UNL     1      33.709 -22.292 -18.757  0.00  0.00    +0.099 C 
ATOM     17  C   UNL     1      35.919 -21.742 -19.065  0.00  0.00    +0.099 C 
ENDBRANCH  11  13
ENDBRANCH  10  11
ENDBRANCH   1  10
TORSDOF 4
ENDMDL
MODEL 3
REMARK VINA RESULT:      -8.2      2.779      6.911
REMARK  Name = 46937073
REMARK  4 active torsions:
REMARK  status: ('A' for Active; 'I' for Inactive)
REMARK    1  A    between atoms: C_1  and  O_10
REMARK    2  A    between atoms: C_5  and  O_8
REMARK    3  A    between atoms: O_10  and  C_11
REMARK    4  A    between atoms: C_11  and  C_13
REMARK                            x       y       z     vdW  Elec       q    Type
REMARK                         _______ _______ _______ _____ _____    ______ ____
ROOT
ATOM      1  C   UNL     1      35.184 -20.331 -20.533  0.00  0.00    +0.138 C 
ATOM      2  C   UNL     1      33.866 -20.681 -20.236  0.00  0.00    +0.012 C 
ATOM      3  C   UNL     1      36.232 -20.860 -19.781  0.00  0.00    +0.073 C 
ATOM      4  C   UNL     1      33.598 -21.560 -19.186  0.00  0.00    +0.002 C 
ATOM      5  C   UNL     1      35.963 -21.739 -18.732  0.00  0.00    +0.142 C 
ATOM      6  C   UNL     1      34.646 -22.090 -18.434  0.00  0.00    +0.037 C 
ATOM      7  C   UNL     1      32.731 -20.124 -21.030  0.00  0.00    +0.034 C 
ENDROOT
BRANCH   5   8
ATOM      8  O   UNL     1      36.987 -22.256 -17.997  0.00  0.00    -0.471 OA
ATOM      9  C   UNL     1      36.919 -22.087 -16.581  0.00  0.00    +0.252 C 
ENDBRANCH   5   8
BRANCH   1  10
ATOM     10  O   UNL     1      35.463 -19.474 -21.555  0.00  0.00    -0.471 OA
BRANCH  10  11
ATOM     11  C   UNL     1      35.571 -18.090 -21.229  0.00  0.00    +0.232 C 
BRANCH  11  13
ATOM     12  N   UNL     1      34.197 -15.754 -24.561  0.00  0.00    -0.242 NA
ATOM     13  C   UNL     1      35.091 -17.274 -22.393  0.00  0.00    +0.024 C 
ATOM     14  C   UNL     1      35.013 -17.843 -23.660  0.00  0.00    +0.020 C 
ATOM     15  C   UNL     1      34.722 -15.945 -22.209  0.00  0.00    +0.020 C 
ATOM     16  C   UNL     1      34.564 -17.047 -24.701  0.00  0.00    +0.099 C 
ATOM     17  C   UNL     1      34.286 -15.235 -23.315  0.00  0.00    +0.099 C 
ENDBRANCH  11  13
ENDBRANCH  10  11
ENDBRANCH   1  10
TORSDOF 4
ENDMDL
MODEL 4
REMARK VINA RESULT:      -8.2      3.602      6.112
REMARK  Name = 46937073
REMARK  4 active torsions:
REMARK  status: ('A' for Active; 'I' for Inactive)
REMARK    1  A    between atoms: C_1  and  O_10
REMARK    2  A    between atoms: C_5  and  O_8
REMARK    3  A    between atoms: O_10  and  C_11
REMARK    4  A    between atoms: C_11  and  C_13
REMARK                            x       y       z     vdW  Elec       q    Type
REMARK                         _______ _______ _______ _____ _____    ______ ____
ROOT
ATOM      1  C   UNL     1      35.342 -21.385 -19.419  0.00  0.00    +0.138 C 
ATOM      2  C   UNL     1      33.947 -21.400 -19.455  0.00  0.00    +0.012 C 
ATOM      3  C   UNL     1      36.050 -20.484 -20.213  0.00  0.00    +0.073 C 
ATOM      4  C   UNL     1      33.262 -20.514 -20.286  0.00  0.00    +0.002 C 
ATOM      5  C   UNL     1      35.364 -19.599 -21.044  0.00  0.00    +0.142 C 
ATOM      6  C   UNL     1      33.970 -19.613 -21.081  0.00  0.00    +0.037 C 
ATOM      7  C   UNL     1      33.172 -22.358 -18.611  0.00  0.00    +0.034 C 
ENDROOT
BRANCH   5   8
ATOM      8  O   UNL     1      36.056 -18.719 -21.820  0.00  0.00    -0.471 OA
ATOM      9  C   UNL     1      35.445 -18.316 -23.046  0.00  0.00    +0.252 C 
ENDBRANCH   5   8
BRANCH   1  10
ATOM     10  O   UNL     1      36.027 -22.244 -18.612  0.00  0.00    -0.471 OA
BRANCH  10  11
ATOM     11  C   UNL     1      36.787 -21.668 -17.551  0.00  0.00    +0.232 C 
BRANCH  11  13
ATOM     12  N   UNL     1      36.442 -24.158 -14.069  0.00  0.00    -0.242 NA
ATOM     13  C   UNL     1      36.667 -22.537 -16.335  0.00  0.00    +0.024 C 
ATOM     14  C   UNL     1      37.801 -23.117 -15.775  0.00  0.00    +0.020 C 
ATOM     15  C   UNL     1      35.420 -22.768 -15.762  0.00  0.00    +0.020 C 
ATOM     16  C   UNL     1      37.635 -23.912 -14.653  0.00  0.00    +0.099 C 
ATOM     17  C   UNL     1      35.362 -23.579 -14.640  0.00  0.00    +0.099 C 
ENDBRANCH  11  13
ENDBRANCH  10  11
ENDBRANCH   1  10
TORSDOF 4
ENDMDL
MODEL 5
REMARK VINA RESULT:      -8.0      5.091      8.724
REMARK  Name = 46937073
REMARK  4 active torsions:
REMARK  status: ('A' for Active; 'I' for Inactive)
REMARK    1  A    between atoms: C_1  and  O_10
REMARK    2  A    between atoms: C_5  and  O_8
REMARK    3  A    between atoms: O_10  and  C_11
REMARK    4  A    between atoms: C_11  and  C_13
REMARK                            x       y       z     vdW  Elec       q    Type
REMARK                         _______ _______ _______ _____ _____    ______ ____
ROOT
ATOM      1  C   UNL     1      33.027 -23.076 -16.642  0.00  0.00    +0.138 C 
ATOM      2  C   UNL     1      33.143 -23.367 -15.282  0.00  0.00    +0.012 C 
ATOM      3  C   UNL     1      31.780 -22.771 -17.186  0.00  0.00    +0.073 C 
ATOM      4  C   UNL     1      32.009 -23.355 -14.468  0.00  0.00    +0.002 C 
ATOM      5  C   UNL     1      30.648 -22.759 -16.372  0.00  0.00    +0.142 C 
ATOM      6  C   UNL     1      30.762 -23.050 -15.013  0.00  0.00    +0.037 C 
ATOM      7  C   UNL     1      34.469 -23.696 -14.681  0.00  0.00    +0.034 C 
ENDROOT
BRANCH   5   8
ATOM      8  O   UNL     1      29.430 -22.462 -16.904  0.00  0.00    -0.471 OA
ATOM      9  C   UNL     1      28.429 -23.477 -16.839  0.00  0.00    +0.252 C 
ENDBRANCH   5   8
BRANCH   1  10
ATOM     10  O   UNL     1      34.124 -23.082 -17.450  0.00  0.00    -0.471 OA
BRANCH  10  11
ATOM     11  C   UNL     1      33.892 -23.078 -18.857  0.00  0.00    +0.232 C 
BRANCH  11  13
ATOM     12  N   UNL     1      35.696 -19.574 -20.566  0.00  0.00    -0.242 NA
ATOM     13  C   UNL     1      34.522 -21.854 -19.454  0.00  0.00    +0.024 C 
ATOM     14  C   UNL     1      33.731 -20.893 -20.076  0.00  0.00    +0.020 C 
ATOM     15  C   UNL     1      35.900 -21.676 -19.388  0.00  0.00    +0.020 C 
ATOM     16  C   UNL     1      34.362 -19.782 -20.611  0.00  0.00    +0.099 C 
ATOM     17  C   UNL     1      36.433 -20.529 -19.954  0.00  0.00    +0.099 C 
ENDBRANCH  11  13
ENDBRANCH  10  11
ENDBRANCH   1  10
TORSDOF 4
ENDMDL
MODEL 6
REMARK VINA RESULT:      -8.0      4.704      8.821
REMARK  Name = 46937073
REMARK  4 active torsions:
REMARK  status: ('A' for Active; 'I' for Inactive)
REMARK    1  A    between atoms: C_1  and  O_10
REMARK    2  A    between atoms: C_5  and  O_8
REMARK    3  A    between atoms: O_10  and  C_11
REMARK    4  A    between atoms: C_11  and  C_13
REMARK                            x       y       z     vdW  Elec       q    Type
REMARK                         _______ _______ _______ _____ _____    ______ ____
ROOT
ATOM      1  C   UNL     1      33.863 -23.153 -16.929  0.00  0.00    +0.138 C 
ATOM      2  C   UNL     1      34.523 -23.374 -15.719  0.00  0.00    +0.012 C 
ATOM      3  C   UNL     1      32.470 -23.166 -16.975  0.00  0.00    +0.073 C 
ATOM      4  C   UNL     1      33.788 -23.608 -14.557  0.00  0.00    +0.002 C 
ATOM      5  C   UNL     1      31.735 -23.400 -15.813  0.00  0.00    +0.142 C 
ATOM      6  C   UNL     1      32.394 -23.621 -14.603  0.00  0.00    +0.037 C 
ATOM      7  C   UNL     1      36.015 -23.365 -15.650  0.00  0.00    +0.034 C 
ENDROOT
BRANCH   5   8
ATOM      8  O   UNL     1      30.375 -23.412 -15.858  0.00  0.00    -0.471 OA
ATOM      9  C   UNL     1      29.734 -24.684 -15.766  0.00  0.00    +0.252 C 
ENDBRANCH   5   8
BRANCH   1  10
ATOM     10  O   UNL     1      34.566 -22.922 -18.073  0.00  0.00    -0.471 OA
BRANCH  10  11
ATOM     11  C   UNL     1      33.837 -22.422 -19.192  0.00  0.00    +0.232 C 
BRANCH  11  13
ATOM     12  N   UNL     1      35.936 -19.059 -20.844  0.00  0.00    -0.242 NA
ATOM     13  C   UNL     1      34.570 -21.248 -19.769  0.00  0.00    +0.024 C 
ATOM     14  C   UNL     1      35.952 -21.154 -19.639  0.00  0.00    +0.020 C 
ATOM     15  C   UNL     1      33.870 -20.247 -20.437  0.00  0.00    +0.020 C 
ATOM     16  C   UNL     1      36.581 -20.049 -20.189  0.00  0.00    +0.099 C 
ATOM     17  C   UNL     1      34.594 -19.184 -20.951  0.00  0.00    +0.099 C 
ENDBRANCH  11  13
ENDBRANCH  10  11
ENDBRANCH   1  10
TORSDOF 4
ENDMDL
MODEL 7
REMARK VINA RESULT:      -7.9      1.720      2.686
REMARK  Name = 46937073
REMARK  4 active torsions:
REMARK  status: ('A' for Active; 'I' for Inactive)
REMARK    1  A    between atoms: C_1  and  O_10
REMARK    2  A    between atoms: C_5  and  O_8
REMARK    3  A    between atoms: O_10  and  C_11
REMARK    4  A    between atoms: C_11  and  C_13
REMARK                            x       y       z     vdW  Elec       q    Type
REMARK                         _______ _______ _______ _____ _____    ______ ____
ROOT
ATOM      1  C   UNL     1      34.589 -15.672 -23.638  0.00  0.00    +0.138 C 
ATOM      2  C   UNL     1      34.175 -16.284 -24.822  0.00  0.00    +0.012 C 
ATOM      3  C   UNL     1      34.238 -14.348 -23.377  0.00  0.00    +0.073 C 
ATOM      4  C   UNL     1      33.410 -15.569 -25.745  0.00  0.00    +0.002 C 
ATOM      5  C   UNL     1      33.474 -13.635 -24.299  0.00  0.00    +0.142 C 
ATOM      6  C   UNL     1      33.059 -14.245 -25.484  0.00  0.00    +0.037 C 
ATOM      7  C   UNL     1      34.541 -17.700 -25.119  0.00  0.00    +0.034 C 
ENDROOT
BRANCH   5   8
ATOM      8  O   UNL     1      33.131 -12.342 -24.045  0.00  0.00    -0.471 OA
ATOM      9  C   UNL     1      34.040 -11.332 -24.481  0.00  0.00    +0.252 C 
ENDBRANCH   5   8
BRANCH   1  10
ATOM     10  O   UNL     1      35.335 -16.357 -22.726  0.00  0.00    -0.471 OA
BRANCH  10  11
ATOM     11  C   UNL     1      34.747 -16.584 -21.447  0.00  0.00    +0.232 C 
BRANCH  11  13
ATOM     12  N   UNL     1      35.007 -20.769 -20.511  0.00  0.00    -0.242 NA
ATOM     13  C   UNL     1      34.837 -18.046 -21.120  0.00  0.00    +0.024 C 
ATOM     14  C   UNL     1      36.080 -18.657 -20.993  0.00  0.00    +0.020 C 
ATOM     15  C   UNL     1      33.679 -18.795 -20.943  0.00  0.00    +0.020 C 
ATOM     16  C   UNL     1      36.110 -20.009 -20.691  0.00  0.00    +0.099 C 
ATOM     17  C   UNL     1      33.816 -20.140 -20.642  0.00  0.00    +0.099 C 
ENDBRANCH  11  13
ENDBRANCH  10  11
ENDBRANCH   1  10
TORSDOF 4
ENDMDL
MODEL 8
REMARK VINA RESULT:      -7.9      5.108      7.378
REMARK  Name = 46937073
REMARK  4 active torsions:
REMARK  status: ('A' for Active; 'I' for Inactive)
REMARK    1  A    between atoms: C_1  and  O_10
REMARK    2  A    between atoms: C_5  and  O_8
REMARK    3  A    between atoms: O_10  and  C_11
REMARK    4  A    between atoms: C_11  and  C_13
REMARK                            x       y       z     vdW  Elec       q    Type
REMARK                         _______ _______ _______ _____ _____    ______ ____
ROOT
ATOM      1  C   UNL     1      33.464 -10.370 -23.855  0.00  0.00    +0.138 C 
ATOM      2  C   UNL     1      34.547  -9.646 -24.356  0.00  0.00    +0.012 C 
ATOM      3  C   UNL     1      32.625  -9.797 -22.900  0.00  0.00    +0.073 C 
ATOM      4  C   UNL     1      34.790  -8.350 -23.901  0.00  0.00    +0.002 C 
ATOM      5  C   UNL     1      32.868  -8.501 -22.445  0.00  0.00    +0.142 C 
ATOM      6  C   UNL     1      33.950  -7.777 -22.946  0.00  0.00    +0.037 C 
ATOM      7  C   UNL     1      35.456 -10.243 -25.379  0.00  0.00    +0.034 C 
ENDROOT
BRANCH   5   8
ATOM      8  O   UNL     1      32.049  -7.942 -21.512  0.00  0.00    -0.471 OA
ATOM      9  C   UNL     1      32.599  -7.725 -20.213  0.00  0.00    +0.252 C 
ENDBRANCH   5   8
BRANCH   1  10
ATOM     10  O   UNL     1      33.212 -11.637 -24.290  0.00  0.00    -0.471 OA
BRANCH  10  11
ATOM     11  C   UNL     1      33.568 -12.705 -23.415  0.00  0.00    +0.232 C 
BRANCH  11  13
ATOM     12  N   UNL     1      33.763 -16.357 -25.667  0.00  0.00    -0.242 NA
ATOM     13  C   UNL     1      33.637 -13.980 -24.201  0.00  0.00    +0.024 C 
ATOM     14  C   UNL     1      33.039 -14.061 -25.455  0.00  0.00    +0.020 C 
ATOM     15  C   UNL     1      34.297 -15.088 -23.680  0.00  0.00    +0.020 C 
ATOM     16  C   UNL     1      33.131 -15.261 -26.140  0.00  0.00    +0.099 C 
ATOM     17  C   UNL     1      34.332 -16.242 -24.445  0.00  0.00    +0.099 C 
ENDBRANCH  11  13
ENDBRANCH  10  11
ENDBRANCH   1  10
TORSDOF 4
ENDMDL
MODEL 9
REMARK VINA RESULT:      -7.8      4.937      9.163
REMARK  Name = 46937073
REMARK  4 active torsions:
REMARK  status: ('A' for Active; 'I' for Inactive)
REMARK    1  A    between atoms: C_1  and  O_10
REMARK    2  A    between atoms: C_5  and  O_8
REMARK    3  A    between atoms: O_10  and  C_11
REMARK    4  A    between atoms: C_11  and  C_13
REMARK                            x       y       z     vdW  Elec       q    Type
REMARK                         _______ _______ _______ _____ _____    ______ ____
ROOT
ATOM      1  C   UNL     1      32.695 -23.108 -16.734  0.00  0.00    +0.138 C 
ATOM      2  C   UNL     1      31.526 -23.161 -15.973  0.00  0.00    +0.012 C 
ATOM      3  C   UNL     1      33.923 -23.413 -16.148  0.00  0.00    +0.073 C 
ATOM      4  C   UNL     1      31.588 -23.517 -14.625  0.00  0.00    +0.002 C 
ATOM      5  C   UNL     1      33.984 -23.770 -14.801  0.00  0.00    +0.142 C 
ATOM      6  C   UNL     1      32.816 -23.822 -14.039  0.00  0.00    +0.037 C 
ATOM      7  C   UNL     1      30.202 -22.837 -16.582  0.00  0.00    +0.034 C 
ENDROOT
BRANCH   5   8
ATOM      8  O   UNL     1      35.183 -24.067 -14.229  0.00  0.00    -0.471 OA
ATOM      9  C   UNL     1      36.235 -24.477 -15.102  0.00  0.00    +0.252 C 
ENDBRANCH   5   8
BRANCH   1  10
ATOM     10  O   UNL     1      32.652 -22.763 -18.052  0.00  0.00    -0.471 OA
BRANCH  10  11
ATOM     11  C   UNL     1      33.887 -22.774 -18.764  0.00  0.00    +0.232 C 
BRANCH  11  13
ATOM     12  N   UNL     1      34.196 -19.176 -21.089  0.00  0.00    -0.242 NA
ATOM     13  C   UNL     1      33.995 -21.518 -19.577  0.00  0.00    +0.024 C 
ATOM     14  C   UNL     1      35.241 -21.060 -19.994  0.00  0.00    +0.020 C 
ATOM     15  C   UNL     1      32.850 -20.804 -19.915  0.00  0.00    +0.020 C 
ATOM     16  C   UNL     1      35.286 -19.895 -20.741  0.00  0.00    +0.099 C 
ATOM     17  C   UNL     1      33.003 -19.650 -20.666  0.00  0.00    +0.099 C 
ENDBRANCH  11  13
ENDBRANCH  10  11
ENDBRANCH   1  10
TORSDOF 4
ENDMDL
