MODEL 1
REMARK VINA RESULT:     -10.8      0.000      0.000
REMARK  Name = 15443
REMARK  5 active torsions:
REMARK  status: ('A' for Active; 'I' for Inactive)
REMARK    1  A    between atoms: N_1  and  C_14
REMARK    2  A    between atoms: C_14  and  C_15
REMARK    3  A    between atoms: C_15  and  C_16
REMARK    4  A    between atoms: C_16  and  C_18
REMARK    5  A    between atoms: C_18  and  C_20
REMARK                            x       y       z     vdW  Elec       q    Type
REMARK                         _______ _______ _______ _____ _____    ______ ____
ROOT
ATOM      1  N   UNL     1      34.329 -15.792 -24.205  0.00  0.00    +0.389 N 
ATOM      2  N   UNL     1      33.107 -13.382 -23.278  0.00  0.00    -0.298 N 
ATOM      3  C   UNL     1      33.904 -15.664 -22.806  0.00  0.00    -0.055 C 
ATOM      4  C   UNL     1      33.416 -15.040 -25.075  0.00  0.00    -0.055 C 
ATOM      5  C   UNL     1      33.907 -14.200 -22.361  0.00  0.00    +0.069 C 
ATOM      6  C   UNL     1      33.403 -13.555 -24.706  0.00  0.00    +0.069 C 
ATOM      7  H   UNL     1      35.268 -15.404 -24.301  0.00  0.00    -0.080 HD
ATOM      8  N   UNL     1      32.980 -11.000 -23.515  0.00  0.00    -0.229 NA
ATOM      9  C   UNL     1      32.617 -12.141 -22.854  0.00  0.00    +0.132 C 
ATOM     10  C   UNL     1      31.758 -12.107 -21.747  0.00  0.00    +0.034 C 
ATOM     11  C   UNL     1      31.262 -10.881 -21.313  0.00  0.00    +0.004 C 
ATOM     12  C   UNL     1      32.477  -9.828 -23.066  0.00  0.00    +0.100 C 
ATOM     13  C   UNL     1      31.624  -9.716 -21.980  0.00  0.00    +0.021 C 
ENDROOT
BRANCH   1  14
ATOM     14  C   UNL     1      34.374 -17.198 -24.603  0.00  0.00    -0.077 C 
BRANCH  14  15
ATOM     15  C   UNL     1      35.393 -17.957 -23.749  0.00  0.00    -0.015 C 
BRANCH  15  16
ATOM     16  C   UNL     1      34.740 -19.053 -22.903  0.00  0.00    +0.067 C 
BRANCH  16  18
ATOM     17  O   UNL     1      35.640 -17.983 -20.937  0.00  0.00    -0.291 OA
ATOM     18  C   UNL     1      35.098 -18.971 -21.427  0.00  0.00    +0.173 C 
BRANCH  18  20
ATOM     19  F   UNL     1      33.823 -23.289 -18.124  0.00  0.00    -0.204 F 
ATOM     20  C   UNL     1      34.758 -20.123 -20.544  0.00  0.00    +0.035 C 
ATOM     21  C   UNL     1      33.431 -20.401 -20.302  0.00  0.00    +0.005 C 
ATOM     22  C   UNL     1      35.783 -20.869 -20.005  0.00  0.00    +0.005 C 
ATOM     23  C   UNL     1      33.113 -21.480 -19.478  0.00  0.00    +0.030 C 
ATOM     24  C   UNL     1      35.463 -21.948 -19.179  0.00  0.00    +0.030 C 
ATOM     25  C   UNL     1      34.129 -22.253 -18.916  0.00  0.00    +0.140 C 
ENDBRANCH  18  20
ENDBRANCH  16  18
ENDBRANCH  15  16
ENDBRANCH  14  15
ENDBRANCH   1  14
TORSDOF 5
ENDMDL
MODEL 2
REMARK VINA RESULT:     -10.6      1.549      2.721
REMARK  Name = 15443
REMARK  5 active torsions:
REMARK  status: ('A' for Active; 'I' for Inactive)
REMARK    1  A    between atoms: N_1  and  C_14
REMARK    2  A    between atoms: C_14  and  C_15
REMARK    3  A    between atoms: C_15  and  C_16
REMARK    4  A    between atoms: C_16  and  C_18
REMARK    5  A    between atoms: C_18  and  C_20
REMARK                            x       y       z     vdW  Elec       q    Type
REMARK                         _______ _______ _______ _____ _____    ______ ____
ROOT
ATOM      1  N   UNL     1      32.662 -13.893 -22.722  0.00  0.00    +0.389 N 
ATOM      2  N   UNL     1      33.058 -11.101 -23.178  0.00  0.00    -0.298 N 
ATOM      3  C   UNL     1      33.832 -13.421 -23.473  0.00  0.00    -0.055 C 
ATOM      4  C   UNL     1      32.304 -12.914 -21.689  0.00  0.00    -0.055 C 
ATOM      5  C   UNL     1      33.545 -12.081 -24.155  0.00  0.00    +0.069 C 
ATOM      6  C   UNL     1      31.965 -11.558 -22.311  0.00  0.00    +0.069 C 
ATOM      7  H   UNL     1      31.877 -13.995 -23.366  0.00  0.00    -0.080 HD
ATOM      8  N   UNL     1      32.005  -8.974 -23.514  0.00  0.00    -0.229 NA
ATOM      9  C   UNL     1      33.142  -9.734 -23.466  0.00  0.00    +0.132 C 
ATOM     10  C   UNL     1      34.407  -9.178 -23.701  0.00  0.00    +0.034 C 
ATOM     11  C   UNL     1      34.507  -7.820 -23.988  0.00  0.00    +0.004 C 
ATOM     12  C   UNL     1      32.142  -7.658 -23.795  0.00  0.00    +0.100 C 
ATOM     13  C   UNL     1      33.358  -7.039 -24.038  0.00  0.00    +0.021 C 
ENDROOT
BRANCH   1  14
ATOM     14  C   UNL     1      32.931 -15.198 -22.120  0.00  0.00    -0.077 C 
BRANCH  14  15
ATOM     15  C   UNL     1      34.388 -15.602 -22.360  0.00  0.00    -0.015 C 
BRANCH  15  16
ATOM     16  C   UNL     1      34.891 -16.605 -21.319  0.00  0.00    +0.067 C 
BRANCH  16  18
ATOM     17  O   UNL     1      35.719 -18.165 -22.964  0.00  0.00    -0.291 OA
ATOM     18  C   UNL     1      35.147 -17.992 -21.890  0.00  0.00    +0.173 C 
BRANCH  18  20
ATOM     19  F   UNL     1      33.497 -22.445 -18.953  0.00  0.00    -0.204 F 
ATOM     20  C   UNL     1      34.706 -19.180 -21.105  0.00  0.00    +0.035 C 
ATOM     21  C   UNL     1      33.357 -19.403 -20.944  0.00  0.00    +0.005 C 
ATOM     22  C   UNL     1      35.665 -20.012 -20.571  0.00  0.00    +0.005 C 
ATOM     23  C   UNL     1      32.945 -20.516 -20.211  0.00  0.00    +0.030 C 
ATOM     24  C   UNL     1      35.252 -21.125 -19.837  0.00  0.00    +0.030 C 
ATOM     25  C   UNL     1      33.893 -21.376 -19.657  0.00  0.00    +0.140 C 
ENDBRANCH  18  20
ENDBRANCH  16  18
ENDBRANCH  15  16
ENDBRANCH  14  15
ENDBRANCH   1  14
TORSDOF 5
ENDMDL
MODEL 3
REMARK VINA RESULT:     -10.1      1.728      2.969
REMARK  Name = 15443
REMARK  5 active torsions:
REMARK  status: ('A' for Active; 'I' for Inactive)
REMARK    1  A    between atoms: N_1  and  C_14
REMARK    2  A    between atoms: C_14  and  C_15
REMARK    3  A    between atoms: C_15  and  C_16
REMARK    4  A    between atoms: C_16  and  C_18
REMARK    5  A    between atoms: C_18  and  C_20
REMARK                            x       y       z     vdW  Elec       q    Type
REMARK                         _______ _______ _______ _____ _____    ______ ____
ROOT
ATOM      1  N   UNL     1      33.270 -13.196 -22.780  0.00  0.00    +0.389 N 
ATOM      2  N   UNL     1      32.707 -10.454 -23.348  0.00  0.00    -0.298 N 
ATOM      3  C   UNL     1      32.024 -12.580 -22.309  0.00  0.00    -0.055 C 
ATOM      4  C   UNL     1      33.662 -12.608 -24.067  0.00  0.00    -0.055 C 
ATOM      5  C   UNL     1      32.192 -11.070 -22.121  0.00  0.00    +0.069 C 
ATOM      6  C   UNL     1      33.886 -11.101 -23.938  0.00  0.00    +0.069 C 
ATOM      7  H   UNL     1      34.006 -13.013 -22.097  0.00  0.00    -0.080 HD
ATOM      8  N   UNL     1      33.627  -8.270 -23.714  0.00  0.00    -0.229 NA
ATOM      9  C   UNL     1      32.535  -9.080 -23.559  0.00  0.00    +0.132 C 
ATOM     10  C   UNL     1      31.230  -8.571 -23.606  0.00  0.00    +0.034 C 
ATOM     11  C   UNL     1      31.043  -7.208 -23.816  0.00  0.00    +0.004 C 
ATOM     12  C   UNL     1      33.406  -6.952 -23.917  0.00  0.00    +0.100 C 
ATOM     13  C   UNL     1      32.146  -6.377 -23.976  0.00  0.00    +0.021 C 
ENDROOT
BRANCH   1  14
ATOM     14  C   UNL     1      33.113 -14.644 -22.904  0.00  0.00    -0.077 C 
BRANCH  14  15
ATOM     15  C   UNL     1      34.457 -15.343 -22.683  0.00  0.00    -0.015 C 
BRANCH  15  16
ATOM     16  C   UNL     1      34.360 -16.477 -21.659  0.00  0.00    +0.067 C 
BRANCH  16  18
ATOM     17  O   UNL     1      34.659 -18.030 -23.482  0.00  0.00    -0.291 OA
ATOM     18  C   UNL     1      34.521 -17.860 -22.272  0.00  0.00    +0.173 C 
BRANCH  18  20
ATOM     19  F   UNL     1      34.568 -22.296 -18.881  0.00  0.00    -0.204 F 
ATOM     20  C   UNL     1      34.534 -19.045 -21.368  0.00  0.00    +0.035 C 
ATOM     21  C   UNL     1      35.747 -19.577 -20.992  0.00  0.00    +0.005 C 
ATOM     22  C   UNL     1      33.331 -19.563 -20.940  0.00  0.00    +0.005 C 
ATOM     23  C   UNL     1      35.758 -20.684 -20.144  0.00  0.00    +0.030 C 
ATOM     24  C   UNL     1      33.344 -20.672 -20.092  0.00  0.00    +0.030 C 
ATOM     25  C   UNL     1      34.557 -21.232 -19.695  0.00  0.00    +0.140 C 
ENDBRANCH  18  20
ENDBRANCH  16  18
ENDBRANCH  15  16
ENDBRANCH  14  15
ENDBRANCH   1  14
TORSDOF 5
ENDMDL
MODEL 4
REMARK VINA RESULT:     -10.1      5.569     10.272
REMARK  Name = 15443
REMARK  5 active torsions:
REMARK  status: ('A' for Active; 'I' for Inactive)
REMARK    1  A    between atoms: N_1  and  C_14
REMARK    2  A    between atoms: C_14  and  C_15
REMARK    3  A    between atoms: C_15  and  C_16
REMARK    4  A    between atoms: C_16  and  C_18
REMARK    5  A    between atoms: C_18  and  C_20
REMARK                            x       y       z     vdW  Elec       q    Type
REMARK                         _______ _______ _______ _____ _____    ______ ____
ROOT
ATOM      1  N   UNL     1      35.655 -22.416 -17.899  0.00  0.00    +0.389 N 
ATOM      2  N   UNL     1      33.496 -23.142 -16.176  0.00  0.00    -0.298 N 
ATOM      3  C   UNL     1      34.265 -22.260 -18.343  0.00  0.00    -0.055 C 
ATOM      4  C   UNL     1      35.747 -22.178 -16.453  0.00  0.00    -0.055 C 
ATOM      5  C   UNL     1      33.344 -23.253 -17.630  0.00  0.00    +0.069 C 
ATOM      6  C   UNL     1      34.877 -23.168 -15.677  0.00  0.00    +0.069 C 
ATOM      7  H   UNL     1      35.959 -23.369 -18.096  0.00  0.00    -0.080 HD
ATOM      8  N   UNL     1      32.755 -24.604 -14.426  0.00  0.00    -0.229 NA
ATOM      9  C   UNL     1      32.483 -23.617 -15.334  0.00  0.00    +0.132 C 
ATOM     10  C   UNL     1      31.203 -23.059 -15.449  0.00  0.00    +0.034 C 
ATOM     11  C   UNL     1      30.186 -23.520 -14.620  0.00  0.00    +0.004 C 
ATOM     12  C   UNL     1      31.743 -25.026 -13.637  0.00  0.00    +0.100 C 
ATOM     13  C   UNL     1      30.453 -24.522 -13.693  0.00  0.00    +0.021 C 
ENDROOT
BRANCH   1  14
ATOM     14  C   UNL     1      36.532 -21.499 -18.626  0.00  0.00    -0.077 C 
BRANCH  14  15
ATOM     15  C   UNL     1      36.086 -21.384 -20.085  0.00  0.00    -0.015 C 
BRANCH  15  16
ATOM     16  C   UNL     1      36.123 -19.940 -20.592  0.00  0.00    +0.067 C 
BRANCH  16  18
ATOM     17  O   UNL     1      33.719 -19.726 -20.608  0.00  0.00    -0.291 OA
ATOM     18  C   UNL     1      34.790 -19.460 -21.149  0.00  0.00    +0.173 C 
BRANCH  18  20
ATOM     19  F   UNL     1      34.798 -16.314 -25.762  0.00  0.00    -0.204 F 
ATOM     20  C   UNL     1      34.791 -18.620 -22.380  0.00  0.00    +0.035 C 
ATOM     21  C   UNL     1      34.996 -17.264 -22.255  0.00  0.00    +0.005 C 
ATOM     22  C   UNL     1      34.588 -19.231 -23.597  0.00  0.00    +0.005 C 
ATOM     23  C   UNL     1      34.999 -16.478 -23.407  0.00  0.00    +0.030 C 
ATOM     24  C   UNL     1      34.591 -18.444 -24.750  0.00  0.00    +0.030 C 
ATOM     25  C   UNL     1      34.796 -17.068 -24.654  0.00  0.00    +0.140 C 
ENDBRANCH  18  20
ENDBRANCH  16  18
ENDBRANCH  15  16
ENDBRANCH  14  15
ENDBRANCH   1  14
TORSDOF 5
ENDMDL
MODEL 5
REMARK VINA RESULT:     -10.0      2.724      4.598
REMARK  Name = 15443
REMARK  5 active torsions:
REMARK  status: ('A' for Active; 'I' for Inactive)
REMARK    1  A    between atoms: N_1  and  C_14
REMARK    2  A    between atoms: C_14  and  C_15
REMARK    3  A    between atoms: C_15  and  C_16
REMARK    4  A    between atoms: C_16  and  C_18
REMARK    5  A    between atoms: C_18  and  C_20
REMARK                            x       y       z     vdW  Elec       q    Type
REMARK                         _______ _______ _______ _____ _____    ______ ____
ROOT
ATOM      1  N   UNL     1      32.706 -12.238 -22.342  0.00  0.00    +0.389 N 
ATOM      2  N   UNL     1      32.381  -9.580 -23.336  0.00  0.00    -0.298 N 
ATOM      3  C   UNL     1      31.517 -11.453 -21.991  0.00  0.00    -0.055 C 
ATOM      4  C   UNL     1      33.149 -11.893 -23.699  0.00  0.00    -0.055 C 
ATOM      5  C   UNL     1      31.814  -9.953 -22.036  0.00  0.00    +0.069 C 
ATOM      6  C   UNL     1      33.501 -10.408 -23.801  0.00  0.00    +0.069 C 
ATOM      7  H   UNL     1      33.454 -12.015 -21.685  0.00  0.00    -0.080 HD
ATOM      8  N   UNL     1      33.486  -7.565 -24.021  0.00  0.00    -0.229 NA
ATOM      9  C   UNL     1      32.328  -8.246 -23.759  0.00  0.00    +0.132 C 
ATOM     10  C   UNL     1      31.072  -7.641 -23.903  0.00  0.00    +0.034 C 
ATOM     11  C   UNL     1      31.004  -6.317 -24.323  0.00  0.00    +0.004 C 
ATOM     12  C   UNL     1      33.380  -6.281 -24.428  0.00  0.00    +0.100 C 
ATOM     13  C   UNL     1      32.174  -5.617 -24.593  0.00  0.00    +0.021 C 
ENDROOT
BRANCH   1  14
ATOM     14  C   UNL     1      32.425 -13.670 -22.244  0.00  0.00    -0.077 C 
BRANCH  14  15
ATOM     15  C   UNL     1      32.434 -14.111 -20.778  0.00  0.00    -0.015 C 
BRANCH  15  16
ATOM     16  C   UNL     1      32.654 -15.619 -20.628  0.00  0.00    +0.067 C 
BRANCH  16  18
ATOM     17  O   UNL     1      35.033 -15.549 -20.227  0.00  0.00    -0.291 OA
ATOM     18  C   UNL     1      34.098 -16.044 -20.852  0.00  0.00    +0.173 C 
BRANCH  18  20
ATOM     19  F   UNL     1      35.150 -20.054 -24.593  0.00  0.00    -0.204 F 
ATOM     20  C   UNL     1      34.380 -17.115 -21.850  0.00  0.00    +0.035 C 
ATOM     21  C   UNL     1      34.383 -18.426 -21.431  0.00  0.00    +0.005 C 
ATOM     22  C   UNL     1      34.626 -16.753 -23.156  0.00  0.00    +0.005 C 
ATOM     23  C   UNL     1      34.645 -19.428 -22.365  0.00  0.00    +0.030 C 
ATOM     24  C   UNL     1      34.889 -17.755 -24.091  0.00  0.00    +0.030 C 
ATOM     25  C   UNL     1      34.898 -19.092 -23.695  0.00  0.00    +0.140 C 
ENDBRANCH  18  20
ENDBRANCH  16  18
ENDBRANCH  15  16
ENDBRANCH  14  15
ENDBRANCH   1  14
TORSDOF 5
ENDMDL
MODEL 6
REMARK VINA RESULT:     -10.0      2.797      4.502
REMARK  Name = 15443
REMARK  5 active torsions:
REMARK  status: ('A' for Active; 'I' for Inactive)
REMARK    1  A    between atoms: N_1  and  C_14
REMARK    2  A    between atoms: C_14  and  C_15
REMARK    3  A    between atoms: C_15  and  C_16
REMARK    4  A    between atoms: C_16  and  C_18
REMARK    5  A    between atoms: C_18  and  C_20
REMARK                            x       y       z     vdW  Elec       q    Type
REMARK                         _______ _______ _______ _____ _____    ______ ____
ROOT
ATOM      1  N   UNL     1      32.125 -13.073 -22.785  0.00  0.00    +0.389 N 
ATOM      2  N   UNL     1      32.797 -10.342 -23.289  0.00  0.00    -0.298 N 
ATOM      3  C   UNL     1      33.350 -12.732 -23.519  0.00  0.00    -0.055 C 
ATOM      4  C   UNL     1      31.842 -12.040 -21.780  0.00  0.00    -0.055 C 
ATOM      5  C   UNL     1      33.207 -11.386 -24.235  0.00  0.00    +0.069 C 
ATOM      6  C   UNL     1      31.648 -10.673 -22.438  0.00  0.00    +0.069 C 
ATOM      7  H   UNL     1      31.347 -13.113 -23.444  0.00  0.00    -0.080 HD
ATOM      8  N   UNL     1      31.961  -8.132 -23.693  0.00  0.00    -0.229 NA
ATOM      9  C   UNL     1      33.018  -8.996 -23.604  0.00  0.00    +0.132 C 
ATOM     10  C   UNL     1      34.336  -8.570 -23.821  0.00  0.00    +0.034 C 
ATOM     11  C   UNL     1      34.571  -7.235 -24.134  0.00  0.00    +0.004 C 
ATOM     12  C   UNL     1      32.229  -6.843 -23.998  0.00  0.00    +0.100 C 
ATOM     13  C   UNL     1      33.504  -6.348 -24.226  0.00  0.00    +0.021 C 
ENDROOT
BRANCH   1  14
ATOM     14  C   UNL     1      32.255 -14.383 -22.150  0.00  0.00    -0.077 C 
BRANCH  14  15
ATOM     15  C   UNL     1      33.190 -14.295 -20.941  0.00  0.00    -0.015 C 
BRANCH  15  16
ATOM     16  C   UNL     1      34.626 -14.698 -21.288  0.00  0.00    +0.067 C 
BRANCH  16  18
ATOM     17  O   UNL     1      35.205 -16.580 -19.892  0.00  0.00    -0.291 OA
ATOM     18  C   UNL     1      34.925 -16.165 -21.015  0.00  0.00    +0.173 C 
BRANCH  18  20
ATOM     19  F   UNL     1      34.646 -19.784 -25.258  0.00  0.00    -0.204 F 
ATOM     20  C   UNL     1      34.851 -17.131 -22.147  0.00  0.00    +0.035 C 
ATOM     21  C   UNL     1      34.692 -18.470 -21.865  0.00  0.00    +0.005 C 
ATOM     22  C   UNL     1      34.945 -16.650 -23.434  0.00  0.00    +0.005 C 
ATOM     23  C   UNL     1      34.621 -19.373 -22.925  0.00  0.00    +0.030 C 
ATOM     24  C   UNL     1      34.875 -17.555 -24.495  0.00  0.00    +0.030 C 
ATOM     25  C   UNL     1      34.713 -18.916 -24.239  0.00  0.00    +0.140 C 
ENDBRANCH  18  20
ENDBRANCH  16  18
ENDBRANCH  15  16
ENDBRANCH  14  15
ENDBRANCH   1  14
TORSDOF 5
ENDMDL
MODEL 7
REMARK VINA RESULT:      -9.9      5.765     11.121
REMARK  Name = 15443
REMARK  5 active torsions:
REMARK  status: ('A' for Active; 'I' for Inactive)
REMARK    1  A    between atoms: N_1  and  C_14
REMARK    2  A    between atoms: C_14  and  C_15
REMARK    3  A    between atoms: C_15  and  C_16
REMARK    4  A    between atoms: C_16  and  C_18
REMARK    5  A    between atoms: C_18  and  C_20
REMARK                            x       y       z     vdW  Elec       q    Type
REMARK                         _______ _______ _______ _____ _____    ______ ____
ROOT
ATOM      1  N   UNL     1      34.452 -22.269 -17.665  0.00  0.00    +0.389 N 
ATOM      2  N   UNL     1      35.909 -23.601 -15.600  0.00  0.00    -0.298 N 
ATOM      3  C   UNL     1      35.920 -22.264 -17.669  0.00  0.00    -0.055 C 
ATOM      4  C   UNL     1      33.959 -23.534 -17.106  0.00  0.00    -0.055 C 
ATOM      5  C   UNL     1      36.475 -22.414 -16.250  0.00  0.00    +0.069 C 
ATOM      6  C   UNL     1      34.448 -23.726 -15.669  0.00  0.00    +0.069 C 
ATOM      7  H   UNL     1      34.122 -21.500 -17.082  0.00  0.00    -0.080 HD
ATOM      8  N   UNL     1      35.935 -24.262 -13.296  0.00  0.00    -0.229 NA
ATOM      9  C   UNL     1      36.568 -24.173 -14.506  0.00  0.00    +0.132 C 
ATOM     10  C   UNL     1      37.876 -24.643 -14.686  0.00  0.00    +0.034 C 
ATOM     11  C   UNL     1      38.544 -25.214 -13.608  0.00  0.00    +0.004 C 
ATOM     12  C   UNL     1      36.615 -24.825 -12.272  0.00  0.00    +0.100 C 
ATOM     13  C   UNL     1      37.909 -25.311 -12.375  0.00  0.00    +0.021 C 
ENDROOT
BRANCH   1  14
ATOM     14  C   UNL     1      33.934 -22.071 -19.018  0.00  0.00    -0.077 C 
BRANCH  14  15
ATOM     15  C   UNL     1      34.963 -21.331 -19.876  0.00  0.00    -0.015 C 
BRANCH  15  16
ATOM     16  C   UNL     1      34.356 -20.126 -20.601  0.00  0.00    +0.067 C 
BRANCH  16  18
ATOM     17  O   UNL     1      36.445 -18.924 -20.475  0.00  0.00    -0.291 OA
ATOM     18  C   UNL     1      35.395 -19.124 -21.082  0.00  0.00    +0.173 C 
BRANCH  18  20
ATOM     19  F   UNL     1      34.418 -16.328 -25.816  0.00  0.00    -0.204 F 
ATOM     20  C   UNL     1      35.135 -18.378 -22.346  0.00  0.00    +0.035 C 
ATOM     21  C   UNL     1      34.856 -19.092 -23.490  0.00  0.00    +0.005 C 
ATOM     22  C   UNL     1      35.183 -17.002 -22.323  0.00  0.00    +0.005 C 
ATOM     23  C   UNL     1      34.610 -18.393 -24.672  0.00  0.00    +0.030 C 
ATOM     24  C   UNL     1      34.938 -16.303 -23.507  0.00  0.00    +0.030 C 
ATOM     25  C   UNL     1      34.653 -16.999 -24.680  0.00  0.00    +0.140 C 
ENDBRANCH  18  20
ENDBRANCH  16  18
ENDBRANCH  15  16
ENDBRANCH  14  15
ENDBRANCH   1  14
TORSDOF 5
ENDMDL
MODEL 8
REMARK VINA RESULT:      -9.9      4.284      9.579
REMARK  Name = 15443
REMARK  5 active torsions:
REMARK  status: ('A' for Active; 'I' for Inactive)
REMARK    1  A    between atoms: N_1  and  C_14
REMARK    2  A    between atoms: C_14  and  C_15
REMARK    3  A    between atoms: C_15  and  C_16
REMARK    4  A    between atoms: C_16  and  C_18
REMARK    5  A    between atoms: C_18  and  C_20
REMARK                            x       y       z     vdW  Elec       q    Type
REMARK                         _______ _______ _______ _____ _____    ______ ____
ROOT
ATOM      1  N   UNL     1      35.242 -17.089 -23.428  0.00  0.00    +0.389 N 
ATOM      2  N   UNL     1      34.889 -19.134 -21.464  0.00  0.00    -0.298 N 
ATOM      3  C   UNL     1      34.239 -18.143 -23.623  0.00  0.00    -0.055 C 
ATOM      4  C   UNL     1      35.365 -16.775 -21.999  0.00  0.00    -0.055 C 
ATOM      5  C   UNL     1      34.630 -19.421 -22.878  0.00  0.00    +0.069 C 
ATOM      6  C   UNL     1      35.794 -18.007 -21.200  0.00  0.00    +0.069 C 
ATOM      7  H   UNL     1      36.143 -17.425 -23.769  0.00  0.00    -0.080 HD
ATOM      8  N   UNL     1      35.945 -20.475 -19.780  0.00  0.00    -0.229 NA
ATOM      9  C   UNL     1      34.838 -20.170 -20.524  0.00  0.00    +0.132 C 
ATOM     10  C   UNL     1      33.635 -20.873 -20.372  0.00  0.00    +0.034 C 
ATOM     11  C   UNL     1      33.567 -21.905 -19.442  0.00  0.00    +0.004 C 
ATOM     12  C   UNL     1      35.841 -21.483 -18.886  0.00  0.00    +0.100 C 
ATOM     13  C   UNL     1      34.687 -22.222 -18.681  0.00  0.00    +0.021 C 
ENDROOT
BRANCH   1  14
ATOM     14  C   UNL     1      34.884 -15.892 -24.186  0.00  0.00    -0.077 C 
BRANCH  14  15
ATOM     15  C   UNL     1      33.738 -15.150 -23.493  0.00  0.00    -0.015 C 
BRANCH  15  16
ATOM     16  C   UNL     1      34.088 -13.688 -23.199  0.00  0.00    +0.067 C 
BRANCH  16  18
ATOM     17  O   UNL     1      33.280 -13.134 -25.404  0.00  0.00    -0.291 OA
ATOM     18  C   UNL     1      33.696 -12.736 -24.318  0.00  0.00    +0.173 C 
BRANCH  18  20
ATOM     19  F   UNL     1      34.083  -7.238 -23.417  0.00  0.00    -0.204 F 
ATOM     20  C   UNL     1      33.800 -11.268 -24.077  0.00  0.00    +0.035 C 
ATOM     21  C   UNL     1      34.859 -10.581 -24.626  0.00  0.00    +0.005 C 
ATOM     22  C   UNL     1      32.832 -10.653 -23.314  0.00  0.00    +0.005 C 
ATOM     23  C   UNL     1      34.955  -9.208 -24.402  0.00  0.00    +0.030 C 
ATOM     24  C   UNL     1      32.929  -9.279 -23.089  0.00  0.00    +0.030 C 
ATOM     25  C   UNL     1      33.991  -8.558 -23.633  0.00  0.00    +0.140 C 
ENDBRANCH  18  20
ENDBRANCH  16  18
ENDBRANCH  15  16
ENDBRANCH  14  15
ENDBRANCH   1  14
TORSDOF 5
ENDMDL
MODEL 9
REMARK VINA RESULT:      -9.8      5.284     10.196
REMARK  Name = 15443
REMARK  5 active torsions:
REMARK  status: ('A' for Active; 'I' for Inactive)
REMARK    1  A    between atoms: N_1  and  C_14
REMARK    2  A    between atoms: C_14  and  C_15
REMARK    3  A    between atoms: C_15  and  C_16
REMARK    4  A    between atoms: C_16  and  C_18
REMARK    5  A    between atoms: C_18  and  C_20
REMARK                            x       y       z     vdW  Elec       q    Type
REMARK                         _______ _______ _______ _____ _____    ______ ____
ROOT
ATOM      1  N   UNL     1      35.393 -22.331 -18.486  0.00  0.00    +0.389 N 
ATOM      2  N   UNL     1      33.512 -23.032 -16.454  0.00  0.00    -0.298 N 
ATOM      3  C   UNL     1      33.957 -22.115 -18.696  0.00  0.00    -0.055 C 
ATOM      4  C   UNL     1      35.726 -22.140 -17.069  0.00  0.00    -0.055 C 
ATOM      5  C   UNL     1      33.125 -23.096 -17.867  0.00  0.00    +0.069 C 
ATOM      6  C   UNL     1      34.953 -23.122 -16.186  0.00  0.00    +0.069 C 
ATOM      7  H   UNL     1      35.624 -23.289 -18.751  0.00  0.00    -0.080 HD
ATOM      8  N   UNL     1      33.005 -24.519 -14.642  0.00  0.00    -0.229 NA
ATOM      9  C   UNL     1      32.630 -23.497 -15.471  0.00  0.00    +0.132 C 
ATOM     10  C   UNL     1      31.371 -22.891 -15.365  0.00  0.00    +0.034 C 
ATOM     11  C   UNL     1      30.483 -23.341 -14.393  0.00  0.00    +0.004 C 
ATOM     12  C   UNL     1      32.117 -24.929 -13.710  0.00  0.00    +0.100 C 
ATOM     13  C   UNL     1      30.856 -24.378 -13.545  0.00  0.00    +0.021 C 
ENDROOT
BRANCH   1  14
ATOM     14  C   UNL     1      36.178 -21.425 -19.323  0.00  0.00    -0.077 C 
BRANCH  14  15
ATOM     15  C   UNL     1      35.251 -20.593 -20.215  0.00  0.00    -0.015 C 
BRANCH  15  16
ATOM     16  C   UNL     1      35.975 -19.405 -20.855  0.00  0.00    +0.067 C 
BRANCH  16  18
ATOM     17  O   UNL     1      34.983 -19.648 -23.042  0.00  0.00    -0.291 OA
ATOM     18  C   UNL     1      35.299 -18.898 -22.120  0.00  0.00    +0.173 C 
BRANCH  18  20
ATOM     19  F   UNL     1      34.145 -13.451 -22.538  0.00  0.00    -0.204 F 
ATOM     20  C   UNL     1      34.992 -17.443 -22.232  0.00  0.00    +0.035 C 
ATOM     21  C   UNL     1      34.969 -16.866 -23.482  0.00  0.00    +0.005 C 
ATOM     22  C   UNL     1      34.742 -16.730 -21.081  0.00  0.00    +0.005 C 
ATOM     23  C   UNL     1      34.679 -15.506 -23.586  0.00  0.00    +0.030 C 
ATOM     24  C   UNL     1      34.453 -15.369 -21.185  0.00  0.00    +0.030 C 
ATOM     25  C   UNL     1      34.422 -14.758 -22.438  0.00  0.00    +0.140 C 
ENDBRANCH  18  20
ENDBRANCH  16  18
ENDBRANCH  15  16
ENDBRANCH  14  15
ENDBRANCH   1  14
TORSDOF 5
ENDMDL
