MODEL 1
REMARK VINA RESULT:      -7.0      0.000      0.000
REMARK  Name = 40428878
REMARK  4 active torsions:
REMARK  status: ('A' for Active; 'I' for Inactive)
REMARK    1  A    between atoms: N_1  and  O_10
REMARK    2  A    between atoms: C_4  and  C_12
REMARK    3  A    between atoms: C_12  and  S_13
REMARK    4  A    between atoms: S_13  and  S_14
REMARK                            x       y       z     vdW  Elec       q    Type
REMARK                         _______ _______ _______ _____ _____    ______ ____
ROOT
ATOM      1  N   UNL     1      35.397 -16.759 -22.193  0.00  0.00    -0.175 NA
ATOM      2  C   UNL     1      35.198 -18.208 -22.459  0.00  0.00    +0.070 C 
ATOM      3  C   UNL     1      34.192 -16.234 -21.508  0.00  0.00    +0.070 C 
ATOM      4  C   UNL     1      34.135 -18.580 -21.446  0.00  0.00    +0.029 C 
ATOM      5  C   UNL     1      33.581 -17.478 -20.924  0.00  0.00    +0.019 C 
ATOM      6  C   UNL     1      36.538 -18.906 -22.191  0.00  0.00    +0.018 C 
ATOM      7  C   UNL     1      34.716 -18.544 -23.882  0.00  0.00    +0.018 C 
ATOM      8  C   UNL     1      34.654 -15.272 -20.408  0.00  0.00    +0.018 C 
ATOM      9  C   UNL     1      33.166 -15.535 -22.414  0.00  0.00    +0.018 C 
ENDROOT
BRANCH   1  10
ATOM     10  O   UNL     1      35.670 -16.031 -23.403  0.00  0.00    -0.311 OA
ATOM     11  H   UNL     1      36.462 -16.397 -23.829  0.00  0.00    +0.237 HD
ENDBRANCH   1  10
BRANCH   4  12
ATOM     12  C   UNL     1      33.759 -19.983 -21.126  0.00  0.00    +0.082 C 
BRANCH  12  13
ATOM     13  S   UNL     1      35.008 -20.730 -20.054  0.00  0.00    +0.007 S 
BRANCH  13  14
ATOM     14  S   UNL     1      33.953 -22.302 -19.152  0.00  0.00    +0.033 S 
ATOM     15  O   UNL     1      34.209 -23.500 -19.929  0.00  0.00    -0.162 OA
ATOM     16  O   UNL     1      32.597 -21.841 -18.923  0.00  0.00    -0.162 OA
ATOM     17  C   UNL     1      34.708 -22.530 -17.564  0.00  0.00    +0.189 C 
ENDBRANCH  13  14
ENDBRANCH  12  13
ENDBRANCH   4  12
TORSDOF 4
ENDMDL
MODEL 2
REMARK VINA RESULT:      -7.0      5.775      9.582
REMARK  Name = 40428878
REMARK  4 active torsions:
REMARK  status: ('A' for Active; 'I' for Inactive)
REMARK    1  A    between atoms: N_1  and  O_10
REMARK    2  A    between atoms: C_4  and  C_12
REMARK    3  A    between atoms: C_12  and  S_13
REMARK    4  A    between atoms: S_13  and  S_14
REMARK                            x       y       z     vdW  Elec       q    Type
REMARK                         _______ _______ _______ _____ _____    ______ ____
ROOT
ATOM      1  N   UNL     1      36.869 -25.269 -13.108  0.00  0.00    -0.175 NA
ATOM      2  C   UNL     1      37.026 -25.012 -14.564  0.00  0.00    +0.070 C 
ATOM      3  C   UNL     1      36.409 -24.021 -12.454  0.00  0.00    +0.070 C 
ATOM      4  C   UNL     1      36.141 -23.800 -14.775  0.00  0.00    +0.029 C 
ATOM      5  C   UNL     1      35.804 -23.256 -13.598  0.00  0.00    +0.019 C 
ATOM      6  C   UNL     1      36.511 -26.254 -15.302  0.00  0.00    +0.018 C 
ATOM      7  C   UNL     1      38.466 -24.703 -15.014  0.00  0.00    +0.018 C 
ATOM      8  C   UNL     1      35.348 -24.395 -11.413  0.00  0.00    +0.018 C 
ATOM      9  C   UNL     1      37.509 -23.174 -11.795  0.00  0.00    +0.018 C 
ENDROOT
BRANCH   1  10
ATOM     10  O   UNL     1      38.090 -25.750 -12.520  0.00  0.00    -0.311 OA
ATOM     11  H   UNL     1      37.893 -26.190 -11.678  0.00  0.00    +0.237 HD
ENDBRANCH   1  10
BRANCH   4  12
ATOM     12  C   UNL     1      35.750 -23.292 -16.118  0.00  0.00    +0.082 C 
BRANCH  12  13
ATOM     13  S   UNL     1      33.958 -23.406 -16.325  0.00  0.00    +0.007 S 
BRANCH  13  14
ATOM     14  S   UNL     1      33.704 -22.931 -18.353  0.00  0.00    +0.033 S 
ATOM     15  O   UNL     1      32.531 -22.084 -18.456  0.00  0.00    -0.162 OA
ATOM     16  O   UNL     1      33.795 -24.168 -19.104  0.00  0.00    -0.162 OA
ATOM     17  C   UNL     1      35.109 -21.943 -18.787  0.00  0.00    +0.189 C 
ENDBRANCH  13  14
ENDBRANCH  12  13
ENDBRANCH   4  12
TORSDOF 4
ENDMDL
MODEL 3
REMARK VINA RESULT:      -6.7      8.838     10.486
REMARK  Name = 40428878
REMARK  4 active torsions:
REMARK  status: ('A' for Active; 'I' for Inactive)
REMARK    1  A    between atoms: N_1  and  O_10
REMARK    2  A    between atoms: C_4  and  C_12
REMARK    3  A    between atoms: C_12  and  S_13
REMARK    4  A    between atoms: S_13  and  S_14
REMARK                            x       y       z     vdW  Elec       q    Type
REMARK                         _______ _______ _______ _____ _____    ______ ____
ROOT
ATOM      1  N   UNL     1      38.041 -24.870 -12.952  0.00  0.00    -0.175 NA
ATOM      2  C   UNL     1      36.771 -24.135 -12.713  0.00  0.00    +0.070 C 
ATOM      3  C   UNL     1      38.005 -25.445 -14.317  0.00  0.00    +0.070 C 
ATOM      4  C   UNL     1      36.289 -23.856 -14.123  0.00  0.00    +0.029 C 
ATOM      5  C   UNL     1      36.980 -24.588 -15.006  0.00  0.00    +0.019 C 
ATOM      6  C   UNL     1      37.125 -22.855 -11.946  0.00  0.00    +0.018 C 
ATOM      7  C   UNL     1      35.703 -24.926 -11.935  0.00  0.00    +0.018 C 
ATOM      8  C   UNL     1      39.392 -25.265 -14.943  0.00  0.00    +0.018 C 
ATOM      9  C   UNL     1      37.583 -26.920 -14.405  0.00  0.00    +0.018 C 
ENDROOT
BRANCH   1  10
ATOM     10  O   UNL     1      38.258 -25.889 -11.959  0.00  0.00    -0.311 OA
ATOM     11  H   UNL     1      37.460 -25.987 -11.416  0.00  0.00    +0.237 HD
ENDBRANCH   1  10
BRANCH   4  12
ATOM     12  C   UNL     1      35.178 -22.919 -14.441  0.00  0.00    +0.082 C 
BRANCH  12  13
ATOM     13  S   UNL     1      33.927 -23.760 -15.438  0.00  0.00    +0.007 S 
BRANCH  13  14
ATOM     14  S   UNL     1      32.346 -23.997 -14.079  0.00  0.00    +0.033 S 
ATOM     15  O   UNL     1      32.769 -23.423 -12.816  0.00  0.00    -0.162 OA
ATOM     16  O   UNL     1      31.909 -25.378 -14.158  0.00  0.00    -0.162 OA
ATOM     17  C   UNL     1      31.029 -22.989 -14.704  0.00  0.00    +0.189 C 
ENDBRANCH  13  14
ENDBRANCH  12  13
ENDBRANCH   4  12
TORSDOF 4
ENDMDL
MODEL 4
REMARK VINA RESULT:      -6.5      9.143     10.583
REMARK  Name = 40428878
REMARK  4 active torsions:
REMARK  status: ('A' for Active; 'I' for Inactive)
REMARK    1  A    between atoms: N_1  and  O_10
REMARK    2  A    between atoms: C_4  and  C_12
REMARK    3  A    between atoms: C_12  and  S_13
REMARK    4  A    between atoms: S_13  and  S_14
REMARK                            x       y       z     vdW  Elec       q    Type
REMARK                         _______ _______ _______ _____ _____    ______ ____
ROOT
ATOM      1  N   UNL     1      37.104 -25.296 -12.143  0.00  0.00    -0.175 NA
ATOM      2  C   UNL     1      36.914 -25.418 -13.612  0.00  0.00    +0.070 C 
ATOM      3  C   UNL     1      36.304 -24.148 -11.656  0.00  0.00    +0.070 C 
ATOM      4  C   UNL     1      35.604 -24.688 -13.830  0.00  0.00    +0.029 C 
ATOM      5  C   UNL     1      35.274 -23.985 -12.738  0.00  0.00    +0.019 C 
ATOM      6  C   UNL     1      36.816 -26.915 -13.934  0.00  0.00    +0.018 C 
ATOM      7  C   UNL     1      38.026 -24.778 -14.463  0.00  0.00    +0.018 C 
ATOM      8  C   UNL     1      35.655 -24.553 -10.328  0.00  0.00    +0.018 C 
ATOM      9  C   UNL     1      37.074 -22.830 -11.478  0.00  0.00    +0.018 C 
ENDROOT
BRANCH   1  10
ATOM     10  O   UNL     1      38.494 -25.150 -11.799  0.00  0.00    -0.311 OA
ATOM     11  H   UNL     1      38.792 -24.256 -12.031  0.00  0.00    +0.237 HD
ENDBRANCH   1  10
BRANCH   4  12
ATOM     12  C   UNL     1      34.837 -24.739 -15.103  0.00  0.00    +0.082 C 
BRANCH  12  13
ATOM     13  S   UNL     1      33.722 -23.320 -15.211  0.00  0.00    +0.007 S 
BRANCH  13  14
ATOM     14  S   UNL     1      31.996 -24.023 -14.247  0.00  0.00    +0.033 S 
ATOM     15  O   UNL     1      31.790 -23.200 -13.070  0.00  0.00    -0.162 OA
ATOM     16  O   UNL     1      32.118 -25.464 -14.133  0.00  0.00    -0.162 OA
ATOM     17  C   UNL     1      30.661 -23.692 -15.364  0.00  0.00    +0.189 C 
ENDBRANCH  13  14
ENDBRANCH  12  13
ENDBRANCH   4  12
TORSDOF 4
ENDMDL
MODEL 5
REMARK VINA RESULT:      -6.5      5.621      9.096
REMARK  Name = 40428878
REMARK  4 active torsions:
REMARK  status: ('A' for Active; 'I' for Inactive)
REMARK    1  A    between atoms: N_1  and  O_10
REMARK    2  A    between atoms: C_4  and  C_12
REMARK    3  A    between atoms: C_12  and  S_13
REMARK    4  A    between atoms: S_13  and  S_14
REMARK                            x       y       z     vdW  Elec       q    Type
REMARK                         _______ _______ _______ _____ _____    ______ ____
ROOT
ATOM      1  N   UNL     1      37.871 -24.662 -14.867  0.00  0.00    -0.175 NA
ATOM      2  C   UNL     1      37.189 -23.348 -14.997  0.00  0.00    +0.070 C 
ATOM      3  C   UNL     1      36.859 -25.689 -14.526  0.00  0.00    +0.070 C 
ATOM      4  C   UNL     1      35.753 -23.754 -15.261  0.00  0.00    +0.029 C 
ATOM      5  C   UNL     1      35.579 -25.056 -14.996  0.00  0.00    +0.019 C 
ATOM      6  C   UNL     1      37.825 -22.622 -16.190  0.00  0.00    +0.018 C 
ATOM      7  C   UNL     1      37.266 -22.453 -13.747  0.00  0.00    +0.018 C 
ATOM      8  C   UNL     1      37.179 -26.955 -15.328  0.00  0.00    +0.018 C 
ATOM      9  C   UNL     1      36.742 -26.035 -13.033  0.00  0.00    +0.018 C 
ENDROOT
BRANCH   1  10
ATOM     10  O   UNL     1      38.924 -24.618 -13.888  0.00  0.00    -0.311 OA
ATOM     11  H   UNL     1      38.954 -23.736 -13.485  0.00  0.00    +0.237 HD
ENDBRANCH   1  10
BRANCH   4  12
ATOM     12  C   UNL     1      34.701 -22.806 -15.716  0.00  0.00    +0.082 C 
BRANCH  12  13
ATOM     13  S   UNL     1      33.459 -23.682 -16.694  0.00  0.00    +0.007 S 
BRANCH  13  14
ATOM     14  S   UNL     1      33.725 -22.861 -18.607  0.00  0.00    +0.033 S 
ATOM     15  O   UNL     1      32.647 -21.916 -18.828  0.00  0.00    -0.162 OA
ATOM     16  O   UNL     1      33.948 -23.962 -19.525  0.00  0.00    -0.162 OA
ATOM     17  C   UNL     1      35.232 -21.933 -18.518  0.00  0.00    +0.189 C 
ENDBRANCH  13  14
ENDBRANCH  12  13
ENDBRANCH   4  12
TORSDOF 4
ENDMDL
MODEL 6
REMARK VINA RESULT:      -6.5      7.576      9.436
REMARK  Name = 40428878
REMARK  4 active torsions:
REMARK  status: ('A' for Active; 'I' for Inactive)
REMARK    1  A    between atoms: N_1  and  O_10
REMARK    2  A    between atoms: C_4  and  C_12
REMARK    3  A    between atoms: C_12  and  S_13
REMARK    4  A    between atoms: S_13  and  S_14
REMARK                            x       y       z     vdW  Elec       q    Type
REMARK                         _______ _______ _______ _____ _____    ______ ____
ROOT
ATOM      1  N   UNL     1      37.634 -24.648 -14.967  0.00  0.00    -0.175 NA
ATOM      2  C   UNL     1      36.833 -23.403 -14.829  0.00  0.00    +0.070 C 
ATOM      3  C   UNL     1      36.811 -25.793 -14.511  0.00  0.00    +0.070 C 
ATOM      4  C   UNL     1      35.413 -23.932 -14.816  0.00  0.00    +0.029 C 
ATOM      5  C   UNL     1      35.411 -25.260 -14.638  0.00  0.00    +0.019 C 
ATOM      6  C   UNL     1      37.128 -22.535 -16.060  0.00  0.00    +0.018 C 
ATOM      7  C   UNL     1      37.110 -22.595 -13.548  0.00  0.00    +0.018 C 
ATOM      8  C   UNL     1      37.051 -26.961 -15.474  0.00  0.00    +0.018 C 
ATOM      9  C   UNL     1      37.056 -26.252 -13.065  0.00  0.00    +0.018 C 
ENDROOT
BRANCH   1  10
ATOM     10  O   UNL     1      38.870 -24.566 -14.234  0.00  0.00    -0.311 OA
ATOM     11  H   UNL     1      39.598 -24.381 -14.848  0.00  0.00    +0.237 HD
ENDBRANCH   1  10
BRANCH   4  12
ATOM     12  C   UNL     1      34.212 -23.065 -14.949  0.00  0.00    +0.082 C 
BRANCH  12  13
ATOM     13  S   UNL     1      33.255 -23.553 -16.403  0.00  0.00    +0.007 S 
BRANCH  13  14
ATOM     14  S   UNL     1      31.287 -23.121 -15.818  0.00  0.00    +0.033 S 
ATOM     15  O   UNL     1      30.614 -22.529 -16.959  0.00  0.00    -0.162 OA
ATOM     16  O   UNL     1      31.354 -22.420 -14.550  0.00  0.00    -0.162 OA
ATOM     17  C   UNL     1      30.527 -24.693 -15.513  0.00  0.00    +0.189 C 
ENDBRANCH  13  14
ENDBRANCH  12  13
ENDBRANCH   4  12
TORSDOF 4
ENDMDL
MODEL 7
REMARK VINA RESULT:      -6.2      5.466      9.346
REMARK  Name = 40428878
REMARK  4 active torsions:
REMARK  status: ('A' for Active; 'I' for Inactive)
REMARK    1  A    between atoms: N_1  and  O_10
REMARK    2  A    between atoms: C_4  and  C_12
REMARK    3  A    between atoms: C_12  and  S_13
REMARK    4  A    between atoms: S_13  and  S_14
REMARK                            x       y       z     vdW  Elec       q    Type
REMARK                         _______ _______ _______ _____ _____    ______ ____
ROOT
ATOM      1  N   UNL     1      36.109 -24.606 -13.078  0.00  0.00    -0.175 NA
ATOM      2  C   UNL     1      35.545 -24.624 -14.453  0.00  0.00    +0.070 C 
ATOM      3  C   UNL     1      37.373 -23.833 -13.094  0.00  0.00    +0.070 C 
ATOM      4  C   UNL     1      36.208 -23.419 -15.090  0.00  0.00    +0.029 C 
ATOM      5  C   UNL     1      37.222 -22.987 -14.329  0.00  0.00    +0.019 C 
ATOM      6  C   UNL     1      34.025 -24.461 -14.322  0.00  0.00    +0.018 C 
ATOM      7  C   UNL     1      35.860 -25.894 -15.264  0.00  0.00    +0.018 C 
ATOM      8  C   UNL     1      37.416 -22.968 -11.831  0.00  0.00    +0.018 C 
ATOM      9  C   UNL     1      38.660 -24.666 -13.198  0.00  0.00    +0.018 C 
ENDROOT
BRANCH   1  10
ATOM     10  O   UNL     1      36.316 -25.937 -12.572  0.00  0.00    -0.311 OA
ATOM     11  H   UNL     1      37.092 -25.945 -11.989  0.00  0.00    +0.237 HD
ENDBRANCH   1  10
BRANCH   4  12
ATOM     12  C   UNL     1      35.787 -22.845 -16.396  0.00  0.00    +0.082 C 
BRANCH  12  13
ATOM     13  S   UNL     1      34.050 -23.233 -16.712  0.00  0.00    +0.007 S 
BRANCH  13  14
ATOM     14  S   UNL     1      33.836 -22.741 -18.740  0.00  0.00    +0.033 S 
ATOM     15  O   UNL     1      32.641 -21.927 -18.866  0.00  0.00    -0.162 OA
ATOM     16  O   UNL     1      33.984 -23.965 -19.503  0.00  0.00    -0.162 OA
ATOM     17  C   UNL     1      35.223 -21.706 -19.125  0.00  0.00    +0.189 C 
ENDBRANCH  13  14
ENDBRANCH  12  13
ENDBRANCH   4  12
TORSDOF 4
ENDMDL
MODEL 8
REMARK VINA RESULT:      -6.2      8.067      9.470
REMARK  Name = 40428878
REMARK  4 active torsions:
REMARK  status: ('A' for Active; 'I' for Inactive)
REMARK    1  A    between atoms: N_1  and  O_10
REMARK    2  A    between atoms: C_4  and  C_12
REMARK    3  A    between atoms: C_12  and  S_13
REMARK    4  A    between atoms: S_13  and  S_14
REMARK                            x       y       z     vdW  Elec       q    Type
REMARK                         _______ _______ _______ _____ _____    ______ ____
ROOT
ATOM      1  N   UNL     1      34.064 -23.766 -13.593  0.00  0.00    -0.175 NA
ATOM      2  C   UNL     1      32.638 -23.858 -14.003  0.00  0.00    +0.070 C 
ATOM      3  C   UNL     1      34.914 -23.952 -14.792  0.00  0.00    +0.070 C 
ATOM      4  C   UNL     1      32.708 -23.551 -15.485  0.00  0.00    +0.029 C 
ATOM      5  C   UNL     1      33.975 -23.606 -15.915  0.00  0.00    +0.019 C 
ATOM      6  C   UNL     1      31.870 -22.789 -13.214  0.00  0.00    +0.018 C 
ATOM      7  C   UNL     1      31.987 -25.235 -13.776  0.00  0.00    +0.018 C 
ATOM      8  C   UNL     1      36.073 -22.953 -14.710  0.00  0.00    +0.018 C 
ATOM      9  C   UNL     1      35.464 -25.371 -15.003  0.00  0.00    +0.018 C 
ENDROOT
BRANCH   1  10
ATOM     10  O   UNL     1      34.384 -24.727 -12.570  0.00  0.00    -0.311 OA
ATOM     11  H   UNL     1      35.042 -24.348 -11.965  0.00  0.00    +0.237 HD
ENDBRANCH   1  10
BRANCH   4  12
ATOM     12  C   UNL     1      31.511 -23.267 -16.322  0.00  0.00    +0.082 C 
BRANCH  12  13
ATOM     13  S   UNL     1      30.102 -24.237 -15.737  0.00  0.00    +0.007 S 
BRANCH  13  14
ATOM     14  S   UNL     1      28.480 -23.294 -16.675  0.00  0.00    +0.033 S 
ATOM     15  O   UNL     1      27.742 -24.314 -17.396  0.00  0.00    -0.162 OA
ATOM     16  O   UNL     1      28.994 -22.125 -17.362  0.00  0.00    -0.162 OA
ATOM     17  C   UNL     1      27.440 -22.719 -15.359  0.00  0.00    +0.189 C 
ENDBRANCH  13  14
ENDBRANCH  12  13
ENDBRANCH   4  12
TORSDOF 4
ENDMDL
MODEL 9
REMARK VINA RESULT:      -6.1      3.032      4.324
REMARK  Name = 40428878
REMARK  4 active torsions:
REMARK  status: ('A' for Active; 'I' for Inactive)
REMARK    1  A    between atoms: N_1  and  O_10
REMARK    2  A    between atoms: C_4  and  C_12
REMARK    3  A    between atoms: C_12  and  S_13
REMARK    4  A    between atoms: S_13  and  S_14
REMARK                            x       y       z     vdW  Elec       q    Type
REMARK                         _______ _______ _______ _____ _____    ______ ____
ROOT
ATOM      1  N   UNL     1      32.278 -14.269 -22.716  0.00  0.00    -0.175 NA
ATOM      2  C   UNL     1      32.818 -14.796 -21.435  0.00  0.00    +0.070 C 
ATOM      3  C   UNL     1      33.404 -14.081 -23.662  0.00  0.00    +0.070 C 
ATOM      4  C   UNL     1      34.140 -15.399 -21.865  0.00  0.00    +0.029 C 
ATOM      5  C   UNL     1      34.457 -14.996 -23.102  0.00  0.00    +0.019 C 
ATOM      6  C   UNL     1      31.826 -15.849 -20.925  0.00  0.00    +0.018 C 
ATOM      7  C   UNL     1      33.048 -13.732 -20.346  0.00  0.00    +0.018 C 
ATOM      8  C   UNL     1      32.942 -14.547 -25.047  0.00  0.00    +0.018 C 
ATOM      9  C   UNL     1      33.962 -12.652 -23.754  0.00  0.00    +0.018 C 
ENDROOT
BRANCH   1  10
ATOM     10  O   UNL     1      31.548 -13.045 -22.521  0.00  0.00    -0.311 OA
ATOM     11  H   UNL     1      30.905 -13.163 -21.803  0.00  0.00    +0.237 HD
ENDBRANCH   1  10
BRANCH   4  12
ATOM     12  C   UNL     1      34.960 -16.283 -20.994  0.00  0.00    +0.082 C 
BRANCH  12  13
ATOM     13  S   UNL     1      35.851 -17.490 -22.002  0.00  0.00    +0.007 S 
BRANCH  13  14
ATOM     14  S   UNL     1      34.726 -19.238 -21.719  0.00  0.00    +0.033 S 
ATOM     15  O   UNL     1      34.662 -19.925 -22.995  0.00  0.00    -0.162 OA
ATOM     16  O   UNL     1      33.514 -18.866 -21.015  0.00  0.00    -0.162 OA
ATOM     17  C   UNL     1      35.686 -20.247 -20.623  0.00  0.00    +0.189 C 
ENDBRANCH  13  14
ENDBRANCH  12  13
ENDBRANCH   4  12
TORSDOF 4
ENDMDL
