MODEL 1
REMARK VINA RESULT:      -8.0      0.000      0.000
REMARK  Name = 6834
REMARK  5 active torsions:
REMARK  status: ('A' for Active; 'I' for Inactive)
REMARK    1  A    between atoms: C_1  and  C_3
REMARK    2  A    between atoms: C_1  and  C_10
REMARK    3  A    between atoms: C_1  and  C_15
REMARK    4  A    between atoms: C_15  and  C_16
REMARK    5  A    between atoms: C_16  and  N_17
REMARK                            x       y       z     vdW  Elec       q    Type
REMARK                         _______ _______ _______ _____ _____    ______ ____
ROOT
ATOM      1  C   UNL     1      34.088 -24.015 -15.466  0.00  0.00    +0.060 C 
ENDROOT
BRANCH   1   3
ATOM      2 BR   UNL     1      36.276 -20.692 -20.184  0.00  0.00    -0.049 Br
ATOM      3  C   UNL     1      34.630 -23.194 -16.633  0.00  0.00    -0.017 C 
ATOM      4  C   UNL     1      33.842 -23.034 -17.753  0.00  0.00    -0.003 C 
ATOM      5  C   UNL     1      35.887 -22.640 -16.528  0.00  0.00    -0.003 C 
ATOM      6  C   UNL     1      34.337 -22.283 -18.820  0.00  0.00    +0.006 C 
ATOM      7  C   UNL     1      36.381 -21.889 -17.595  0.00  0.00    +0.006 C 
ATOM      8  C   UNL     1      35.607 -21.711 -18.740  0.00  0.00    +0.035 C 
ENDBRANCH   1   3
BRANCH   1  10
ATOM      9  N   UNL     1      35.833 -25.695 -15.484  0.00  0.00    -0.248 NA
ATOM     10  C   UNL     1      35.207 -24.764 -14.754  0.00  0.00    +0.063 C 
ATOM     11  C   UNL     1      35.480 -24.434 -13.451  0.00  0.00    +0.015 C 
ATOM     12  C   UNL     1      36.507 -25.134 -12.829  0.00  0.00    +0.003 C 
ATOM     13  C   UNL     1      36.824 -26.355 -14.846  0.00  0.00    +0.098 C 
ATOM     14  C   UNL     1      37.198 -26.116 -13.533  0.00  0.00    +0.021 C 
ENDBRANCH   1  10
BRANCH   1  15
ATOM     15  C   UNL     1      33.181 -23.194 -14.513  0.00  0.00    -0.012 C 
BRANCH  15  16
ATOM     16  C   UNL     1      31.882 -23.927 -14.161  0.00  0.00    -0.077 C 
BRANCH  16  17
ATOM     17  N   UNL     1      31.130 -24.229 -15.376  0.00  0.00    +0.384 N 
ATOM     18  C   UNL     1      30.528 -23.013 -15.923  0.00  0.00    -0.101 C 
ATOM     19  C   UNL     1      30.096 -25.230 -15.105  0.00  0.00    -0.101 C 
ATOM     20  H   UNL     1      31.777 -24.609 -16.065  0.00  0.00    -0.080 HD
ENDBRANCH  16  17
ENDBRANCH  15  16
ENDBRANCH   1  15
TORSDOF 5
ENDMDL
MODEL 2
REMARK VINA RESULT:      -7.9      6.633      9.917
REMARK  Name = 6834
REMARK  5 active torsions:
REMARK  status: ('A' for Active; 'I' for Inactive)
REMARK    1  A    between atoms: C_1  and  C_3
REMARK    2  A    between atoms: C_1  and  C_10
REMARK    3  A    between atoms: C_1  and  C_15
REMARK    4  A    between atoms: C_15  and  C_16
REMARK    5  A    between atoms: C_16  and  N_17
REMARK                            x       y       z     vdW  Elec       q    Type
REMARK                         _______ _______ _______ _____ _____    ______ ____
ROOT
ATOM      1  C   UNL     1      35.354 -17.674 -21.557  0.00  0.00    +0.060 C 
ENDROOT
BRANCH   1   3
ATOM      2 BR   UNL     1      33.809 -22.996 -18.839  0.00  0.00    -0.049 Br
ATOM      3  C   UNL     1      34.972 -18.990 -20.886  0.00  0.00    -0.017 C 
ATOM      4  C   UNL     1      35.976 -19.823 -20.441  0.00  0.00    -0.003 C 
ATOM      5  C   UNL     1      33.637 -19.302 -20.747  0.00  0.00    -0.003 C 
ATOM      6  C   UNL     1      35.627 -21.026 -19.827  0.00  0.00    +0.006 C 
ATOM      7  C   UNL     1      33.288 -20.505 -20.133  0.00  0.00    +0.006 C 
ATOM      8  C   UNL     1      34.282 -21.367 -19.674  0.00  0.00    +0.035 C 
ENDBRANCH   1   3
BRANCH   1  10
ATOM      9  N   UNL     1      35.100 -16.512 -23.666  0.00  0.00    -0.248 NA
ATOM     10  C   UNL     1      35.009 -17.692 -23.041  0.00  0.00    +0.063 C 
ATOM     11  C   UNL     1      34.644 -18.886 -23.606  0.00  0.00    +0.015 C 
ATOM     12  C   UNL     1      34.337 -18.869 -24.962  0.00  0.00    +0.003 C 
ATOM     13  C   UNL     1      34.794 -16.535 -24.982  0.00  0.00    +0.098 C 
ATOM     14  C   UNL     1      34.410 -17.675 -25.671  0.00  0.00    +0.021 C 
ENDBRANCH   1  10
BRANCH   1  15
ATOM     15  C   UNL     1      34.814 -16.428 -20.806  0.00  0.00    -0.012 C 
BRANCH  15  16
ATOM     16  C   UNL     1      33.417 -16.016 -21.283  0.00  0.00    -0.077 C 
BRANCH  16  17
ATOM     17  N   UNL     1      33.372 -14.576 -21.523  0.00  0.00    +0.384 N 
ATOM     18  C   UNL     1      32.662 -13.897 -20.439  0.00  0.00    -0.101 C 
ATOM     19  C   UNL     1      32.731 -14.289 -22.808  0.00  0.00    -0.101 C 
ATOM     20  H   UNL     1      34.329 -14.228 -21.554  0.00  0.00    -0.080 HD
ENDBRANCH  16  17
ENDBRANCH  15  16
ENDBRANCH   1  15
TORSDOF 5
ENDMDL
MODEL 3
REMARK VINA RESULT:      -7.7     10.136     13.267
REMARK  Name = 6834
REMARK  5 active torsions:
REMARK  status: ('A' for Active; 'I' for Inactive)
REMARK    1  A    between atoms: C_1  and  C_3
REMARK    2  A    between atoms: C_1  and  C_10
REMARK    3  A    between atoms: C_1  and  C_15
REMARK    4  A    between atoms: C_15  and  C_16
REMARK    5  A    between atoms: C_16  and  N_17
REMARK                            x       y       z     vdW  Elec       q    Type
REMARK                         _______ _______ _______ _____ _____    ______ ____
ROOT
ATOM      1  C   UNL     1      33.554 -13.375 -22.871  0.00  0.00    +0.060 C 
ENDROOT
BRANCH   1   3
ATOM      2 BR   UNL     1      36.003 -18.773 -21.150  0.00  0.00    -0.049 Br
ATOM      3  C   UNL     1      34.160 -14.709 -22.446  0.00  0.00    -0.017 C 
ATOM      4  C   UNL     1      34.105 -15.069 -21.116  0.00  0.00    -0.003 C 
ATOM      5  C   UNL     1      34.743 -15.510 -23.404  0.00  0.00    -0.003 C 
ATOM      6  C   UNL     1      34.659 -16.288 -20.727  0.00  0.00    +0.006 C 
ATOM      7  C   UNL     1      35.296 -16.730 -23.015  0.00  0.00    +0.006 C 
ATOM      8  C   UNL     1      35.255 -17.119 -21.677  0.00  0.00    +0.035 C 
ENDBRANCH   1   3
BRANCH   1  10
ATOM      9  N   UNL     1      32.816 -14.307 -24.982  0.00  0.00    -0.248 NA
ATOM     10  C   UNL     1      33.438 -13.282 -24.388  0.00  0.00    +0.063 C 
ATOM     11  C   UNL     1      33.967 -12.181 -25.010  0.00  0.00    +0.015 C 
ATOM     12  C   UNL     1      33.844 -12.124 -26.394  0.00  0.00    +0.003 C 
ATOM     13  C   UNL     1      32.716 -14.217 -26.326  0.00  0.00    +0.098 C 
ATOM     14  C   UNL     1      33.208 -13.158 -27.073  0.00  0.00    +0.021 C 
ENDBRANCH   1  10
BRANCH   1  15
ATOM     15  C   UNL     1      32.237 -13.039 -22.124  0.00  0.00    -0.012 C 
BRANCH  15  16
ATOM     16  C   UNL     1      31.800 -11.584 -22.330  0.00  0.00    -0.077 C 
BRANCH  16  17
ATOM     17  N   UNL     1      31.303 -11.025 -21.077  0.00  0.00    +0.384 N 
ATOM     18  C   UNL     1      31.776  -9.651 -20.904  0.00  0.00    -0.101 C 
ATOM     19  C   UNL     1      31.720 -11.852 -19.943  0.00  0.00    -0.101 C 
ATOM     20  H   UNL     1      30.285 -11.016 -21.113  0.00  0.00    -0.080 HD
ENDBRANCH  16  17
ENDBRANCH  15  16
ENDBRANCH   1  15
TORSDOF 5
ENDMDL
MODEL 4
REMARK VINA RESULT:      -7.6      6.031      9.470
REMARK  Name = 6834
REMARK  5 active torsions:
REMARK  status: ('A' for Active; 'I' for Inactive)
REMARK    1  A    between atoms: C_1  and  C_3
REMARK    2  A    between atoms: C_1  and  C_10
REMARK    3  A    between atoms: C_1  and  C_15
REMARK    4  A    between atoms: C_15  and  C_16
REMARK    5  A    between atoms: C_16  and  N_17
REMARK                            x       y       z     vdW  Elec       q    Type
REMARK                         _______ _______ _______ _____ _____    ______ ____
ROOT
ATOM      1  C   UNL     1      34.335 -18.591 -21.864  0.00  0.00    +0.060 C 
ENDROOT
BRANCH   1   3
ATOM      2 BR   UNL     1      33.613 -23.139 -17.755  0.00  0.00    -0.049 Br
ATOM      3  C   UNL     1      34.157 -19.714 -20.848  0.00  0.00    -0.017 C 
ATOM      4  C   UNL     1      32.882 -20.040 -20.436  0.00  0.00    -0.003 C 
ATOM      5  C   UNL     1      35.275 -20.366 -20.375  0.00  0.00    -0.003 C 
ATOM      6  C   UNL     1      32.719 -21.068 -19.507  0.00  0.00    +0.006 C 
ATOM      7  C   UNL     1      35.111 -21.394 -19.446  0.00  0.00    +0.006 C 
ATOM      8  C   UNL     1      33.834 -21.744 -19.012  0.00  0.00    +0.035 C 
ENDBRANCH   1   3
BRANCH   1  10
ATOM      9  N   UNL     1      32.593 -17.072 -21.140  0.00  0.00    -0.248 NA
ATOM     10  C   UNL     1      33.912 -17.248 -21.281  0.00  0.00    +0.063 C 
ATOM     11  C   UNL     1      34.892 -16.347 -20.954  0.00  0.00    +0.015 C 
ATOM     12  C   UNL     1      34.475 -15.132 -20.423  0.00  0.00    +0.003 C 
ATOM     13  C   UNL     1      32.225 -15.879 -20.622  0.00  0.00    +0.098 C 
ATOM     14  C   UNL     1      33.116 -14.885 -20.251  0.00  0.00    +0.021 C 
ENDBRANCH   1  10
BRANCH   1  15
ATOM     15  C   UNL     1      35.745 -18.573 -22.512  0.00  0.00    -0.012 C 
BRANCH  15  16
ATOM     16  C   UNL     1      35.687 -18.590 -24.043  0.00  0.00    -0.077 C 
BRANCH  16  17
ATOM     17  N   UNL     1      34.459 -17.953 -24.508  0.00  0.00    +0.384 N 
ATOM     18  C   UNL     1      33.731 -18.841 -25.415  0.00  0.00    -0.101 C 
ATOM     19  C   UNL     1      34.758 -16.683 -25.173  0.00  0.00    -0.101 C 
ATOM     20  H   UNL     1      33.871 -17.763 -23.698  0.00  0.00    -0.080 HD
ENDBRANCH  16  17
ENDBRANCH  15  16
ENDBRANCH   1  15
TORSDOF 5
ENDMDL
MODEL 5
REMARK VINA RESULT:      -7.5      1.079      4.546
REMARK  Name = 6834
REMARK  5 active torsions:
REMARK  status: ('A' for Active; 'I' for Inactive)
REMARK    1  A    between atoms: C_1  and  C_3
REMARK    2  A    between atoms: C_1  and  C_10
REMARK    3  A    between atoms: C_1  and  C_15
REMARK    4  A    between atoms: C_15  and  C_16
REMARK    5  A    between atoms: C_16  and  N_17
REMARK                            x       y       z     vdW  Elec       q    Type
REMARK                         _______ _______ _______ _____ _____    ______ ____
ROOT
ATOM      1  C   UNL     1      34.299 -23.728 -14.759  0.00  0.00    +0.060 C 
ENDROOT
BRANCH   1   3
ATOM      2 BR   UNL     1      35.901 -21.220 -20.166  0.00  0.00    -0.049 Br
ATOM      3  C   UNL     1      34.695 -23.107 -16.095  0.00  0.00    -0.017 C 
ATOM      4  C   UNL     1      35.941 -22.530 -16.215  0.00  0.00    -0.003 C 
ATOM      5  C   UNL     1      33.793 -23.143 -17.137  0.00  0.00    -0.003 C 
ATOM      6  C   UNL     1      36.303 -21.963 -17.437  0.00  0.00    +0.006 C 
ATOM      7  C   UNL     1      34.156 -22.576 -18.359  0.00  0.00    +0.006 C 
ATOM      8  C   UNL     1      35.410 -21.986 -18.509  0.00  0.00    +0.035 C 
ENDBRANCH   1   3
BRANCH   1  10
ATOM      9  N   UNL     1      32.319 -25.055 -14.333  0.00  0.00    -0.248 NA
ATOM     10  C   UNL     1      32.785 -23.836 -14.628  0.00  0.00    +0.063 C 
ATOM     11  C   UNL     1      32.036 -22.703 -14.818  0.00  0.00    +0.015 C 
ATOM     12  C   UNL     1      30.658 -22.835 -14.691  0.00  0.00    +0.003 C 
ATOM     13  C   UNL     1      30.975 -25.144 -14.218  0.00  0.00    +0.098 C 
ATOM     14  C   UNL     1      30.109 -24.076 -14.386  0.00  0.00    +0.021 C 
ENDBRANCH   1  10
BRANCH   1  15
ATOM     15  C   UNL     1      35.047 -25.053 -14.457  0.00  0.00    -0.012 C 
BRANCH  15  16
ATOM     16  C   UNL     1      36.036 -24.917 -13.295  0.00  0.00    -0.077 C 
BRANCH  16  17
ATOM     17  N   UNL     1      36.872 -26.110 -13.203  0.00  0.00    +0.384 N 
ATOM     18  C   UNL     1      38.157 -25.791 -12.580  0.00  0.00    -0.101 C 
ATOM     19  C   UNL     1      37.082 -26.695 -14.529  0.00  0.00    -0.101 C 
ATOM     20  H   UNL     1      36.390 -26.794 -12.621  0.00  0.00    -0.080 HD
ENDBRANCH  16  17
ENDBRANCH  15  16
ENDBRANCH   1  15
TORSDOF 5
ENDMDL
MODEL 6
REMARK VINA RESULT:      -7.4      2.605      5.364
REMARK  Name = 6834
REMARK  5 active torsions:
REMARK  status: ('A' for Active; 'I' for Inactive)
REMARK    1  A    between atoms: C_1  and  C_3
REMARK    2  A    between atoms: C_1  and  C_10
REMARK    3  A    between atoms: C_1  and  C_15
REMARK    4  A    between atoms: C_15  and  C_16
REMARK    5  A    between atoms: C_16  and  N_17
REMARK                            x       y       z     vdW  Elec       q    Type
REMARK                         _______ _______ _______ _____ _____    ______ ____
ROOT
ATOM      1  C   UNL     1      34.631 -23.672 -15.738  0.00  0.00    +0.060 C 
ENDROOT
BRANCH   1   3
ATOM      2 BR   UNL     1      28.579 -22.505 -15.407  0.00  0.00    -0.049 Br
ATOM      3  C   UNL     1      33.135 -23.382 -15.656  0.00  0.00    -0.017 C 
ATOM      4  C   UNL     1      32.421 -23.243 -16.827  0.00  0.00    -0.003 C 
ATOM      5  C   UNL     1      32.547 -23.269 -14.414  0.00  0.00    -0.003 C 
ATOM      6  C   UNL     1      31.054 -22.979 -16.752  0.00  0.00    +0.006 C 
ATOM      7  C   UNL     1      31.180 -23.006 -14.340  0.00  0.00    +0.006 C 
ATOM      8  C   UNL     1      30.433 -22.860 -15.509  0.00  0.00    +0.035 C 
ENDBRANCH   1   3
BRANCH   1  10
ATOM      9  N   UNL     1      34.688 -22.816 -18.003  0.00  0.00    -0.248 NA
ATOM     10  C   UNL     1      35.298 -22.822 -16.812  0.00  0.00    +0.063 C 
ATOM     11  C   UNL     1      36.444 -22.145 -16.482  0.00  0.00    +0.015 C 
ATOM     12  C   UNL     1      37.028 -21.377 -17.483  0.00  0.00    +0.003 C 
ATOM     13  C   UNL     1      35.285 -22.060 -18.950  0.00  0.00    +0.098 C 
ATOM     14  C   UNL     1      36.444 -21.329 -18.745  0.00  0.00    +0.021 C 
ENDBRANCH   1  10
BRANCH   1  15
ATOM     15  C   UNL     1      35.340 -23.607 -14.360  0.00  0.00    -0.012 C 
BRANCH  15  16
ATOM     16  C   UNL     1      35.952 -24.951 -13.950  0.00  0.00    -0.077 C 
BRANCH  16  17
ATOM     17  N   UNL     1      36.936 -25.379 -14.941  0.00  0.00    +0.384 N 
ATOM     18  C   UNL     1      37.008 -26.839 -14.995  0.00  0.00    -0.101 C 
ATOM     19  C   UNL     1      38.253 -24.817 -14.634  0.00  0.00    -0.101 C 
ATOM     20  H   UNL     1      36.641 -25.034 -15.853  0.00  0.00    -0.080 HD
ENDBRANCH  16  17
ENDBRANCH  15  16
ENDBRANCH   1  15
TORSDOF 5
ENDMDL
MODEL 7
REMARK VINA RESULT:      -7.4     10.259     13.497
REMARK  Name = 6834
REMARK  5 active torsions:
REMARK  status: ('A' for Active; 'I' for Inactive)
REMARK    1  A    between atoms: C_1  and  C_3
REMARK    2  A    between atoms: C_1  and  C_10
REMARK    3  A    between atoms: C_1  and  C_15
REMARK    4  A    between atoms: C_15  and  C_16
REMARK    5  A    between atoms: C_16  and  N_17
REMARK                            x       y       z     vdW  Elec       q    Type
REMARK                         _______ _______ _______ _____ _____    ______ ____
ROOT
ATOM      1  C   UNL     1      33.198 -14.482 -23.302  0.00  0.00    +0.060 C 
ENDROOT
BRANCH   1   3
ATOM      2 BR   UNL     1      30.915 -10.558 -19.121  0.00  0.00    -0.049 Br
ATOM      3  C   UNL     1      32.633 -13.512 -22.269  0.00  0.00    -0.017 C 
ATOM      4  C   UNL     1      32.768 -13.816 -20.931  0.00  0.00    -0.003 C 
ATOM      5  C   UNL     1      32.006 -12.366 -22.707  0.00  0.00    -0.003 C 
ATOM      6  C   UNL     1      32.252 -12.929 -19.986  0.00  0.00    +0.006 C 
ATOM      7  C   UNL     1      31.490 -11.480 -21.761  0.00  0.00    +0.006 C 
ATOM      8  C   UNL     1      31.612 -11.761 -20.402  0.00  0.00    +0.035 C 
ENDBRANCH   1   3
BRANCH   1  10
ATOM      9  N   UNL     1      32.741 -14.545 -25.680  0.00  0.00    -0.248 NA
ATOM     10  C   UNL     1      33.277 -13.835 -24.679  0.00  0.00    +0.063 C 
ATOM     11  C   UNL     1      33.874 -12.606 -24.784  0.00  0.00    +0.015 C 
ATOM     12  C   UNL     1      33.929 -12.042 -26.053  0.00  0.00    +0.003 C 
ATOM     13  C   UNL     1      32.814 -13.966 -26.899  0.00  0.00    +0.098 C 
ATOM     14  C   UNL     1      33.391 -12.729 -27.137  0.00  0.00    +0.021 C 
ENDBRANCH   1  10
BRANCH   1  15
ATOM     15  C   UNL     1      34.523 -15.150 -22.850  0.00  0.00    -0.012 C 
BRANCH  15  16
ATOM     16  C   UNL     1      34.932 -16.316 -23.757  0.00  0.00    -0.077 C 
BRANCH  16  17
ATOM     17  N   UNL     1      35.646 -17.328 -22.985  0.00  0.00    +0.384 N 
ATOM     18  C   UNL     1      35.411 -18.660 -23.543  0.00  0.00    -0.101 C 
ATOM     19  C   UNL     1      35.237 -17.287 -21.580  0.00  0.00    -0.101 C 
ATOM     20  H   UNL     1      36.643 -17.125 -23.038  0.00  0.00    -0.080 HD
ENDBRANCH  16  17
ENDBRANCH  15  16
ENDBRANCH   1  15
TORSDOF 5
ENDMDL
MODEL 8
REMARK VINA RESULT:      -7.4     15.037     17.568
REMARK  Name = 6834
REMARK  5 active torsions:
REMARK  status: ('A' for Active; 'I' for Inactive)
REMARK    1  A    between atoms: C_1  and  C_3
REMARK    2  A    between atoms: C_1  and  C_10
REMARK    3  A    between atoms: C_1  and  C_15
REMARK    4  A    between atoms: C_15  and  C_16
REMARK    5  A    between atoms: C_16  and  N_17
REMARK                            x       y       z     vdW  Elec       q    Type
REMARK                         _______ _______ _______ _____ _____    ______ ____
ROOT
ATOM      1  C   UNL     1      33.134  -8.525 -22.569  0.00  0.00    +0.060 C 
ENDROOT
BRANCH   1   3
ATOM      2 BR   UNL     1      30.760  -2.889 -23.402  0.00  0.00    -0.049 Br
ATOM      3  C   UNL     1      32.546  -7.132 -22.775  0.00  0.00    -0.017 C 
ATOM      4  C   UNL     1      32.055  -6.451 -21.682  0.00  0.00    -0.003 C 
ATOM      5  C   UNL     1      32.525  -6.602 -24.047  0.00  0.00    -0.003 C 
ATOM      6  C   UNL     1      31.518  -5.177 -21.870  0.00  0.00    +0.006 C 
ATOM      7  C   UNL     1      31.989  -5.328 -24.235  0.00  0.00    +0.006 C 
ATOM      8  C   UNL     1      31.485  -4.616 -23.147  0.00  0.00    +0.035 C 
ENDBRANCH   1   3
BRANCH   1  10
ATOM      9  N   UNL     1      32.476  -8.989 -20.285  0.00  0.00    -0.248 NA
ATOM     10  C   UNL     1      32.311  -9.328 -21.569  0.00  0.00    +0.063 C 
ATOM     11  C   UNL     1      31.484 -10.309 -22.051  0.00  0.00    +0.015 C 
ATOM     12  C   UNL     1      30.746 -11.023 -21.114  0.00  0.00    +0.003 C 
ATOM     13  C   UNL     1      31.743  -9.704 -19.403  0.00  0.00    +0.098 C 
ATOM     14  C   UNL     1      30.872 -10.721 -19.761  0.00  0.00    +0.021 C 
ENDBRANCH   1  10
BRANCH   1  15
ATOM     15  C   UNL     1      33.404  -9.275 -23.900  0.00  0.00    -0.012 C 
BRANCH  15  16
ATOM     16  C   UNL     1      34.899  -9.385 -24.219  0.00  0.00    -0.077 C 
BRANCH  16  17
ATOM     17  N   UNL     1      35.180 -10.656 -24.879  0.00  0.00    +0.384 N 
ATOM     18  C   UNL     1      35.622 -10.433 -26.256  0.00  0.00    -0.101 C 
ATOM     19  C   UNL     1      33.998 -11.520 -24.858  0.00  0.00    -0.101 C 
ATOM     20  H   UNL     1      35.930 -11.121 -24.369  0.00  0.00    -0.080 HD
ENDBRANCH  16  17
ENDBRANCH  15  16
ENDBRANCH   1  15
TORSDOF 5
ENDMDL
MODEL 9
REMARK VINA RESULT:      -7.4      2.732      5.494
REMARK  Name = 6834
REMARK  5 active torsions:
REMARK  status: ('A' for Active; 'I' for Inactive)
REMARK    1  A    between atoms: C_1  and  C_3
REMARK    2  A    between atoms: C_1  and  C_10
REMARK    3  A    between atoms: C_1  and  C_15
REMARK    4  A    between atoms: C_15  and  C_16
REMARK    5  A    between atoms: C_16  and  N_17
REMARK                            x       y       z     vdW  Elec       q    Type
REMARK                         _______ _______ _______ _____ _____    ______ ____
ROOT
ATOM      1  C   UNL     1      34.424 -23.632 -15.905  0.00  0.00    +0.060 C 
ENDROOT
BRANCH   1   3
ATOM      2 BR   UNL     1      28.395 -22.452 -15.315  0.00  0.00    -0.049 Br
ATOM      3  C   UNL     1      32.933 -23.339 -15.759  0.00  0.00    -0.017 C 
ATOM      4  C   UNL     1      32.165 -23.229 -16.898  0.00  0.00    -0.003 C 
ATOM      5  C   UNL     1      32.406 -23.195 -14.494  0.00  0.00    -0.003 C 
ATOM      6  C   UNL     1      30.802 -22.962 -16.765  0.00  0.00    +0.006 C 
ATOM      7  C   UNL     1      31.043 -22.928 -14.362  0.00  0.00    +0.006 C 
ATOM      8  C   UNL     1      30.241 -22.811 -15.496  0.00  0.00    +0.035 C 
ENDBRANCH   1   3
BRANCH   1  10
ATOM      9  N   UNL     1      36.288 -22.416 -16.860  0.00  0.00    -0.248 NA
ATOM     10  C   UNL     1      35.032 -22.837 -17.053  0.00  0.00    +0.063 C 
ATOM     11  C   UNL     1      34.264 -22.620 -18.168  0.00  0.00    +0.015 C 
ATOM     12  C   UNL     1      34.848 -21.893 -19.199  0.00  0.00    +0.003 C 
ATOM     13  C   UNL     1      36.821 -21.712 -17.883  0.00  0.00    +0.098 C 
ATOM     14  C   UNL     1      36.151 -21.425 -19.062  0.00  0.00    +0.021 C 
ENDBRANCH   1  10
BRANCH   1  15
ATOM     15  C   UNL     1      35.204 -23.497 -14.571  0.00  0.00    -0.012 C 
BRANCH  15  16
ATOM     16  C   UNL     1      35.885 -24.806 -14.154  0.00  0.00    -0.077 C 
BRANCH  16  17
ATOM     17  N   UNL     1      36.882 -25.193 -15.147  0.00  0.00    +0.384 N 
ATOM     18  C   UNL     1      36.907 -26.647 -15.310  0.00  0.00    -0.101 C 
ATOM     19  C   UNL     1      38.207 -24.703 -14.764  0.00  0.00    -0.101 C 
ATOM     20  H   UNL     1      36.626 -24.771 -16.038  0.00  0.00    -0.080 HD
ENDBRANCH  16  17
ENDBRANCH  15  16
ENDBRANCH   1  15
TORSDOF 5
ENDMDL
