MODEL 1
REMARK VINA RESULT:      -9.1      0.000      0.000
REMARK  Name = 62380
REMARK  6 active torsions:
REMARK  status: ('A' for Active; 'I' for Inactive)
REMARK    1  A    between atoms: N_1  and  C_19
REMARK    2  A    between atoms: C_2  and  N_9
REMARK    3  A    between atoms: N_9  and  C_11
REMARK    4  A    between atoms: C_10  and  C_17
REMARK    5  A    between atoms: C_19  and  C_20
REMARK    6  A    between atoms: C_20  and  C_22
REMARK                            x       y       z     vdW  Elec       q    Type
REMARK                         _______ _______ _______ _____ _____    ______ ____
ROOT
ATOM      1  N   UNL     1      34.824 -20.943 -19.315  0.00  0.00    +0.387 N 
ATOM      2  C   UNL     1      34.587 -19.361 -21.765  0.00  0.00    +0.076 C 
ATOM      3  C   UNL     1      35.906 -19.491 -21.002  0.00  0.00    -0.003 C 
ATOM      4  C   UNL     1      33.406 -19.587 -20.821  0.00  0.00    -0.003 C 
ATOM      5  C   UNL     1      35.970 -20.807 -20.224  0.00  0.00    -0.076 C 
ATOM      6  C   UNL     1      33.553 -20.900 -20.052  0.00  0.00    -0.076 C 
ATOM      7  H   UNL     1      34.840 -20.153 -18.669  0.00  0.00    -0.080 HD
ENDROOT
BRANCH   2   9
ATOM      8  O   UNL     1      35.244 -18.738 -24.565  0.00  0.00    -0.275 OA
ATOM      9  N   UNL     1      34.496 -18.077 -22.415  0.00  0.00    -0.260 N 
ATOM     10  C   UNL     1      34.838 -17.872 -23.785  0.00  0.00    +0.229 C 
BRANCH   9  11
ATOM     11  C   UNL     1      34.030 -16.933 -21.635  0.00  0.00    +0.054 C 
ATOM     12  C   UNL     1      32.685 -16.791 -21.465  0.00  0.00    +0.015 C 
ATOM     13  C   UNL     1      34.972 -16.088 -21.131  0.00  0.00    +0.015 C 
ATOM     14  C   UNL     1      32.240 -15.699 -20.719  0.00  0.00    +0.001 C 
ATOM     15  C   UNL     1      34.526 -14.995 -20.385  0.00  0.00    +0.001 C 
ATOM     16  C   UNL     1      33.161 -14.801 -20.180  0.00  0.00    +0.000 C 
ENDBRANCH   9  11
BRANCH  10  17
ATOM     17  C   UNL     1      34.716 -16.431 -24.271  0.00  0.00    +0.086 C 
ATOM     18  C   UNL     1      33.781 -16.287 -25.461  0.00  0.00    +0.010 C 
ENDBRANCH  10  17
ENDBRANCH   2   9
BRANCH   1  19
ATOM     19  C   UNL     1      34.927 -22.182 -18.544  0.00  0.00    -0.072 C 
BRANCH  19  20
ATOM     20  C   UNL     1      33.582 -22.907 -18.491  0.00  0.00    +0.010 C 
BRANCH  20  22
ATOM     21  S   UNL     1      34.309 -23.401 -15.875  0.00  0.00    -0.091 S 
ATOM     22  C   UNL     1      33.131 -23.133 -17.070  0.00  0.00    +0.005 C 
ATOM     23  C   UNL     1      31.856 -23.153 -16.598  0.00  0.00    +0.003 C 
ATOM     24  C   UNL     1      31.831 -23.397 -15.194  0.00  0.00    +0.007 C 
ATOM     25  C   UNL     1      33.097 -23.551 -14.674  0.00  0.00    +0.035 C 
ENDBRANCH  20  22
ENDBRANCH  19  20
ENDBRANCH   1  19
TORSDOF 6
ENDMDL
MODEL 2
REMARK VINA RESULT:      -8.9      0.885      1.377
REMARK  Name = 62380
REMARK  6 active torsions:
REMARK  status: ('A' for Active; 'I' for Inactive)
REMARK    1  A    between atoms: N_1  and  C_19
REMARK    2  A    between atoms: C_2  and  N_9
REMARK    3  A    between atoms: N_9  and  C_11
REMARK    4  A    between atoms: C_10  and  C_17
REMARK    5  A    between atoms: C_19  and  C_20
REMARK    6  A    between atoms: C_20  and  C_22
REMARK                            x       y       z     vdW  Elec       q    Type
REMARK                         _______ _______ _______ _____ _____    ______ ____
ROOT
ATOM      1  N   UNL     1      34.107 -22.079 -19.807  0.00  0.00    +0.387 N 
ATOM      2  C   UNL     1      34.209 -19.259 -20.585  0.00  0.00    +0.076 C 
ATOM      3  C   UNL     1      32.948 -20.108 -20.755  0.00  0.00    -0.003 C 
ATOM      4  C   UNL     1      35.450 -20.152 -20.584  0.00  0.00    -0.003 C 
ATOM      5  C   UNL     1      32.901 -21.243 -19.730  0.00  0.00    -0.076 C 
ATOM      6  C   UNL     1      35.320 -21.284 -19.564  0.00  0.00    -0.076 C 
ATOM      7  H   UNL     1      34.166 -22.460 -20.751  0.00  0.00    -0.080 HD
ENDROOT
BRANCH   2   9
ATOM      8  O   UNL     1      35.050 -19.644 -23.378  0.00  0.00    -0.275 OA
ATOM      9  N   UNL     1      34.293 -18.253 -21.614  0.00  0.00    -0.260 N 
ATOM     10  C   UNL     1      34.713 -18.537 -22.947  0.00  0.00    +0.229 C 
BRANCH   9  11
ATOM     11  C   UNL     1      33.929 -16.879 -21.276  0.00  0.00    +0.054 C 
ATOM     12  C   UNL     1      32.602 -16.565 -21.251  0.00  0.00    +0.015 C 
ATOM     13  C   UNL     1      34.941 -16.006 -21.008  0.00  0.00    +0.015 C 
ATOM     14  C   UNL     1      32.255 -15.253 -20.928  0.00  0.00    +0.001 C 
ATOM     15  C   UNL     1      34.592 -14.693 -20.686  0.00  0.00    +0.001 C 
ATOM     16  C   UNL     1      33.250 -14.317 -20.646  0.00  0.00    +0.000 C 
ENDBRANCH   9  11
BRANCH  10  17
ATOM     17  C   UNL     1      34.779 -17.327 -23.874  0.00  0.00    +0.086 C 
ATOM     18  C   UNL     1      34.212 -17.610 -25.256  0.00  0.00    +0.010 C 
ENDBRANCH  10  17
ENDBRANCH   2   9
BRANCH   1  19
ATOM     19  C   UNL     1      34.023 -23.187 -18.856  0.00  0.00    -0.072 C 
BRANCH  19  20
ATOM     20  C   UNL     1      34.406 -22.731 -17.447  0.00  0.00    +0.010 C 
BRANCH  20  22
ATOM     21  S   UNL     1      33.901 -23.678 -14.905  0.00  0.00    -0.091 S 
ATOM     22  C   UNL     1      33.374 -23.149 -16.431  0.00  0.00    +0.005 C 
ATOM     23  C   UNL     1      32.023 -23.163 -16.580  0.00  0.00    +0.003 C 
ATOM     24  C   UNL     1      31.379 -23.624 -15.394  0.00  0.00    +0.007 C 
ATOM     25  C   UNL     1      32.285 -23.939 -14.405  0.00  0.00    +0.035 C 
ENDBRANCH  20  22
ENDBRANCH  19  20
ENDBRANCH   1  19
TORSDOF 6
ENDMDL
MODEL 3
REMARK VINA RESULT:      -8.9      4.379      8.548
REMARK  Name = 62380
REMARK  6 active torsions:
REMARK  status: ('A' for Active; 'I' for Inactive)
REMARK    1  A    between atoms: N_1  and  C_19
REMARK    2  A    between atoms: C_2  and  N_9
REMARK    3  A    between atoms: N_9  and  C_11
REMARK    4  A    between atoms: C_10  and  C_17
REMARK    5  A    between atoms: C_19  and  C_20
REMARK    6  A    between atoms: C_20  and  C_22
REMARK                            x       y       z     vdW  Elec       q    Type
REMARK                         _______ _______ _______ _____ _____    ______ ____
ROOT
ATOM      1  N   UNL     1      32.573 -13.898 -21.175  0.00  0.00    +0.387 N 
ATOM      2  C   UNL     1      34.285 -16.262 -21.394  0.00  0.00    +0.076 C 
ATOM      3  C   UNL     1      34.500 -15.016 -22.254  0.00  0.00    -0.003 C 
ATOM      4  C   UNL     1      32.826 -16.348 -20.946  0.00  0.00    -0.003 C 
ATOM      5  C   UNL     1      33.987 -13.758 -21.549  0.00  0.00    -0.076 C 
ATOM      6  C   UNL     1      32.370 -15.048 -20.282  0.00  0.00    -0.076 C 
ATOM      7  H   UNL     1      32.038 -14.065 -22.028  0.00  0.00    -0.080 HD
ENDROOT
BRANCH   2   9
ATOM      8  O   UNL     1      34.549 -16.581 -24.308  0.00  0.00    -0.275 OA
ATOM      9  N   UNL     1      34.682 -17.451 -22.107  0.00  0.00    -0.260 N 
ATOM     10  C   UNL     1      34.782 -17.509 -23.528  0.00  0.00    +0.229 C 
BRANCH   9  11
ATOM     11  C   UNL     1      34.996 -18.652 -21.336  0.00  0.00    +0.054 C 
ATOM     12  C   UNL     1      33.962 -19.476 -21.002  0.00  0.00    +0.015 C 
ATOM     13  C   UNL     1      36.300 -18.865 -21.003  0.00  0.00    +0.015 C 
ATOM     14  C   UNL     1      34.262 -20.622 -20.267  0.00  0.00    +0.001 C 
ATOM     15  C   UNL     1      36.599 -20.012 -20.266  0.00  0.00    +0.001 C 
ATOM     16  C   UNL     1      35.581 -20.890 -19.898  0.00  0.00    +0.000 C 
ENDBRANCH   9  11
BRANCH  10  17
ATOM     17  C   UNL     1      35.172 -18.873 -24.091  0.00  0.00    +0.086 C 
ATOM     18  C   UNL     1      34.171 -19.400 -25.107  0.00  0.00    +0.010 C 
ENDBRANCH  10  17
ENDBRANCH   2   9
BRANCH   1  19
ATOM     19  C   UNL     1      32.086 -12.670 -20.547  0.00  0.00    -0.072 C 
BRANCH  19  20
ATOM     20  C   UNL     1      31.434 -11.748 -21.577  0.00  0.00    +0.010 C 
BRANCH  20  22
ATOM     21  S   UNL     1      32.048  -9.269 -22.623  0.00  0.00    -0.091 S 
ATOM     22  C   UNL     1      31.755 -10.300 -21.305  0.00  0.00    +0.005 C 
ATOM     23  C   UNL     1      31.847  -9.686 -20.095  0.00  0.00    +0.003 C 
ATOM     24  C   UNL     1      32.169  -8.305 -20.244  0.00  0.00    +0.007 C 
ATOM     25  C   UNL     1      32.308  -7.946 -21.566  0.00  0.00    +0.035 C 
ENDBRANCH  20  22
ENDBRANCH  19  20
ENDBRANCH   1  19
TORSDOF 6
ENDMDL
MODEL 4
REMARK VINA RESULT:      -8.9      3.064      5.361
REMARK  Name = 62380
REMARK  6 active torsions:
REMARK  status: ('A' for Active; 'I' for Inactive)
REMARK    1  A    between atoms: N_1  and  C_19
REMARK    2  A    between atoms: C_2  and  N_9
REMARK    3  A    between atoms: N_9  and  C_11
REMARK    4  A    between atoms: C_10  and  C_17
REMARK    5  A    between atoms: C_19  and  C_20
REMARK    6  A    between atoms: C_20  and  C_22
REMARK                            x       y       z     vdW  Elec       q    Type
REMARK                         _______ _______ _______ _____ _____    ______ ____
ROOT
ATOM      1  N   UNL     1      35.629 -17.220 -22.074  0.00  0.00    +0.387 N 
ATOM      2  C   UNL     1      33.466 -15.324 -22.613  0.00  0.00    +0.076 C 
ATOM      3  C   UNL     1      34.374 -15.862 -23.719  0.00  0.00    -0.003 C 
ATOM      4  C   UNL     1      34.185 -15.381 -21.265  0.00  0.00    -0.003 C 
ATOM      5  C   UNL     1      34.924 -17.245 -23.363  0.00  0.00    -0.076 C 
ATOM      6  C   UNL     1      34.739 -16.780 -20.990  0.00  0.00    -0.076 C 
ATOM      7  H   UNL     1      36.392 -16.547 -22.146  0.00  0.00    -0.080 HD
ENDROOT
BRANCH   2   9
ATOM      8  O   UNL     1      32.183 -13.419 -20.773  0.00  0.00    -0.275 OA
ATOM      9  N   UNL     1      33.031 -13.982 -22.913  0.00  0.00    -0.260 N 
ATOM     10  C   UNL     1      32.416 -13.129 -21.950  0.00  0.00    +0.229 C 
BRANCH   9  11
ATOM     11  C   UNL     1      33.231 -13.473 -24.268  0.00  0.00    +0.054 C 
ATOM     12  C   UNL     1      32.742 -14.217 -25.301  0.00  0.00    +0.015 C 
ATOM     13  C   UNL     1      33.892 -12.289 -24.407  0.00  0.00    +0.015 C 
ATOM     14  C   UNL     1      32.932 -13.731 -26.594  0.00  0.00    +0.001 C 
ATOM     15  C   UNL     1      34.082 -11.803 -25.702  0.00  0.00    +0.001 C 
ATOM     16  C   UNL     1      33.602 -12.524 -26.794  0.00  0.00    +0.000 C 
ENDBRANCH   9  11
BRANCH  10  17
ATOM     17  C   UNL     1      31.987 -11.764 -22.478  0.00  0.00    +0.086 C 
ATOM     18  C   UNL     1      30.866 -11.140 -21.660  0.00  0.00    +0.010 C 
ENDBRANCH  10  17
ENDBRANCH   2   9
BRANCH   1  19
ATOM     19  C   UNL     1      36.190 -18.537 -21.773  0.00  0.00    -0.072 C 
BRANCH  19  20
ATOM     20  C   UNL     1      35.087 -19.590 -21.658  0.00  0.00    +0.010 C 
BRANCH  20  22
ATOM     21  S   UNL     1      33.963 -21.269 -19.779  0.00  0.00    -0.091 S 
ATOM     22  C   UNL     1      35.307 -20.494 -20.473  0.00  0.00    +0.005 C 
ATOM     23  C   UNL     1      36.485 -20.784 -19.859  0.00  0.00    +0.003 C 
ATOM     24  C   UNL     1      36.289 -21.682 -18.769  0.00  0.00    +0.007 C 
ATOM     25  C   UNL     1      34.964 -22.025 -18.614  0.00  0.00    +0.035 C 
ENDBRANCH  20  22
ENDBRANCH  19  20
ENDBRANCH   1  19
TORSDOF 6
ENDMDL
MODEL 5
REMARK VINA RESULT:      -8.9      2.761      4.264
REMARK  Name = 62380
REMARK  6 active torsions:
REMARK  status: ('A' for Active; 'I' for Inactive)
REMARK    1  A    between atoms: N_1  and  C_19
REMARK    2  A    between atoms: C_2  and  N_9
REMARK    3  A    between atoms: N_9  and  C_11
REMARK    4  A    between atoms: C_10  and  C_17
REMARK    5  A    between atoms: C_19  and  C_20
REMARK    6  A    between atoms: C_20  and  C_22
REMARK                            x       y       z     vdW  Elec       q    Type
REMARK                         _______ _______ _______ _____ _____    ______ ____
ROOT
ATOM      1  N   UNL     1      34.848 -17.680 -21.615  0.00  0.00    +0.387 N 
ATOM      2  C   UNL     1      34.596 -15.414 -23.451  0.00  0.00    +0.076 C 
ATOM      3  C   UNL     1      34.107 -15.350 -22.003  0.00  0.00    -0.003 C 
ATOM      4  C   UNL     1      34.612 -16.863 -23.939  0.00  0.00    -0.003 C 
ATOM      5  C   UNL     1      34.901 -16.302 -21.107  0.00  0.00    -0.076 C 
ATOM      6  C   UNL     1      35.391 -17.764 -22.979  0.00  0.00    -0.076 C 
ATOM      7  H   UNL     1      33.868 -17.964 -21.650  0.00  0.00    -0.080 HD
ENDROOT
BRANCH   2   9
ATOM      8  O   UNL     1      33.712 -16.020 -26.192  0.00  0.00    -0.275 OA
ATOM      9  N   UNL     1      33.779 -14.587 -24.304  0.00  0.00    -0.260 N 
ATOM     10  C   UNL     1      33.400 -14.968 -25.626  0.00  0.00    +0.229 C 
BRANCH   9  11
ATOM     11  C   UNL     1      33.319 -13.299 -23.791  0.00  0.00    +0.054 C 
ATOM     12  C   UNL     1      32.277 -13.306 -22.911  0.00  0.00    +0.015 C 
ATOM     13  C   UNL     1      33.961 -12.179 -24.228  0.00  0.00    +0.015 C 
ATOM     14  C   UNL     1      31.838 -12.076 -22.421  0.00  0.00    +0.001 C 
ATOM     15  C   UNL     1      33.520 -10.949 -23.738  0.00  0.00    +0.001 C 
ATOM     16  C   UNL     1      32.459 -10.898 -22.835  0.00  0.00    +0.000 C 
ENDBRANCH   9  11
BRANCH  10  17
ATOM     17  C   UNL     1      32.573 -13.933 -26.383  0.00  0.00    +0.086 C 
ATOM     18  C   UNL     1      33.369 -13.218 -27.463  0.00  0.00    +0.010 C 
ENDBRANCH  10  17
ENDBRANCH   2   9
BRANCH   1  19
ATOM     19  C   UNL     1      35.569 -18.584 -20.721  0.00  0.00    -0.072 C 
BRANCH  19  20
ATOM     20  C   UNL     1      35.442 -20.035 -21.189  0.00  0.00    +0.010 C 
BRANCH  20  22
ATOM     21  S   UNL     1      35.911 -21.653 -19.004  0.00  0.00    -0.091 S 
ATOM     22  C   UNL     1      34.857 -20.913 -20.112  0.00  0.00    +0.005 C 
ATOM     23  C   UNL     1      33.546 -21.206 -19.903  0.00  0.00    +0.003 C 
ATOM     24  C   UNL     1      33.386 -22.075 -18.784  0.00  0.00    +0.007 C 
ATOM     25  C   UNL     1      34.592 -22.397 -18.203  0.00  0.00    +0.035 C 
ENDBRANCH  20  22
ENDBRANCH  19  20
ENDBRANCH   1  19
TORSDOF 6
ENDMDL
MODEL 6
REMARK VINA RESULT:      -8.8      1.775      2.176
REMARK  Name = 62380
REMARK  6 active torsions:
REMARK  status: ('A' for Active; 'I' for Inactive)
REMARK    1  A    between atoms: N_1  and  C_19
REMARK    2  A    between atoms: C_2  and  N_9
REMARK    3  A    between atoms: N_9  and  C_11
REMARK    4  A    between atoms: C_10  and  C_17
REMARK    5  A    between atoms: C_19  and  C_20
REMARK    6  A    between atoms: C_20  and  C_22
REMARK                            x       y       z     vdW  Elec       q    Type
REMARK                         _______ _______ _______ _____ _____    ______ ____
ROOT
ATOM      1  N   UNL     1      35.604 -20.662 -19.350  0.00  0.00    +0.387 N 
ATOM      2  C   UNL     1      34.982 -19.183 -21.797  0.00  0.00    +0.076 C 
ATOM      3  C   UNL     1      36.317 -19.029 -21.067  0.00  0.00    -0.003 C 
ATOM      4  C   UNL     1      33.898 -19.643 -20.823  0.00  0.00    -0.003 C 
ATOM      5  C   UNL     1      36.674 -20.297 -20.288  0.00  0.00    -0.076 C 
ATOM      6  C   UNL     1      34.334 -20.891 -20.054  0.00  0.00    -0.076 C 
ATOM      7  H   UNL     1      35.470 -19.881 -18.707  0.00  0.00    -0.080 HD
ENDROOT
BRANCH   2   9
ATOM      8  O   UNL     1      35.198 -18.554 -24.664  0.00  0.00    -0.275 OA
ATOM      9  N   UNL     1      34.609 -17.951 -22.448  0.00  0.00    -0.260 N 
ATOM     10  C   UNL     1      34.751 -17.739 -23.851  0.00  0.00    +0.229 C 
BRANCH   9  11
ATOM     11  C   UNL     1      34.060 -16.871 -21.631  0.00  0.00    +0.054 C 
ATOM     12  C   UNL     1      32.724 -16.902 -21.361  0.00  0.00    +0.015 C 
ATOM     13  C   UNL     1      34.920 -15.908 -21.197  0.00  0.00    +0.015 C 
ATOM     14  C   UNL     1      32.199 -15.871 -20.581  0.00  0.00    +0.001 C 
ATOM     15  C   UNL     1      34.394 -14.876 -20.417  0.00  0.00    +0.001 C 
ATOM     16  C   UNL     1      33.034 -14.858 -20.110  0.00  0.00    +0.000 C 
ENDBRANCH   9  11
BRANCH  10  17
ATOM     17  C   UNL     1      34.343 -16.351 -24.337  0.00  0.00    +0.086 C 
ATOM     18  C   UNL     1      33.748 -16.368 -25.737  0.00  0.00    +0.010 C 
ENDBRANCH  10  17
ENDBRANCH   2   9
BRANCH   1  19
ATOM     19  C   UNL     1      35.981 -21.847 -18.579  0.00  0.00    -0.072 C 
BRANCH  19  20
ATOM     20  C   UNL     1      36.909 -21.475 -17.422  0.00  0.00    +0.010 C 
BRANCH  20  22
ATOM     21  S   UNL     1      35.351 -22.878 -15.627  0.00  0.00    -0.091 S 
ATOM     22  C   UNL     1      36.856 -22.503 -16.320  0.00  0.00    +0.005 C 
ATOM     23  C   UNL     1      37.895 -23.195 -15.783  0.00  0.00    +0.003 C 
ATOM     24  C   UNL     1      37.449 -24.079 -14.757  0.00  0.00    +0.007 C 
ATOM     25  C   UNL     1      36.086 -24.005 -14.569  0.00  0.00    +0.035 C 
ENDBRANCH  20  22
ENDBRANCH  19  20
ENDBRANCH   1  19
TORSDOF 6
ENDMDL
MODEL 7
REMARK VINA RESULT:      -8.8      6.592      9.088
REMARK  Name = 62380
REMARK  6 active torsions:
REMARK  status: ('A' for Active; 'I' for Inactive)
REMARK    1  A    between atoms: N_1  and  C_19
REMARK    2  A    between atoms: C_2  and  N_9
REMARK    3  A    between atoms: N_9  and  C_11
REMARK    4  A    between atoms: C_10  and  C_17
REMARK    5  A    between atoms: C_19  and  C_20
REMARK    6  A    between atoms: C_20  and  C_22
REMARK                            x       y       z     vdW  Elec       q    Type
REMARK                         _______ _______ _______ _____ _____    ______ ____
ROOT
ATOM      1  N   UNL     1      32.912 -13.166 -22.283  0.00  0.00    +0.387 N 
ATOM      2  C   UNL     1      32.717 -10.434 -23.313  0.00  0.00    +0.076 C 
ATOM      3  C   UNL     1      33.769 -11.422 -23.816  0.00  0.00    -0.003 C 
ATOM      4  C   UNL     1      32.277 -10.807 -21.897  0.00  0.00    -0.003 C 
ATOM      5  C   UNL     1      33.288 -12.868 -23.672  0.00  0.00    -0.076 C 
ATOM      6  C   UNL     1      31.843 -12.271 -21.817  0.00  0.00    -0.076 C 
ATOM      7  H   UNL     1      33.732 -13.009 -21.696  0.00  0.00    -0.080 HD
ENDROOT
BRANCH   2   9
ATOM      8  O   UNL     1      35.343  -9.549 -24.302  0.00  0.00    -0.275 OA
ATOM      9  N   UNL     1      33.217  -9.083 -23.363  0.00  0.00    -0.260 N 
ATOM     10  C   UNL     1      34.511  -8.750 -23.863  0.00  0.00    +0.229 C 
BRANCH   9  11
ATOM     11  C   UNL     1      32.358  -8.004 -22.879  0.00  0.00    +0.054 C 
ATOM     12  C   UNL     1      31.350  -7.585 -23.696  0.00  0.00    +0.015 C 
ATOM     13  C   UNL     1      32.624  -7.490 -21.645  0.00  0.00    +0.015 C 
ATOM     14  C   UNL     1      30.530  -6.556 -23.235  0.00  0.00    +0.001 C 
ATOM     15  C   UNL     1      31.803  -6.459 -21.185  0.00  0.00    +0.001 C 
ATOM     16  C   UNL     1      30.757  -5.993 -21.979  0.00  0.00    +0.000 C 
ENDBRANCH   9  11
BRANCH  10  17
ATOM     17  C   UNL     1      34.870  -7.269 -23.787  0.00  0.00    +0.086 C 
ATOM     18  C   UNL     1      34.626  -6.535 -25.096  0.00  0.00    +0.010 C 
ENDBRANCH  10  17
ENDBRANCH   2   9
BRANCH   1  19
ATOM     19  C   UNL     1      32.502 -14.564 -22.153  0.00  0.00    -0.072 C 
BRANCH  19  20
ATOM     20  C   UNL     1      33.348 -15.289 -21.106  0.00  0.00    +0.010 C 
BRANCH  20  22
ATOM     21  S   UNL     1      34.894 -16.275 -23.168  0.00  0.00    -0.091 S 
ATOM     22  C   UNL     1      34.064 -16.476 -21.699  0.00  0.00    +0.005 C 
ATOM     23  C   UNL     1      34.135 -17.737 -21.196  0.00  0.00    +0.003 C 
ATOM     24  C   UNL     1      34.905 -18.586 -22.044  0.00  0.00    +0.007 C 
ATOM     25  C   UNL     1      35.376 -17.918 -23.153  0.00  0.00    +0.035 C 
ENDBRANCH  20  22
ENDBRANCH  19  20
ENDBRANCH   1  19
TORSDOF 6
ENDMDL
MODEL 8
REMARK VINA RESULT:      -8.6      4.560      9.920
REMARK  Name = 62380
REMARK  6 active torsions:
REMARK  status: ('A' for Active; 'I' for Inactive)
REMARK    1  A    between atoms: N_1  and  C_19
REMARK    2  A    between atoms: C_2  and  N_9
REMARK    3  A    between atoms: N_9  and  C_11
REMARK    4  A    between atoms: C_10  and  C_17
REMARK    5  A    between atoms: C_19  and  C_20
REMARK    6  A    between atoms: C_20  and  C_22
REMARK                            x       y       z     vdW  Elec       q    Type
REMARK                         _______ _______ _______ _____ _____    ______ ____
ROOT
ATOM      1  N   UNL     1      34.949 -22.740 -18.032  0.00  0.00    +0.387 N 
ATOM      2  C   UNL     1      35.194 -23.127 -15.141  0.00  0.00    +0.076 C 
ATOM      3  C   UNL     1      36.396 -22.791 -16.025  0.00  0.00    -0.003 C 
ATOM      4  C   UNL     1      34.107 -23.814 -15.969  0.00  0.00    -0.003 C 
ATOM      5  C   UNL     1      35.970 -22.009 -17.269  0.00  0.00    -0.076 C 
ATOM      6  C   UNL     1      33.756 -22.997 -17.213  0.00  0.00    -0.076 C 
ATOM      7  H   UNL     1      35.344 -23.642 -18.302  0.00  0.00    -0.080 HD
ENDROOT
BRANCH   2   9
ATOM      8  O   UNL     1      33.778 -23.445 -12.581  0.00  0.00    -0.275 OA
ATOM      9  N   UNL     1      35.592 -23.946 -14.023  0.00  0.00    -0.260 N 
ATOM     10  C   UNL     1      34.836 -24.037 -12.817  0.00  0.00    +0.229 C 
BRANCH   9  11
ATOM     11  C   UNL     1      36.827 -24.719 -14.131  0.00  0.00    +0.054 C 
ATOM     12  C   UNL     1      36.778 -25.895 -14.820  0.00  0.00    +0.015 C 
ATOM     13  C   UNL     1      37.943 -24.212 -13.536  0.00  0.00    +0.015 C 
ATOM     14  C   UNL     1      37.957 -26.632 -14.924  0.00  0.00    +0.001 C 
ATOM     15  C   UNL     1      39.123 -24.951 -13.639  0.00  0.00    +0.001 C 
ATOM     16  C   UNL     1      39.129 -26.161 -14.333  0.00  0.00    +0.000 C 
ENDBRANCH   9  11
BRANCH  10  17
ATOM     17  C   UNL     1      35.451 -24.921 -11.736  0.00  0.00    +0.086 C 
ATOM     18  C   UNL     1      35.836 -24.143 -10.487  0.00  0.00    +0.010 C 
ENDBRANCH  10  17
ENDBRANCH   2   9
BRANCH   1  19
ATOM     19  C   UNL     1      34.589 -22.003 -19.243  0.00  0.00    -0.072 C 
BRANCH  19  20
ATOM     20  C   UNL     1      35.826 -21.385 -19.897  0.00  0.00    +0.010 C 
BRANCH  20  22
ATOM     21  S   UNL     1      33.876 -19.727 -20.927  0.00  0.00    -0.091 S 
ATOM     22  C   UNL     1      35.500 -20.077 -20.570  0.00  0.00    +0.005 C 
ATOM     23  C   UNL     1      36.368 -19.100 -20.946  0.00  0.00    +0.003 C 
ATOM     24  C   UNL     1      35.681 -18.009 -21.555  0.00  0.00    +0.007 C 
ATOM     25  C   UNL     1      34.321 -18.220 -21.609  0.00  0.00    +0.035 C 
ENDBRANCH  20  22
ENDBRANCH  19  20
ENDBRANCH   1  19
TORSDOF 6
ENDMDL
MODEL 9
REMARK VINA RESULT:      -8.5      6.681      9.753
REMARK  Name = 62380
REMARK  6 active torsions:
REMARK  status: ('A' for Active; 'I' for Inactive)
REMARK    1  A    between atoms: N_1  and  C_19
REMARK    2  A    between atoms: C_2  and  N_9
REMARK    3  A    between atoms: N_9  and  C_11
REMARK    4  A    between atoms: C_10  and  C_17
REMARK    5  A    between atoms: C_19  and  C_20
REMARK    6  A    between atoms: C_20  and  C_22
REMARK                            x       y       z     vdW  Elec       q    Type
REMARK                         _______ _______ _______ _____ _____    ______ ____
ROOT
ATOM      1  N   UNL     1      33.672 -12.988 -23.489  0.00  0.00    +0.387 N 
ATOM      2  C   UNL     1      32.341 -10.387 -23.312  0.00  0.00    +0.076 C 
ATOM      3  C   UNL     1      33.729 -10.553 -23.931  0.00  0.00    -0.003 C 
ATOM      4  C   UNL     1      32.070 -11.513 -22.314  0.00  0.00    -0.003 C 
ATOM      5  C   UNL     1      33.916 -11.958 -24.508  0.00  0.00    -0.076 C 
ATOM      6  C   UNL     1      32.309 -12.885 -22.946  0.00  0.00    -0.076 C 
ATOM      7  H   UNL     1      34.327 -12.833 -22.723  0.00  0.00    -0.080 HD
ENDROOT
BRANCH   2   9
ATOM      8  O   UNL     1      31.900  -9.835 -20.456  0.00  0.00    -0.275 OA
ATOM      9  N   UNL     1      32.210  -9.095 -22.687  0.00  0.00    -0.260 N 
ATOM     10  C   UNL     1      31.997  -8.926 -21.286  0.00  0.00    +0.229 C 
BRANCH   9  11
ATOM     11  C   UNL     1      32.300  -7.902 -23.526  0.00  0.00    +0.054 C 
ATOM     12  C   UNL     1      33.544  -7.427 -23.817  0.00  0.00    +0.015 C 
ATOM     13  C   UNL     1      31.133  -7.347 -23.961  0.00  0.00    +0.015 C 
ATOM     14  C   UNL     1      33.630  -6.289 -24.618  0.00  0.00    +0.001 C 
ATOM     15  C   UNL     1      31.220  -6.208 -24.763  0.00  0.00    +0.001 C 
ATOM     16  C   UNL     1      32.467  -5.679 -25.091  0.00  0.00    +0.000 C 
ENDBRANCH   9  11
BRANCH  10  17
ATOM     17  C   UNL     1      31.838  -7.480 -20.828  0.00  0.00    +0.086 C 
ATOM     18  C   UNL     1      32.986  -7.010 -19.948  0.00  0.00    +0.010 C 
ENDBRANCH  10  17
ENDBRANCH   2   9
BRANCH   1  19
ATOM     19  C   UNL     1      33.902 -14.321 -24.043  0.00  0.00    -0.072 C 
BRANCH  19  20
ATOM     20  C   UNL     1      34.575 -15.233 -23.017  0.00  0.00    +0.010 C 
BRANCH  20  22
ATOM     21  S   UNL     1      34.996 -17.884 -22.377  0.00  0.00    -0.091 S 
ATOM     22  C   UNL     1      34.631 -16.660 -23.498  0.00  0.00    +0.005 C 
ATOM     23  C   UNL     1      34.423 -17.118 -24.761  0.00  0.00    +0.003 C 
ATOM     24  C   UNL     1      34.564 -18.535 -24.825  0.00  0.00    +0.007 C 
ATOM     25  C   UNL     1      34.876 -19.078 -23.598  0.00  0.00    +0.035 C 
ENDBRANCH  20  22
ENDBRANCH  19  20
ENDBRANCH   1  19
TORSDOF 6
ENDMDL
