MODEL 1
REMARK VINA RESULT:      -7.6      0.000      0.000
REMARK  Name = 1550874
REMARK  5 active torsions:
REMARK  status: ('A' for Active; 'I' for Inactive)
REMARK    1  A    between atoms: N_2  and  C_13
REMARK    2  A    between atoms: C_3  and  C_6
REMARK    3  A    between atoms: C_5  and  C_7
REMARK    4  A    between atoms: C_13  and  C_14
REMARK    5  A    between atoms: C_14  and  O_15
REMARK                            x       y       z     vdW  Elec       q    Type
REMARK                         _______ _______ _______ _____ _____    ______ ____
ROOT
ATOM      1  O   UNL     1      35.004 -17.123 -25.730  0.00  0.00    -0.270 OA
ATOM      2  N   UNL     1      34.045 -16.000 -23.936  0.00  0.00    -0.298 N 
ATOM      3  C   UNL     1      34.585 -17.102 -24.577  0.00  0.00    +0.246 C 
ATOM      4  H   UNL     1      33.739 -16.101 -23.005  0.00  0.00    +0.150 HD
ENDROOT
BRANCH   3   6
ATOM      5  C   UNL     1      34.550 -18.151 -22.361  0.00  0.00    +0.005 C 
ATOM      6  C   UNL     1      34.607 -18.301 -23.693  0.00  0.00    +0.058 C 
BRANCH   5   7
ATOM      7  C   UNL     1      34.556 -19.263 -21.394  0.00  0.00    +0.000 C 
ATOM      8  C   UNL     1      35.766 -19.779 -20.960  0.00  0.00    +0.000 C 
ATOM      9  C   UNL     1      33.350 -19.771 -20.937  0.00  0.00    +0.000 C 
ATOM     10  C   UNL     1      35.772 -20.831 -20.045  0.00  0.00    +0.000 C 
ATOM     11  C   UNL     1      33.355 -20.824 -20.021  0.00  0.00    +0.000 C 
ATOM     12  C   UNL     1      34.566 -21.353 -19.576  0.00  0.00    +0.000 C 
ENDBRANCH   5   7
ENDBRANCH   3   6
BRANCH   2  13
ATOM     13  C   UNL     1      33.906 -14.708 -24.569  0.00  0.00    +0.122 C 
BRANCH  13  14
ATOM     14  C   UNL     1      32.891 -14.744 -25.696  0.00  0.00    +0.158 C 
BRANCH  14  15
ATOM     15  O   UNL     1      33.570 -14.860 -26.940  0.00  0.00    -0.380 OA
ATOM     16  H   UNL     1      34.527 -14.890 -26.784  0.00  0.00    +0.211 HD
ENDBRANCH  14  15
ENDBRANCH  13  14
ENDBRANCH   2  13
TORSDOF 5
ENDMDL
MODEL 2
REMARK VINA RESULT:      -7.6      1.653      1.970
REMARK  Name = 1550874
REMARK  5 active torsions:
REMARK  status: ('A' for Active; 'I' for Inactive)
REMARK    1  A    between atoms: N_2  and  C_13
REMARK    2  A    between atoms: C_3  and  C_6
REMARK    3  A    between atoms: C_5  and  C_7
REMARK    4  A    between atoms: C_13  and  C_14
REMARK    5  A    between atoms: C_14  and  O_15
REMARK                            x       y       z     vdW  Elec       q    Type
REMARK                         _______ _______ _______ _____ _____    ______ ____
ROOT
ATOM      1  O   UNL     1      34.685 -14.906 -21.385  0.00  0.00    -0.270 OA
ATOM      2  N   UNL     1      34.243 -16.290 -23.198  0.00  0.00    -0.298 N 
ATOM      3  C   UNL     1      34.607 -16.021 -21.890  0.00  0.00    +0.246 C 
ATOM      4  H   UNL     1      34.215 -17.229 -23.494  0.00  0.00    +0.150 HD
ENDROOT
BRANCH   3   6
ATOM      5  C   UNL     1      34.207 -18.386 -21.382  0.00  0.00    +0.005 C 
ATOM      6  C   UNL     1      34.904 -17.269 -21.130  0.00  0.00    +0.058 C 
BRANCH   5   7
ATOM      7  C   UNL     1      34.420 -19.676 -20.700  0.00  0.00    +0.000 C 
ATOM      8  C   UNL     1      35.709 -20.164 -20.561  0.00  0.00    +0.000 C 
ATOM      9  C   UNL     1      33.328 -20.374 -20.213  0.00  0.00    +0.000 C 
ATOM     10  C   UNL     1      35.912 -21.384 -19.916  0.00  0.00    +0.000 C 
ATOM     11  C   UNL     1      33.529 -21.595 -19.568  0.00  0.00    +0.000 C 
ATOM     12  C   UNL     1      34.821 -22.099 -19.420  0.00  0.00    +0.000 C 
ENDBRANCH   5   7
ENDBRANCH   3   6
BRANCH   2  13
ATOM     13  C   UNL     1      33.903 -15.258 -24.151  0.00  0.00    +0.122 C 
BRANCH  13  14
ATOM     14  C   UNL     1      33.755 -15.820 -25.553  0.00  0.00    +0.158 C 
BRANCH  14  15
ATOM     15  O   UNL     1      34.785 -16.771 -25.792  0.00  0.00    -0.380 OA
ATOM     16  H   UNL     1      34.454 -17.662 -25.599  0.00  0.00    +0.211 HD
ENDBRANCH  14  15
ENDBRANCH  13  14
ENDBRANCH   2  13
TORSDOF 5
ENDMDL
MODEL 3
REMARK VINA RESULT:      -7.5      1.275      1.924
REMARK  Name = 1550874
REMARK  5 active torsions:
REMARK  status: ('A' for Active; 'I' for Inactive)
REMARK    1  A    between atoms: N_2  and  C_13
REMARK    2  A    between atoms: C_3  and  C_6
REMARK    3  A    between atoms: C_5  and  C_7
REMARK    4  A    between atoms: C_13  and  C_14
REMARK    5  A    between atoms: C_14  and  O_15
REMARK                            x       y       z     vdW  Elec       q    Type
REMARK                         _______ _______ _______ _____ _____    ______ ____
ROOT
ATOM      1  O   UNL     1      34.640 -17.837 -25.459  0.00  0.00    -0.270 OA
ATOM      2  N   UNL     1      34.376 -16.554 -23.540  0.00  0.00    -0.298 N 
ATOM      3  C   UNL     1      34.557 -17.735 -24.240  0.00  0.00    +0.246 C 
ATOM      4  H   UNL     1      34.323 -16.594 -22.557  0.00  0.00    +0.150 HD
ENDROOT
BRANCH   3   6
ATOM      5  C   UNL     1      34.543 -18.737 -22.002  0.00  0.00    +0.005 C 
ATOM      6  C   UNL     1      34.644 -18.911 -23.328  0.00  0.00    +0.058 C 
BRANCH   5   7
ATOM      7  C   UNL     1      34.605 -19.826 -21.010  0.00  0.00    +0.000 C 
ATOM      8  C   UNL     1      33.428 -20.368 -20.522  0.00  0.00    +0.000 C 
ATOM      9  C   UNL     1      35.841 -20.286 -20.585  0.00  0.00    +0.000 C 
ATOM     10  C   UNL     1      33.487 -21.397 -19.583  0.00  0.00    +0.000 C 
ATOM     11  C   UNL     1      35.902 -21.316 -19.646  0.00  0.00    +0.000 C 
ATOM     12  C   UNL     1      34.724 -21.871 -19.145  0.00  0.00    +0.000 C 
ENDBRANCH   5   7
ENDBRANCH   3   6
BRANCH   2  13
ATOM     13  C   UNL     1      34.259 -15.265 -24.183  0.00  0.00    +0.122 C 
BRANCH  13  14
ATOM     14  C   UNL     1      34.134 -14.144 -23.167  0.00  0.00    +0.158 C 
BRANCH  14  15
ATOM     15  O   UNL     1      34.231 -12.891 -23.831  0.00  0.00    -0.380 OA
ATOM     16  H   UNL     1      34.827 -12.307 -23.336  0.00  0.00    +0.211 HD
ENDBRANCH  14  15
ENDBRANCH  13  14
ENDBRANCH   2  13
TORSDOF 5
ENDMDL
MODEL 4
REMARK VINA RESULT:      -7.5      1.359      2.099
REMARK  Name = 1550874
REMARK  5 active torsions:
REMARK  status: ('A' for Active; 'I' for Inactive)
REMARK    1  A    between atoms: N_2  and  C_13
REMARK    2  A    between atoms: C_3  and  C_6
REMARK    3  A    between atoms: C_5  and  C_7
REMARK    4  A    between atoms: C_13  and  C_14
REMARK    5  A    between atoms: C_14  and  O_15
REMARK                            x       y       z     vdW  Elec       q    Type
REMARK                         _______ _______ _______ _____ _____    ______ ____
ROOT
ATOM      1  O   UNL     1      35.223 -15.601 -22.559  0.00  0.00    -0.270 OA
ATOM      2  N   UNL     1      34.847 -17.418 -23.958  0.00  0.00    -0.298 N 
ATOM      3  C   UNL     1      35.049 -16.802 -22.735  0.00  0.00    +0.246 C 
ATOM      4  H   UNL     1      34.717 -18.394 -23.977  0.00  0.00    +0.150 HD
ENDROOT
BRANCH   3   6
ATOM      5  C   UNL     1      34.615 -19.039 -21.829  0.00  0.00    +0.005 C 
ATOM      6  C   UNL     1      35.031 -17.783 -21.612  0.00  0.00    +0.058 C 
BRANCH   5   7
ATOM      7  C   UNL     1      34.564 -20.092 -20.798  0.00  0.00    +0.000 C 
ATOM      8  C   UNL     1      33.337 -20.493 -20.298  0.00  0.00    +0.000 C 
ATOM      9  C   UNL     1      35.746 -20.661 -20.351  0.00  0.00    +0.000 C 
ATOM     10  C   UNL     1      33.288 -21.489 -19.323  0.00  0.00    +0.000 C 
ATOM     11  C   UNL     1      35.699 -21.657 -19.375  0.00  0.00    +0.000 C 
ATOM     12  C   UNL     1      34.469 -22.070 -18.862  0.00  0.00    +0.000 C 
ENDBRANCH   5   7
ENDBRANCH   3   6
BRANCH   2  13
ATOM     13  C   UNL     1      34.818 -16.696 -25.210  0.00  0.00    +0.122 C 
BRANCH  13  14
ATOM     14  C   UNL     1      33.539 -15.892 -25.361  0.00  0.00    +0.158 C 
BRANCH  14  15
ATOM     15  O   UNL     1      33.386 -15.499 -26.718  0.00  0.00    -0.380 OA
ATOM     16  H   UNL     1      32.562 -14.996 -26.818  0.00  0.00    +0.211 HD
ENDBRANCH  14  15
ENDBRANCH  13  14
ENDBRANCH   2  13
TORSDOF 5
ENDMDL
MODEL 5
REMARK VINA RESULT:      -7.4      2.140      2.339
REMARK  Name = 1550874
REMARK  5 active torsions:
REMARK  status: ('A' for Active; 'I' for Inactive)
REMARK    1  A    between atoms: N_2  and  C_13
REMARK    2  A    between atoms: C_3  and  C_6
REMARK    3  A    between atoms: C_5  and  C_7
REMARK    4  A    between atoms: C_13  and  C_14
REMARK    5  A    between atoms: C_14  and  O_15
REMARK                            x       y       z     vdW  Elec       q    Type
REMARK                         _______ _______ _______ _____ _____    ______ ____
ROOT
ATOM      1  O   UNL     1      35.519 -16.015 -23.437  0.00  0.00    -0.270 OA
ATOM      2  N   UNL     1      33.641 -15.806 -22.084  0.00  0.00    -0.298 N 
ATOM      3  C   UNL     1      34.811 -16.408 -22.515  0.00  0.00    +0.246 C 
ATOM      4  H   UNL     1      33.153 -16.213 -21.331  0.00  0.00    +0.150 HD
ENDROOT
BRANCH   3   6
ATOM      5  C   UNL     1      34.181 -18.534 -21.469  0.00  0.00    +0.005 C 
ATOM      6  C   UNL     1      35.135 -17.624 -21.717  0.00  0.00    +0.058 C 
BRANCH   5   7
ATOM      7  C   UNL     1      34.390 -19.775 -20.701  0.00  0.00    +0.000 C 
ATOM      8  C   UNL     1      35.680 -20.236 -20.494  0.00  0.00    +0.000 C 
ATOM      9  C   UNL     1      33.292 -20.455 -20.200  0.00  0.00    +0.000 C 
ATOM     10  C   UNL     1      35.878 -21.410 -19.768  0.00  0.00    +0.000 C 
ATOM     11  C   UNL     1      33.489 -21.630 -19.473  0.00  0.00    +0.000 C 
ATOM     12  C   UNL     1      34.782 -22.107 -19.258  0.00  0.00    +0.000 C 
ENDBRANCH   5   7
ENDBRANCH   3   6
BRANCH   2  13
ATOM     13  C   UNL     1      33.099 -14.609 -22.688  0.00  0.00    +0.122 C 
BRANCH  13  14
ATOM     14  C   UNL     1      32.433 -13.717 -21.656  0.00  0.00    +0.158 C 
BRANCH  14  15
ATOM     15  O   UNL     1      31.631 -12.747 -22.317  0.00  0.00    -0.380 OA
ATOM     16  H   UNL     1      31.822 -11.868 -21.954  0.00  0.00    +0.211 HD
ENDBRANCH  14  15
ENDBRANCH  13  14
ENDBRANCH   2  13
TORSDOF 5
ENDMDL
MODEL 6
REMARK VINA RESULT:      -7.2      4.116      7.044
REMARK  Name = 1550874
REMARK  5 active torsions:
REMARK  status: ('A' for Active; 'I' for Inactive)
REMARK    1  A    between atoms: N_2  and  C_13
REMARK    2  A    between atoms: C_3  and  C_6
REMARK    3  A    between atoms: C_5  and  C_7
REMARK    4  A    between atoms: C_13  and  C_14
REMARK    5  A    between atoms: C_14  and  O_15
REMARK                            x       y       z     vdW  Elec       q    Type
REMARK                         _______ _______ _______ _____ _____    ______ ____
ROOT
ATOM      1  O   UNL     1      32.717 -21.512 -19.533  0.00  0.00    -0.270 OA
ATOM      2  N   UNL     1      35.011 -21.142 -19.562  0.00  0.00    -0.298 N 
ATOM      3  C   UNL     1      33.705 -20.925 -19.964  0.00  0.00    +0.246 C 
ATOM      4  H   UNL     1      35.726 -20.609 -19.980  0.00  0.00    +0.150 HD
ENDROOT
BRANCH   3   6
ATOM      5  C   UNL     1      34.698 -19.556 -21.740  0.00  0.00    +0.005 C 
ATOM      6  C   UNL     1      33.616 -19.868 -21.011  0.00  0.00    +0.058 C 
BRANCH   5   7
ATOM      7  C   UNL     1      34.723 -18.536 -22.804  0.00  0.00    +0.000 C 
ATOM      8  C   UNL     1      34.936 -17.210 -22.468  0.00  0.00    +0.000 C 
ATOM      9  C   UNL     1      34.533 -18.926 -24.120  0.00  0.00    +0.000 C 
ATOM     10  C   UNL     1      34.960 -16.245 -23.475  0.00  0.00    +0.000 C 
ATOM     11  C   UNL     1      34.557 -17.961 -25.128  0.00  0.00    +0.000 C 
ATOM     12  C   UNL     1      34.770 -16.621 -24.805  0.00  0.00    +0.000 C 
ENDBRANCH   5   7
ENDBRANCH   3   6
BRANCH   2  13
ATOM     13  C   UNL     1      35.377 -22.115 -18.557  0.00  0.00    +0.122 C 
BRANCH  13  14
ATOM     14  C   UNL     1      36.675 -21.740 -17.864  0.00  0.00    +0.158 C 
BRANCH  14  15
ATOM     15  O   UNL     1      37.015 -22.748 -16.921  0.00  0.00    -0.380 OA
ATOM     16  H   UNL     1      37.480 -22.345 -16.171  0.00  0.00    +0.211 HD
ENDBRANCH  14  15
ENDBRANCH  13  14
ENDBRANCH   2  13
TORSDOF 5
ENDMDL
MODEL 7
REMARK VINA RESULT:      -7.2      4.775      7.614
REMARK  Name = 1550874
REMARK  5 active torsions:
REMARK  status: ('A' for Active; 'I' for Inactive)
REMARK    1  A    between atoms: N_2  and  C_13
REMARK    2  A    between atoms: C_3  and  C_6
REMARK    3  A    between atoms: C_5  and  C_7
REMARK    4  A    between atoms: C_13  and  C_14
REMARK    5  A    between atoms: C_14  and  O_15
REMARK                            x       y       z     vdW  Elec       q    Type
REMARK                         _______ _______ _______ _____ _____    ______ ____
ROOT
ATOM      1  O   UNL     1      34.949 -22.635 -19.529  0.00  0.00    -0.270 OA
ATOM      2  N   UNL     1      36.374 -21.394 -18.177  0.00  0.00    -0.298 N 
ATOM      3  C   UNL     1      35.658 -21.654 -19.332  0.00  0.00    +0.246 C 
ATOM      4  H   UNL     1      36.912 -20.570 -18.132  0.00  0.00    +0.150 HD
ENDROOT
BRANCH   3   6
ATOM      5  C   UNL     1      34.773 -19.942 -20.849  0.00  0.00    +0.005 C 
ATOM      6  C   UNL     1      35.842 -20.580 -20.350  0.00  0.00    +0.058 C 
BRANCH   5   7
ATOM      7  C   UNL     1      34.837 -18.862 -21.850  0.00  0.00    +0.000 C 
ATOM      8  C   UNL     1      34.819 -19.183 -23.197  0.00  0.00    +0.000 C 
ATOM      9  C   UNL     1      34.914 -17.546 -21.424  0.00  0.00    +0.000 C 
ATOM     10  C   UNL     1      34.880 -18.161 -24.145  0.00  0.00    +0.000 C 
ATOM     11  C   UNL     1      34.974 -16.523 -22.370  0.00  0.00    +0.000 C 
ATOM     12  C   UNL     1      34.958 -16.831 -23.731  0.00  0.00    +0.000 C 
ENDBRANCH   5   7
ENDBRANCH   3   6
BRANCH   2  13
ATOM     13  C   UNL     1      36.371 -22.276 -17.031  0.00  0.00    +0.122 C 
BRANCH  13  14
ATOM     14  C   UNL     1      37.553 -22.008 -16.117  0.00  0.00    +0.158 C 
BRANCH  14  15
ATOM     15  O   UNL     1      38.321 -23.195 -15.978  0.00  0.00    -0.380 OA
ATOM     16  H   UNL     1      37.939 -23.895 -16.530  0.00  0.00    +0.211 HD
ENDBRANCH  14  15
ENDBRANCH  13  14
ENDBRANCH   2  13
TORSDOF 5
ENDMDL
MODEL 8
REMARK VINA RESULT:      -7.1      7.255     10.084
REMARK  Name = 1550874
REMARK  5 active torsions:
REMARK  status: ('A' for Active; 'I' for Inactive)
REMARK    1  A    between atoms: N_2  and  C_13
REMARK    2  A    between atoms: C_3  and  C_6
REMARK    3  A    between atoms: C_5  and  C_7
REMARK    4  A    between atoms: C_13  and  C_14
REMARK    5  A    between atoms: C_14  and  O_15
REMARK                            x       y       z     vdW  Elec       q    Type
REMARK                         _______ _______ _______ _____ _____    ______ ____
ROOT
ATOM      1  O   UNL     1      36.648 -23.130 -14.178  0.00  0.00    -0.270 OA
ATOM      2  N   UNL     1      38.274 -24.149 -15.489  0.00  0.00    -0.298 N 
ATOM      3  C   UNL     1      37.251 -23.251 -15.240  0.00  0.00    +0.246 C 
ATOM      4  H   UNL     1      38.686 -24.156 -16.383  0.00  0.00    +0.150 HD
ENDROOT
BRANCH   3   6
ATOM      5  C   UNL     1      35.860 -22.678 -17.176  0.00  0.00    +0.005 C 
ATOM      6  C   UNL     1      36.946 -22.414 -16.435  0.00  0.00    +0.058 C 
BRANCH   5   7
ATOM      7  C   UNL     1      35.457 -21.913 -18.371  0.00  0.00    +0.000 C 
ATOM      8  C   UNL     1      36.426 -21.277 -19.128  0.00  0.00    +0.000 C 
ATOM      9  C   UNL     1      34.116 -21.846 -18.712  0.00  0.00    +0.000 C 
ATOM     10  C   UNL     1      36.046 -20.554 -20.258  0.00  0.00    +0.000 C 
ATOM     11  C   UNL     1      33.734 -21.122 -19.842  0.00  0.00    +0.000 C 
ATOM     12  C   UNL     1      34.699 -20.476 -20.614  0.00  0.00    +0.000 C 
ENDBRANCH   5   7
ENDBRANCH   3   6
BRANCH   2  13
ATOM     13  C   UNL     1      38.767 -25.079 -14.497  0.00  0.00    +0.122 C 
BRANCH  13  14
ATOM     14  C   UNL     1      40.207 -25.473 -14.770  0.00  0.00    +0.158 C 
BRANCH  14  15
ATOM     15  O   UNL     1      40.341 -25.861 -16.131  0.00  0.00    -0.380 OA
ATOM     16  H   UNL     1      41.068 -26.499 -16.215  0.00  0.00    +0.211 HD
ENDBRANCH  14  15
ENDBRANCH  13  14
ENDBRANCH   2  13
TORSDOF 5
ENDMDL
MODEL 9
REMARK VINA RESULT:      -7.1      6.378      9.179
REMARK  Name = 1550874
REMARK  5 active torsions:
REMARK  status: ('A' for Active; 'I' for Inactive)
REMARK    1  A    between atoms: N_2  and  C_13
REMARK    2  A    between atoms: C_3  and  C_6
REMARK    3  A    between atoms: C_5  and  C_7
REMARK    4  A    between atoms: C_13  and  C_14
REMARK    5  A    between atoms: C_14  and  O_15
REMARK                            x       y       z     vdW  Elec       q    Type
REMARK                         _______ _______ _______ _____ _____    ______ ____
ROOT
ATOM      1  O   UNL     1      38.303 -22.776 -16.164  0.00  0.00    -0.270 OA
ATOM      2  N   UNL     1      36.066 -23.181 -15.680  0.00  0.00    -0.298 N 
ATOM      3  C   UNL     1      37.108 -22.589 -16.372  0.00  0.00    +0.246 C 
ATOM      4  H   UNL     1      35.143 -22.954 -15.936  0.00  0.00    +0.150 HD
ENDROOT
BRANCH   3   6
ATOM      5  C   UNL     1      35.660 -22.082 -18.285  0.00  0.00    +0.005 C 
ATOM      6  C   UNL     1      36.614 -21.670 -17.437  0.00  0.00    +0.058 C 
BRANCH   5   7
ATOM      7  C   UNL     1      35.091 -21.257 -19.367  0.00  0.00    +0.000 C 
ATOM      8  C   UNL     1      35.942 -20.548 -20.198  0.00  0.00    +0.000 C 
ATOM      9  C   UNL     1      33.716 -21.208 -19.530  0.00  0.00    +0.000 C 
ATOM     10  C   UNL     1      35.404 -19.768 -21.221  0.00  0.00    +0.000 C 
ATOM     11  C   UNL     1      33.177 -20.428 -20.553  0.00  0.00    +0.000 C 
ATOM     12  C   UNL     1      34.021 -19.708 -21.398  0.00  0.00    +0.000 C 
ENDBRANCH   5   7
ENDBRANCH   3   6
BRANCH   2  13
ATOM     13  C   UNL     1      36.269 -24.116 -14.596  0.00  0.00    +0.122 C 
BRANCH  13  14
ATOM     14  C   UNL     1      36.462 -25.531 -15.109  0.00  0.00    +0.158 C 
BRANCH  14  15
ATOM     15  O   UNL     1      37.846 -25.767 -15.336  0.00  0.00    -0.380 OA
ATOM     16  H   UNL     1      38.356 -25.463 -14.569  0.00  0.00    +0.211 HD
ENDBRANCH  14  15
ENDBRANCH  13  14
ENDBRANCH   2  13
TORSDOF 5
ENDMDL
