MODEL 1
REMARK VINA RESULT:      -7.0      0.000      0.000
REMARK  Name = 7175
REMARK  5 active torsions:
REMARK  status: ('A' for Active; 'I' for Inactive)
REMARK    1  A    between atoms: C_1  and  C_8
REMARK    2  A    between atoms: C_6  and  O_13
REMARK    3  A    between atoms: C_8  and  O_9
REMARK    4  A    between atoms: O_9  and  C_10
REMARK    5  A    between atoms: C_10  and  C_11
REMARK                            x       y       z     vdW  Elec       q    Type
REMARK                         _______ _______ _______ _____ _____    ______ ____
ROOT
ATOM      1  C   UNL     1      34.849 -19.540 -21.015  0.00  0.00    +0.076 C 
ATOM      2  C   UNL     1      33.458 -19.520 -20.909  0.00  0.00    +0.010 C 
ATOM      3  C   UNL     1      35.584 -20.526 -20.359  0.00  0.00    +0.010 C 
ATOM      4  C   UNL     1      32.803 -20.489 -20.148  0.00  0.00    +0.037 C 
ATOM      5  C   UNL     1      34.930 -21.495 -19.599  0.00  0.00    +0.037 C 
ATOM      6  C   UNL     1      33.538 -21.476 -19.493  0.00  0.00    +0.134 C 
ENDROOT
BRANCH   1   8
ATOM      7  O   UNL     1      36.760 -18.452 -21.894  0.00  0.00    -0.245 OA
ATOM      8  C   UNL     1      35.532 -18.530 -21.807  0.00  0.00    +0.341 C 
BRANCH   8   9
ATOM      9  O   UNL     1      34.679 -17.669 -22.450  0.00  0.00    -0.445 OA
BRANCH   9  10
ATOM     10  C   UNL     1      34.936 -16.271 -22.279  0.00  0.00    +0.209 C 
BRANCH  10  11
ATOM     11  C   UNL     1      34.509 -15.859 -20.879  0.00  0.00    +0.047 C 
ATOM     12  C   UNL     1      33.026 -15.547 -20.809  0.00  0.00    +0.004 C 
ENDBRANCH  10  11
ENDBRANCH   9  10
ENDBRANCH   8   9
ENDBRANCH   1   8
BRANCH   6  13
ATOM     13  O   UNL     1      32.899 -22.421 -18.751  0.00  0.00    -0.506 OA
ATOM     14  H   UNL     1      33.258 -23.284 -18.682  0.00  0.00    +0.292 HD
ENDBRANCH   6  13
TORSDOF 5
ENDMDL
MODEL 2
REMARK VINA RESULT:      -7.0      1.653      2.643
REMARK  Name = 7175
REMARK  5 active torsions:
REMARK  status: ('A' for Active; 'I' for Inactive)
REMARK    1  A    between atoms: C_1  and  C_8
REMARK    2  A    between atoms: C_6  and  O_13
REMARK    3  A    between atoms: C_8  and  O_9
REMARK    4  A    between atoms: O_9  and  C_10
REMARK    5  A    between atoms: C_10  and  C_11
REMARK                            x       y       z     vdW  Elec       q    Type
REMARK                         _______ _______ _______ _____ _____    ______ ____
ROOT
ATOM      1  C   UNL     1      34.595 -19.817 -20.581  0.00  0.00    +0.076 C 
ATOM      2  C   UNL     1      35.648 -20.651 -20.201  0.00  0.00    +0.010 C 
ATOM      3  C   UNL     1      33.277 -20.214 -20.358  0.00  0.00    +0.010 C 
ATOM      4  C   UNL     1      35.381 -21.881 -19.599  0.00  0.00    +0.037 C 
ATOM      5  C   UNL     1      33.010 -21.442 -19.755  0.00  0.00    +0.037 C 
ATOM      6  C   UNL     1      34.063 -22.276 -19.375  0.00  0.00    +0.134 C 
ENDROOT
BRANCH   1   8
ATOM      7  O   UNL     1      35.521 -17.639 -20.666  0.00  0.00    -0.245 OA
ATOM      8  C   UNL     1      34.873 -18.536 -21.210  0.00  0.00    +0.341 C 
BRANCH   8   9
ATOM      9  O   UNL     1      34.342 -18.419 -22.470  0.00  0.00    -0.445 OA
BRANCH   9  10
ATOM     10  C   UNL     1      34.991 -19.165 -23.506  0.00  0.00    +0.209 C 
BRANCH  10  11
ATOM     11  C   UNL     1      34.407 -18.752 -24.849  0.00  0.00    +0.047 C 
ATOM     12  C   UNL     1      34.576 -17.266 -25.105  0.00  0.00    +0.004 C 
ENDBRANCH  10  11
ENDBRANCH   9  10
ENDBRANCH   8   9
ENDBRANCH   1   8
BRANCH   6  13
ATOM     13  O   UNL     1      33.802 -23.476 -18.788  0.00  0.00    -0.506 OA
ATOM     14  H   UNL     1      34.224 -24.252 -19.101  0.00  0.00    +0.292 HD
ENDBRANCH   6  13
TORSDOF 5
ENDMDL
MODEL 3
REMARK VINA RESULT:      -6.8      2.037      5.260
REMARK  Name = 7175
REMARK  5 active torsions:
REMARK  status: ('A' for Active; 'I' for Inactive)
REMARK    1  A    between atoms: C_1  and  C_8
REMARK    2  A    between atoms: C_6  and  O_13
REMARK    3  A    between atoms: C_8  and  O_9
REMARK    4  A    between atoms: O_9  and  C_10
REMARK    5  A    between atoms: C_10  and  C_11
REMARK                            x       y       z     vdW  Elec       q    Type
REMARK                         _______ _______ _______ _____ _____    ______ ____
ROOT
ATOM      1  C   UNL     1      35.122 -18.353 -22.608  0.00  0.00    +0.076 C 
ATOM      2  C   UNL     1      34.746 -19.028 -23.769  0.00  0.00    +0.010 C 
ATOM      3  C   UNL     1      35.215 -16.962 -22.610  0.00  0.00    +0.010 C 
ATOM      4  C   UNL     1      34.462 -18.311 -24.932  0.00  0.00    +0.037 C 
ATOM      5  C   UNL     1      34.931 -16.244 -23.771  0.00  0.00    +0.037 C 
ATOM      6  C   UNL     1      34.554 -16.919 -24.933  0.00  0.00    +0.134 C 
ENDROOT
BRANCH   1   8
ATOM      7  O   UNL     1      36.261 -18.745 -20.570  0.00  0.00    -0.245 OA
ATOM      8  C   UNL     1      35.418 -19.100 -21.396  0.00  0.00    +0.341 C 
BRANCH   8   9
ATOM      9  O   UNL     1      34.669 -20.241 -21.261  0.00  0.00    -0.445 OA
BRANCH   9  10
ATOM     10  C   UNL     1      33.393 -20.094 -20.627  0.00  0.00    +0.209 C 
BRANCH  10  11
ATOM     11  C   UNL     1      33.259 -21.148 -19.539  0.00  0.00    +0.047 C 
ATOM     12  C   UNL     1      34.538 -21.945 -19.364  0.00  0.00    +0.004 C 
ENDBRANCH  10  11
ENDBRANCH   9  10
ENDBRANCH   8   9
ENDBRANCH   1   8
BRANCH   6  13
ATOM     13  O   UNL     1      34.278 -16.220 -26.067  0.00  0.00    -0.506 OA
ATOM     14  H   UNL     1      34.085 -16.675 -26.864  0.00  0.00    +0.292 HD
ENDBRANCH   6  13
TORSDOF 5
ENDMDL
MODEL 4
REMARK VINA RESULT:      -6.8      2.330      5.839
REMARK  Name = 7175
REMARK  5 active torsions:
REMARK  status: ('A' for Active; 'I' for Inactive)
REMARK    1  A    between atoms: C_1  and  C_8
REMARK    2  A    between atoms: C_6  and  O_13
REMARK    3  A    between atoms: C_8  and  O_9
REMARK    4  A    between atoms: O_9  and  C_10
REMARK    5  A    between atoms: C_10  and  C_11
REMARK                            x       y       z     vdW  Elec       q    Type
REMARK                         _______ _______ _______ _____ _____    ______ ____
ROOT
ATOM      1  C   UNL     1      34.087 -21.646 -19.545  0.00  0.00    +0.076 C 
ATOM      2  C   UNL     1      33.277 -20.675 -20.134  0.00  0.00    +0.010 C 
ATOM      3  C   UNL     1      35.475 -21.541 -19.626  0.00  0.00    +0.010 C 
ATOM      4  C   UNL     1      33.857 -19.596 -20.803  0.00  0.00    +0.037 C 
ATOM      5  C   UNL     1      36.054 -20.462 -20.294  0.00  0.00    +0.037 C 
ATOM      6  C   UNL     1      35.245 -19.490 -20.883  0.00  0.00    +0.134 C 
ENDROOT
BRANCH   1   8
ATOM      7  O   UNL     1      33.895 -23.929 -18.944  0.00  0.00    -0.245 OA
ATOM      8  C   UNL     1      33.483 -22.771 -18.848  0.00  0.00    +0.341 C 
BRANCH   8   9
ATOM      9  O   UNL     1      32.406 -22.420 -18.073  0.00  0.00    -0.445 OA
BRANCH   9  10
ATOM     10  C   UNL     1      32.237 -23.148 -16.852  0.00  0.00    +0.209 C 
BRANCH  10  11
ATOM     11  C   UNL     1      30.814 -22.948 -16.353  0.00  0.00    +0.047 C 
ATOM     12  C   UNL     1      30.759 -22.798 -14.844  0.00  0.00    +0.004 C 
ENDBRANCH  10  11
ENDBRANCH   9  10
ENDBRANCH   8   9
ENDBRANCH   1   8
BRANCH   6  13
ATOM     13  O   UNL     1      35.810 -18.438 -21.536  0.00  0.00    -0.506 OA
ATOM     14  H   UNL     1      35.882 -18.450 -22.470  0.00  0.00    +0.292 HD
ENDBRANCH   6  13
TORSDOF 5
ENDMDL
MODEL 5
REMARK VINA RESULT:      -6.7      2.037      5.837
REMARK  Name = 7175
REMARK  5 active torsions:
REMARK  status: ('A' for Active; 'I' for Inactive)
REMARK    1  A    between atoms: C_1  and  C_8
REMARK    2  A    between atoms: C_6  and  O_13
REMARK    3  A    between atoms: C_8  and  O_9
REMARK    4  A    between atoms: O_9  and  C_10
REMARK    5  A    between atoms: C_10  and  C_11
REMARK                            x       y       z     vdW  Elec       q    Type
REMARK                         _______ _______ _______ _____ _____    ______ ____
ROOT
ATOM      1  C   UNL     1      34.197 -21.302 -19.502  0.00  0.00    +0.076 C 
ATOM      2  C   UNL     1      35.563 -21.109 -19.708  0.00  0.00    +0.010 C 
ATOM      3  C   UNL     1      33.271 -20.518 -20.188  0.00  0.00    +0.010 C 
ATOM      4  C   UNL     1      36.002 -20.133 -20.603  0.00  0.00    +0.037 C 
ATOM      5  C   UNL     1      33.709 -19.542 -21.083  0.00  0.00    +0.037 C 
ATOM      6  C   UNL     1      35.076 -19.349 -21.290  0.00  0.00    +0.134 C 
ENDROOT
BRANCH   1   8
ATOM      7  O   UNL     1      32.554 -22.636 -18.439  0.00  0.00    -0.245 OA
ATOM      8  C   UNL     1      33.738 -22.319 -18.568  0.00  0.00    +0.341 C 
BRANCH   8   9
ATOM      9  O   UNL     1      34.753 -22.892 -17.843  0.00  0.00    -0.445 OA
BRANCH   9  10
ATOM     10  C   UNL     1      34.488 -23.130 -16.456  0.00  0.00    +0.209 C 
BRANCH  10  11
ATOM     11  C   UNL     1      35.728 -22.773 -15.651  0.00  0.00    +0.047 C 
ATOM     12  C   UNL     1      36.873 -22.330 -16.543  0.00  0.00    +0.004 C 
ENDBRANCH  10  11
ENDBRANCH   9  10
ENDBRANCH   8   9
ENDBRANCH   1   8
BRANCH   6  13
ATOM     13  O   UNL     1      35.504 -18.397 -22.163  0.00  0.00    -0.506 OA
ATOM     14  H   UNL     1      35.795 -18.643 -23.019  0.00  0.00    +0.292 HD
ENDBRANCH   6  13
TORSDOF 5
ENDMDL
MODEL 6
REMARK VINA RESULT:      -6.6      2.221      5.610
REMARK  Name = 7175
REMARK  5 active torsions:
REMARK  status: ('A' for Active; 'I' for Inactive)
REMARK    1  A    between atoms: C_1  and  C_8
REMARK    2  A    between atoms: C_6  and  O_13
REMARK    3  A    between atoms: C_8  and  O_9
REMARK    4  A    between atoms: O_9  and  C_10
REMARK    5  A    between atoms: C_10  and  C_11
REMARK                            x       y       z     vdW  Elec       q    Type
REMARK                         _______ _______ _______ _____ _____    ______ ____
ROOT
ATOM      1  C   UNL     1      34.579 -16.881 -22.647  0.00  0.00    +0.076 C 
ATOM      2  C   UNL     1      34.891 -17.677 -23.748  0.00  0.00    +0.010 C 
ATOM      3  C   UNL     1      33.976 -15.637 -22.833  0.00  0.00    +0.010 C 
ATOM      4  C   UNL     1      34.600 -17.229 -25.038  0.00  0.00    +0.037 C 
ATOM      5  C   UNL     1      33.683 -15.190 -24.121  0.00  0.00    +0.037 C 
ATOM      6  C   UNL     1      33.996 -15.986 -25.224  0.00  0.00    +0.134 C 
ENDROOT
BRANCH   1   8
ATOM      7  O   UNL     1      35.207 -16.595 -20.381  0.00  0.00    -0.245 OA
ATOM      8  C   UNL     1      34.883 -17.347 -21.303  0.00  0.00    +0.341 C 
BRANCH   8   9
ATOM      9  O   UNL     1      34.776 -18.707 -21.159  0.00  0.00    -0.445 OA
BRANCH   9  10
ATOM     10  C   UNL     1      33.457 -19.223 -20.944  0.00  0.00    +0.209 C 
BRANCH  10  11
ATOM     11  C   UNL     1      33.562 -20.556 -20.219  0.00  0.00    +0.047 C 
ATOM     12  C   UNL     1      35.006 -20.940 -19.950  0.00  0.00    +0.004 C 
ENDBRANCH  10  11
ENDBRANCH   9  10
ENDBRANCH   8   9
ENDBRANCH   1   8
BRANCH   6  13
ATOM     13  O   UNL     1      33.712 -15.549 -26.481  0.00  0.00    -0.506 OA
ATOM     14  H   UNL     1      34.407 -15.381 -27.087  0.00  0.00    +0.292 HD
ENDBRANCH   6  13
TORSDOF 5
ENDMDL
MODEL 7
REMARK VINA RESULT:      -6.4      3.483      5.620
REMARK  Name = 7175
REMARK  5 active torsions:
REMARK  status: ('A' for Active; 'I' for Inactive)
REMARK    1  A    between atoms: C_1  and  C_8
REMARK    2  A    between atoms: C_6  and  O_13
REMARK    3  A    between atoms: C_8  and  O_9
REMARK    4  A    between atoms: O_9  and  C_10
REMARK    5  A    between atoms: C_10  and  C_11
REMARK                            x       y       z     vdW  Elec       q    Type
REMARK                         _______ _______ _______ _____ _____    ______ ____
ROOT
ATOM      1  C   UNL     1      33.242 -23.170 -17.154  0.00  0.00    +0.076 C 
ATOM      2  C   UNL     1      34.366 -23.256 -16.332  0.00  0.00    +0.010 C 
ATOM      3  C   UNL     1      31.966 -23.171 -16.593  0.00  0.00    +0.010 C 
ATOM      4  C   UNL     1      34.211 -23.342 -14.947  0.00  0.00    +0.037 C 
ATOM      5  C   UNL     1      31.811 -23.256 -15.210  0.00  0.00    +0.037 C 
ATOM      6  C   UNL     1      32.935 -23.342 -14.387  0.00  0.00    +0.134 C 
ENDROOT
BRANCH   1   8
ATOM      7  O   UNL     1      33.957 -23.951 -19.273  0.00  0.00    -0.245 OA
ATOM      8  C   UNL     1      33.402 -23.082 -18.597  0.00  0.00    +0.341 C 
BRANCH   8   9
ATOM      9  O   UNL     1      32.877 -21.934 -19.136  0.00  0.00    -0.445 OA
BRANCH   9  10
ATOM     10  C   UNL     1      33.806 -21.038 -19.755  0.00  0.00    +0.209 C 
BRANCH  10  11
ATOM     11  C   UNL     1      33.034 -20.035 -20.599  0.00  0.00    +0.047 C 
ATOM     12  C   UNL     1      33.960 -19.141 -21.403  0.00  0.00    +0.004 C 
ENDBRANCH  10  11
ENDBRANCH   9  10
ENDBRANCH   8   9
ENDBRANCH   1   8
BRANCH   6  13
ATOM     13  O   UNL     1      32.784 -23.426 -13.037  0.00  0.00    -0.506 OA
ATOM     14  H   UNL     1      32.876 -24.253 -12.606  0.00  0.00    +0.292 HD
ENDBRANCH   6  13
TORSDOF 5
ENDMDL
MODEL 8
REMARK VINA RESULT:      -6.4      2.993      5.884
REMARK  Name = 7175
REMARK  5 active torsions:
REMARK  status: ('A' for Active; 'I' for Inactive)
REMARK    1  A    between atoms: C_1  and  C_8
REMARK    2  A    between atoms: C_6  and  O_13
REMARK    3  A    between atoms: C_8  and  O_9
REMARK    4  A    between atoms: O_9  and  C_10
REMARK    5  A    between atoms: C_10  and  C_11
REMARK                            x       y       z     vdW  Elec       q    Type
REMARK                         _______ _______ _______ _____ _____    ______ ____
ROOT
ATOM      1  C   UNL     1      34.013 -15.533 -21.672  0.00  0.00    +0.076 C 
ATOM      2  C   UNL     1      33.811 -15.030 -22.957  0.00  0.00    +0.010 C 
ATOM      3  C   UNL     1      33.350 -14.962 -20.587  0.00  0.00    +0.010 C 
ATOM      4  C   UNL     1      32.944 -13.954 -23.156  0.00  0.00    +0.037 C 
ATOM      5  C   UNL     1      32.483 -13.888 -20.786  0.00  0.00    +0.037 C 
ATOM      6  C   UNL     1      32.280 -13.384 -22.071  0.00  0.00    +0.134 C 
ENDROOT
BRANCH   1   8
ATOM      7  O   UNL     1      35.374 -16.961 -20.360  0.00  0.00    -0.245 OA
ATOM      8  C   UNL     1      34.918 -16.653 -21.464  0.00  0.00    +0.341 C 
BRANCH   8   9
ATOM      9  O   UNL     1      35.216 -17.336 -22.616  0.00  0.00    -0.445 OA
BRANCH   9  10
ATOM     10  C   UNL     1      34.724 -18.678 -22.706  0.00  0.00    +0.209 C 
BRANCH  10  11
ATOM     11  C   UNL     1      34.827 -19.143 -24.151  0.00  0.00    +0.047 C 
ATOM     12  C   UNL     1      34.407 -18.058 -25.126  0.00  0.00    +0.004 C 
ENDBRANCH  10  11
ENDBRANCH   9  10
ENDBRANCH   8   9
ENDBRANCH   1   8
BRANCH   6  13
ATOM     13  O   UNL     1      31.435 -12.335 -22.265  0.00  0.00    -0.506 OA
ATOM     14  H   UNL     1      31.313 -11.700 -21.587  0.00  0.00    +0.292 HD
ENDBRANCH   6  13
TORSDOF 5
ENDMDL
MODEL 9
REMARK VINA RESULT:      -6.4      1.877      5.372
REMARK  Name = 7175
REMARK  5 active torsions:
REMARK  status: ('A' for Active; 'I' for Inactive)
REMARK    1  A    between atoms: C_1  and  C_8
REMARK    2  A    between atoms: C_6  and  O_13
REMARK    3  A    between atoms: C_8  and  O_9
REMARK    4  A    between atoms: O_9  and  C_10
REMARK    5  A    between atoms: C_10  and  C_11
REMARK                            x       y       z     vdW  Elec       q    Type
REMARK                         _______ _______ _______ _____ _____    ______ ____
ROOT
ATOM      1  C   UNL     1      34.502 -16.527 -22.150  0.00  0.00    +0.076 C 
ATOM      2  C   UNL     1      34.544 -15.729 -23.293  0.00  0.00    +0.010 C 
ATOM      3  C   UNL     1      33.599 -16.234 -21.128  0.00  0.00    +0.010 C 
ATOM      4  C   UNL     1      33.682 -14.638 -23.415  0.00  0.00    +0.037 C 
ATOM      5  C   UNL     1      32.736 -15.145 -21.250  0.00  0.00    +0.037 C 
ATOM      6  C   UNL     1      32.778 -14.347 -22.394  0.00  0.00    +0.134 C 
ENDROOT
BRANCH   1   8
ATOM      7  O   UNL     1      36.120 -18.065 -22.939  0.00  0.00    -0.245 OA
ATOM      8  C   UNL     1      35.401 -17.663 -22.022  0.00  0.00    +0.341 C 
BRANCH   8   9
ATOM      9  O   UNL     1      35.371 -18.246 -20.780  0.00  0.00    -0.445 OA
BRANCH   9  10
ATOM     10  C   UNL     1      35.164 -19.663 -20.748  0.00  0.00    +0.209 C 
BRANCH  10  11
ATOM     11  C   UNL     1      33.668 -19.941 -20.753  0.00  0.00    +0.047 C 
ATOM     12  C   UNL     1      33.293 -21.032 -19.766  0.00  0.00    +0.004 C 
ENDBRANCH  10  11
ENDBRANCH   9  10
ENDBRANCH   8   9
ENDBRANCH   1   8
BRANCH   6  13
ATOM     13  O   UNL     1      31.937 -13.283 -22.512  0.00  0.00    -0.506 OA
ATOM     14  H   UNL     1      31.156 -13.359 -23.023  0.00  0.00    +0.292 HD
ENDBRANCH   6  13
TORSDOF 5
ENDMDL
