MODEL 1
REMARK VINA RESULT:     -12.2      0.000      0.000
REMARK  Name = 11961293
REMARK  7 active torsions:
REMARK  status: ('A' for Active; 'I' for Inactive)
REMARK    1  A    between atoms: C_1  and  C_3
REMARK    2  A    between atoms: C_1  and  N_21
REMARK    3  A    between atoms: N_2  and  C_9
REMARK    4  A    between atoms: C_9  and  C_12
REMARK    5  A    between atoms: C_17  and  O_18
REMARK    6  A    between atoms: C_22  and  C_26
REMARK    7  A    between atoms: C_30  and  C_35
REMARK                            x       y       z     vdW  Elec       q    Type
REMARK                         _______ _______ _______ _____ _____    ______ ____
ROOT
ATOM      1  C   UNL     1      33.402 -14.765 -24.346  0.00  0.00    +0.089 C 
ENDROOT
BRANCH   1   3
ATOM      2  N   UNL     1      35.025 -17.958 -21.931  0.00  0.00    +0.387 N 
ATOM      3  C   UNL     1      34.420 -15.632 -23.611  0.00  0.00    +0.015 C 
ATOM      4  C   UNL     1      35.367 -17.964 -23.359  0.00  0.00    -0.077 C 
ATOM      5  C   UNL     1      35.096 -16.600 -21.375  0.00  0.00    -0.077 C 
ATOM      6  C   UNL     1      34.421 -17.064 -24.158  0.00  0.00    -0.021 C 
ATOM      7  C   UNL     1      34.140 -15.654 -22.105  0.00  0.00    -0.021 C 
ATOM      8  H   UNL     1      34.064 -18.286 -21.836  0.00  0.00    -0.080 HD
BRANCH   2   9
ATOM      9  C   UNL     1      35.904 -18.861 -21.189  0.00  0.00    -0.077 C 
BRANCH   9  12
ATOM     10  O   UNL     1      32.079 -22.371 -17.742  0.00  0.00    -0.226 OA
ATOM     11  N   UNL     1      33.861 -22.086 -19.207  0.00  0.00    -0.246 N 
ATOM     12  C   UNL     1      35.220 -20.203 -20.939  0.00  0.00    -0.017 C 
ATOM     13  C   UNL     1      33.758 -19.999 -20.511  0.00  0.00    +0.020 C 
ATOM     14  C   UNL     1      35.977 -21.011 -19.873  0.00  0.00    +0.020 C 
ATOM     15  C   UNL     1      33.085 -21.331 -20.190  0.00  0.00    +0.097 C 
ATOM     16  C   UNL     1      35.264 -22.326 -19.563  0.00  0.00    +0.097 C 
ATOM     17  C   UNL     1      33.255 -22.569 -18.044  0.00  0.00    +0.405 C 
BRANCH  17  18
ATOM     18  O   UNL     1      34.113 -23.298 -17.265  0.00  0.00    -0.430 OA
ATOM     19  C   UNL     1      33.728 -23.475 -15.896  0.00  0.00    +0.257 C 
ENDBRANCH  17  18
ENDBRANCH   9  12
ENDBRANCH   2   9
ENDBRANCH   1   3
BRANCH   1  21
ATOM     20  O   UNL     1      33.937 -11.947 -24.240  0.00  0.00    -0.270 OA
ATOM     21  N   UNL     1      32.794 -13.799 -23.445  0.00  0.00    -0.301 N 
ATOM     22  C   UNL     1      33.123 -12.459 -23.476  0.00  0.00    +0.247 C 
ATOM     23  H   UNL     1      32.126 -14.111 -22.792  0.00  0.00    +0.150 HD
BRANCH  22  26
ATOM     24  N   UNL     1      32.062  -8.059 -21.925  0.00  0.00    -0.318 N 
ATOM     25  N   UNL     1      33.092  -9.350 -23.412  0.00  0.00    -0.318 N 
ATOM     26  C   UNL     1      32.433 -11.606 -22.474  0.00  0.00    +0.068 C 
ATOM     27  C   UNL     1      32.482 -10.213 -22.538  0.00  0.00    +0.063 C 
ATOM     28  C   UNL     1      31.700 -12.162 -21.421  0.00  0.00    +0.006 C 
ATOM     29  C   UNL     1      31.845  -9.383 -21.620  0.00  0.00    +0.059 C 
ATOM     30  C   UNL     1      32.812  -8.076 -23.004  0.00  0.00    +0.144 C 
ATOM     31  C   UNL     1      31.050 -11.355 -20.483  0.00  0.00    +0.001 C 
ATOM     32  C   UNL     1      31.113  -9.959 -20.568  0.00  0.00    +0.016 C 
ATOM     33  H   UNL     1      31.728  -7.270 -21.441  0.00  0.00    +0.148 HD
ATOM     34  H   UNL     1      33.634  -9.604 -24.194  0.00  0.00    +0.148 HD
BRANCH  30  35
ATOM     35  C   UNL     1      33.273  -6.840 -23.663  0.00  0.00    +0.037 C 
ATOM     36  C   UNL     1      34.551  -7.041 -24.513  0.00  0.00    +0.003 C 
ATOM     37  C   UNL     1      32.183  -6.170 -24.535  0.00  0.00    +0.003 C 
ENDBRANCH  30  35
ENDBRANCH  22  26
ENDBRANCH   1  21
TORSDOF 7
ENDMDL
MODEL 2
REMARK VINA RESULT:     -11.9      2.477     12.763
REMARK  Name = 11961293
REMARK  7 active torsions:
REMARK  status: ('A' for Active; 'I' for Inactive)
REMARK    1  A    between atoms: C_1  and  C_3
REMARK    2  A    between atoms: C_1  and  N_21
REMARK    3  A    between atoms: N_2  and  C_9
REMARK    4  A    between atoms: C_9  and  C_12
REMARK    5  A    between atoms: C_17  and  O_18
REMARK    6  A    between atoms: C_22  and  C_26
REMARK    7  A    between atoms: C_30  and  C_35
REMARK                            x       y       z     vdW  Elec       q    Type
REMARK                         _______ _______ _______ _____ _____    ______ ____
ROOT
ATOM      1  C   UNL     1      33.841 -22.456 -19.823  0.00  0.00    +0.089 C 
ENDROOT
BRANCH   1   3
ATOM      2  N   UNL     1      35.043 -18.652 -21.476  0.00  0.00    +0.387 N 
ATOM      3  C   UNL     1      34.256 -20.990 -19.892  0.00  0.00    +0.015 C 
ATOM      4  C   UNL     1      33.710 -18.719 -20.865  0.00  0.00    -0.077 C 
ATOM      5  C   UNL     1      36.036 -19.368 -20.664  0.00  0.00    -0.077 C 
ATOM      6  C   UNL     1      33.249 -20.170 -20.707  0.00  0.00    -0.021 C 
ATOM      7  C   UNL     1      35.654 -20.841 -20.500  0.00  0.00    -0.021 C 
ATOM      8  H   UNL     1      34.996 -19.107 -22.388  0.00  0.00    -0.080 HD
BRANCH   2   9
ATOM      9  C   UNL     1      35.449 -17.259 -21.668  0.00  0.00    -0.077 C 
BRANCH   9  12
ATOM     10  O   UNL     1      33.762 -12.525 -25.353  0.00  0.00    -0.226 OA
ATOM     11  N   UNL     1      33.367 -14.063 -23.656  0.00  0.00    -0.246 N 
ATOM     12  C   UNL     1      34.347 -16.463 -22.364  0.00  0.00    -0.017 C 
ATOM     13  C   UNL     1      34.766 -16.084 -23.793  0.00  0.00    +0.020 C 
ATOM     14  C   UNL     1      33.998 -15.199 -21.562  0.00  0.00    +0.020 C 
ATOM     15  C   UNL     1      33.701 -15.228 -24.473  0.00  0.00    +0.097 C 
ATOM     16  C   UNL     1      32.945 -14.358 -22.282  0.00  0.00    +0.097 C 
ATOM     17  C   UNL     1      33.411 -12.777 -24.202  0.00  0.00    +0.405 C 
BRANCH  17  18
ATOM     18  O   UNL     1      33.015 -11.812 -23.314  0.00  0.00    -0.430 OA
ATOM     19  C   UNL     1      33.245 -10.455 -23.712  0.00  0.00    +0.257 C 
ENDBRANCH  17  18
ENDBRANCH   9  12
ENDBRANCH   2   9
ENDBRANCH   1   3
BRANCH   1  21
ATOM     20  O   UNL     1      35.307 -22.913 -17.397  0.00  0.00    -0.270 OA
ATOM     21  N   UNL     1      33.283 -22.778 -18.518  0.00  0.00    -0.301 N 
ATOM     22  C   UNL     1      34.080 -22.980 -17.409  0.00  0.00    +0.247 C 
ATOM     23  H   UNL     1      32.305 -22.854 -18.423  0.00  0.00    +0.150 HD
BRANCH  22  26
ATOM     24  N   UNL     1      34.280 -24.703 -12.951  0.00  0.00    -0.318 N 
ATOM     25  N   UNL     1      35.340 -24.183 -14.833  0.00  0.00    -0.318 N 
ATOM     26  C   UNL     1      33.360 -23.326 -16.157  0.00  0.00    +0.068 C 
ATOM     27  C   UNL     1      34.025 -23.863 -15.053  0.00  0.00    +0.063 C 
ATOM     28  C   UNL     1      31.982 -23.127 -16.026  0.00  0.00    +0.006 C 
ATOM     29  C   UNL     1      33.384 -24.195 -13.863  0.00  0.00    +0.059 C 
ATOM     30  C   UNL     1      35.442 -24.681 -13.565  0.00  0.00    +0.144 C 
ATOM     31  C   UNL     1      31.311 -23.451 -14.844  0.00  0.00    +0.001 C 
ATOM     32  C   UNL     1      31.999 -23.989 -13.749  0.00  0.00    +0.016 C 
ATOM     33  H   UNL     1      34.092 -25.014 -12.036  0.00  0.00    +0.148 HD
ATOM     34  H   UNL     1      36.078 -24.074 -15.476  0.00  0.00    +0.148 HD
BRANCH  30  35
ATOM     35  C   UNL     1      36.683 -25.147 -12.920  0.00  0.00    +0.037 C 
ATOM     36  C   UNL     1      37.295 -26.394 -13.603  0.00  0.00    +0.003 C 
ATOM     37  C   UNL     1      37.765 -24.046 -12.809  0.00  0.00    +0.003 C 
ENDBRANCH  30  35
ENDBRANCH  22  26
ENDBRANCH   1  21
TORSDOF 7
ENDMDL
MODEL 3
REMARK VINA RESULT:     -11.8      1.315      2.434
REMARK  Name = 11961293
REMARK  7 active torsions:
REMARK  status: ('A' for Active; 'I' for Inactive)
REMARK    1  A    between atoms: C_1  and  C_3
REMARK    2  A    between atoms: C_1  and  N_21
REMARK    3  A    between atoms: N_2  and  C_9
REMARK    4  A    between atoms: C_9  and  C_12
REMARK    5  A    between atoms: C_17  and  O_18
REMARK    6  A    between atoms: C_22  and  C_26
REMARK    7  A    between atoms: C_30  and  C_35
REMARK                            x       y       z     vdW  Elec       q    Type
REMARK                         _______ _______ _______ _____ _____    ______ ____
ROOT
ATOM      1  C   UNL     1      33.454 -14.919 -24.559  0.00  0.00    +0.089 C 
ENDROOT
BRANCH   1   3
ATOM      2  N   UNL     1      34.950 -17.961 -21.882  0.00  0.00    +0.387 N 
ATOM      3  C   UNL     1      34.424 -15.712 -23.689  0.00  0.00    +0.015 C 
ATOM      4  C   UNL     1      35.452 -17.984 -23.262  0.00  0.00    -0.077 C 
ATOM      5  C   UNL     1      34.890 -16.588 -21.363  0.00  0.00    -0.077 C 
ATOM      6  C   UNL     1      34.558 -17.155 -24.188  0.00  0.00    -0.021 C 
ATOM      7  C   UNL     1      33.976 -15.712 -22.224  0.00  0.00    -0.021 C 
ATOM      8  H   UNL     1      34.002 -18.337 -21.885  0.00  0.00    -0.080 HD
BRANCH   2   9
ATOM      9  C   UNL     1      35.784 -18.798 -21.020  0.00  0.00    -0.077 C 
BRANCH   9  12
ATOM     10  O   UNL     1      32.119 -22.557 -17.663  0.00  0.00    -0.226 OA
ATOM     11  N   UNL     1      33.872 -22.159 -19.136  0.00  0.00    -0.246 N 
ATOM     12  C   UNL     1      35.147 -20.170 -20.812  0.00  0.00    -0.017 C 
ATOM     13  C   UNL     1      33.685 -20.030 -20.360  0.00  0.00    +0.020 C 
ATOM     14  C   UNL     1      35.943 -20.991 -19.786  0.00  0.00    +0.020 C 
ATOM     15  C   UNL     1      33.060 -21.395 -20.082  0.00  0.00    +0.097 C 
ATOM     16  C   UNL     1      35.277 -22.340 -19.518  0.00  0.00    +0.097 C 
ATOM     17  C   UNL     1      33.296 -22.705 -17.986  0.00  0.00    +0.405 C 
BRANCH  17  18
ATOM     18  O   UNL     1      34.188 -23.434 -17.244  0.00  0.00    -0.430 OA
ATOM     19  C   UNL     1      34.193 -23.180 -15.834  0.00  0.00    +0.257 C 
ENDBRANCH  17  18
ENDBRANCH   9  12
ENDBRANCH   2   9
ENDBRANCH   1   3
BRANCH   1  21
ATOM     20  O   UNL     1      32.458 -12.669 -23.080  0.00  0.00    -0.270 OA
ATOM     21  N   UNL     1      33.883 -13.535 -24.689  0.00  0.00    -0.301 N 
ATOM     22  C   UNL     1      33.337 -12.523 -23.925  0.00  0.00    +0.247 C 
ATOM     23  H   UNL     1      34.586 -13.313 -25.343  0.00  0.00    +0.150 HD
BRANCH  22  26
ATOM     24  N   UNL     1      33.410  -7.886 -22.748  0.00  0.00    -0.318 N 
ATOM     25  N   UNL     1      32.628  -9.930 -22.362  0.00  0.00    -0.318 N 
ATOM     26  C   UNL     1      33.864 -11.161 -24.195  0.00  0.00    +0.068 C 
ATOM     27  C   UNL     1      33.479 -10.060 -23.428  0.00  0.00    +0.063 C 
ATOM     28  C   UNL     1      34.774 -10.920 -25.230  0.00  0.00    +0.006 C 
ATOM     29  C   UNL     1      33.956  -8.770 -23.650  0.00  0.00    +0.059 C 
ATOM     30  C   UNL     1      32.619  -8.615 -21.991  0.00  0.00    +0.144 C 
ATOM     31  C   UNL     1      35.269  -9.637 -25.477  0.00  0.00    +0.001 C 
ATOM     32  C   UNL     1      34.868  -8.547 -24.694  0.00  0.00    +0.016 C 
ATOM     33  H   UNL     1      33.575  -6.918 -22.683  0.00  0.00    +0.148 HD
ATOM     34  H   UNL     1      32.113 -10.657 -21.939  0.00  0.00    +0.148 HD
BRANCH  30  35
ATOM     35  C   UNL     1      31.836  -8.037 -20.884  0.00  0.00    +0.037 C 
ATOM     36  C   UNL     1      31.897  -8.881 -19.588  0.00  0.00    +0.003 C 
ATOM     37  C   UNL     1      32.226  -6.574 -20.558  0.00  0.00    +0.003 C 
ENDBRANCH  30  35
ENDBRANCH  22  26
ENDBRANCH   1  21
TORSDOF 7
ENDMDL
MODEL 4
REMARK VINA RESULT:     -11.8      2.701      4.806
REMARK  Name = 11961293
REMARK  7 active torsions:
REMARK  status: ('A' for Active; 'I' for Inactive)
REMARK    1  A    between atoms: C_1  and  C_3
REMARK    2  A    between atoms: C_1  and  N_21
REMARK    3  A    between atoms: N_2  and  C_9
REMARK    4  A    between atoms: C_9  and  C_12
REMARK    5  A    between atoms: C_17  and  O_18
REMARK    6  A    between atoms: C_22  and  C_26
REMARK    7  A    between atoms: C_30  and  C_35
REMARK                            x       y       z     vdW  Elec       q    Type
REMARK                         _______ _______ _______ _____ _____    ______ ____
ROOT
ATOM      1  C   UNL     1      36.011 -18.401 -21.688  0.00  0.00    +0.089 C 
ENDROOT
BRANCH   1   3
ATOM      2  N   UNL     1      34.305 -21.505 -19.217  0.00  0.00    +0.387 N 
ATOM      3  C   UNL     1      35.405 -19.741 -21.285  0.00  0.00    +0.015 C 
ATOM      4  C   UNL     1      33.420 -20.886 -20.211  0.00  0.00    -0.077 C 
ATOM      5  C   UNL     1      35.639 -21.759 -19.778  0.00  0.00    -0.077 C 
ATOM      6  C   UNL     1      33.995 -19.558 -20.710  0.00  0.00    -0.021 C 
ATOM      7  C   UNL     1      36.290 -20.461 -20.262  0.00  0.00    -0.021 C 
ATOM      8  H   UNL     1      34.411 -20.854 -18.439  0.00  0.00    -0.080 HD
BRANCH   2   9
ATOM      9  C   UNL     1      33.718 -22.747 -18.711  0.00  0.00    -0.077 C 
BRANCH   9  12
ATOM     10  O   UNL     1      32.212 -25.247 -13.206  0.00  0.00    -0.226 OA
ATOM     11  N   UNL     1      32.044 -23.607 -14.844  0.00  0.00    -0.246 N 
ATOM     12  C   UNL     1      33.219 -22.569 -17.280  0.00  0.00    -0.017 C 
ATOM     13  C   UNL     1      34.018 -23.451 -16.308  0.00  0.00    +0.020 C 
ATOM     14  C   UNL     1      31.720 -22.894 -17.181  0.00  0.00    +0.020 C 
ATOM     15  C   UNL     1      33.480 -23.334 -14.885  0.00  0.00    +0.097 C 
ATOM     16  C   UNL     1      31.222 -22.786 -15.741  0.00  0.00    +0.097 C 
ATOM     17  C   UNL     1      31.527 -24.558 -13.960  0.00  0.00    +0.405 C 
BRANCH  17  18
ATOM     18  O   UNL     1      30.161 -24.645 -14.016  0.00  0.00    -0.430 OA
ATOM     19  C   UNL     1      29.627 -25.623 -14.917  0.00  0.00    +0.257 C 
ENDBRANCH  17  18
ENDBRANCH   9  12
ENDBRANCH   2   9
ENDBRANCH   1   3
BRANCH   1  21
ATOM     20  O   UNL     1      35.470 -16.121 -23.348  0.00  0.00    -0.270 OA
ATOM     21  N   UNL     1      35.099 -17.307 -21.391  0.00  0.00    -0.301 N 
ATOM     22  C   UNL     1      34.910 -16.252 -22.262  0.00  0.00    +0.247 C 
ATOM     23  H   UNL     1      34.600 -17.319 -20.542  0.00  0.00    +0.150 HD
BRANCH  22  26
ATOM     24  N   UNL     1      32.722 -12.089 -23.136  0.00  0.00    -0.318 N 
ATOM     25  N   UNL     1      34.136 -13.667 -23.806  0.00  0.00    -0.318 N 
ATOM     26  C   UNL     1      33.965 -15.203 -21.802  0.00  0.00    +0.068 C 
ATOM     27  C   UNL     1      33.686 -14.076 -22.577  0.00  0.00    +0.063 C 
ATOM     28  C   UNL     1      33.309 -15.297 -20.570  0.00  0.00    +0.006 C 
ATOM     29  C   UNL     1      32.804 -13.075 -22.180  0.00  0.00    +0.059 C 
ATOM     30  C   UNL     1      33.532 -12.475 -24.096  0.00  0.00    +0.144 C 
ATOM     31  C   UNL     1      32.419 -14.308 -20.145  0.00  0.00    +0.001 C 
ATOM     32  C   UNL     1      32.154 -13.186 -20.939  0.00  0.00    +0.016 C 
ATOM     33  H   UNL     1      32.175 -11.271 -23.108  0.00  0.00    +0.148 HD
ATOM     34  H   UNL     1      34.780 -14.146 -24.377  0.00  0.00    +0.148 HD
BRANCH  30  35
ATOM     35  C   UNL     1      33.733 -11.685 -25.324  0.00  0.00    +0.037 C 
ATOM     36  C   UNL     1      34.975 -10.763 -25.260  0.00  0.00    +0.003 C 
ATOM     37  C   UNL     1      33.808 -12.552 -26.604  0.00  0.00    +0.003 C 
ENDBRANCH  30  35
ENDBRANCH  22  26
ENDBRANCH   1  21
TORSDOF 7
ENDMDL
MODEL 5
REMARK VINA RESULT:     -11.4      2.681      4.707
REMARK  Name = 11961293
REMARK  7 active torsions:
REMARK  status: ('A' for Active; 'I' for Inactive)
REMARK    1  A    between atoms: C_1  and  C_3
REMARK    2  A    between atoms: C_1  and  N_21
REMARK    3  A    between atoms: N_2  and  C_9
REMARK    4  A    between atoms: C_9  and  C_12
REMARK    5  A    between atoms: C_17  and  O_18
REMARK    6  A    between atoms: C_22  and  C_26
REMARK    7  A    between atoms: C_30  and  C_35
REMARK                            x       y       z     vdW  Elec       q    Type
REMARK                         _______ _______ _______ _____ _____    ______ ____
ROOT
ATOM      1  C   UNL     1      35.849 -18.323 -22.186  0.00  0.00    +0.089 C 
ENDROOT
BRANCH   1   3
ATOM      2  N   UNL     1      34.731 -21.254 -19.216  0.00  0.00    +0.387 N 
ATOM      3  C   UNL     1      35.413 -19.652 -21.576  0.00  0.00    +0.015 C 
ATOM      4  C   UNL     1      33.681 -20.811 -20.143  0.00  0.00    -0.077 C 
ATOM      5  C   UNL     1      36.002 -21.471 -19.920  0.00  0.00    -0.077 C 
ATOM      6  C   UNL     1      34.075 -19.508 -20.842  0.00  0.00    -0.021 C 
ATOM      7  C   UNL     1      36.476 -20.190 -20.611  0.00  0.00    -0.021 C 
ATOM      8  H   UNL     1      34.875 -20.515 -18.528  0.00  0.00    -0.080 HD
BRANCH   2   9
ATOM      9  C   UNL     1      34.318 -22.471 -18.518  0.00  0.00    -0.077 C 
BRANCH   9  12
ATOM     10  O   UNL     1      38.704 -24.353 -14.512  0.00  0.00    -0.226 OA
ATOM     11  N   UNL     1      36.548 -23.663 -15.039  0.00  0.00    -0.246 N 
ATOM     12  C   UNL     1      34.875 -22.499 -17.097  0.00  0.00    -0.017 C 
ATOM     13  C   UNL     1      36.403 -22.332 -17.105  0.00  0.00    +0.020 C 
ATOM     14  C   UNL     1      34.489 -23.805 -16.384  0.00  0.00    +0.020 C 
ATOM     15  C   UNL     1      36.978 -22.429 -15.695  0.00  0.00    +0.097 C 
ATOM     16  C   UNL     1      35.098 -23.875 -14.985  0.00  0.00    +0.097 C 
ATOM     17  C   UNL     1      37.488 -24.528 -14.471  0.00  0.00    +0.405 C 
BRANCH  17  18
ATOM     18  O   UNL     1      36.908 -25.604 -13.851  0.00  0.00    -0.430 OA
ATOM     19  C   UNL     1      37.173 -25.744 -12.450  0.00  0.00    +0.257 C 
ENDBRANCH  17  18
ENDBRANCH   9  12
ENDBRANCH   2   9
ENDBRANCH   1   3
BRANCH   1  21
ATOM     20  O   UNL     1      35.443 -15.828 -23.547  0.00  0.00    -0.270 OA
ATOM     21  N   UNL     1      34.959 -17.247 -21.779  0.00  0.00    -0.301 N 
ATOM     22  C   UNL     1      34.836 -16.081 -22.509  0.00  0.00    +0.247 C 
ATOM     23  H   UNL     1      34.426 -17.353 -20.958  0.00  0.00    +0.150 HD
BRANCH  22  26
ATOM     24  N   UNL     1      32.741 -11.803 -22.948  0.00  0.00    -0.318 N 
ATOM     25  N   UNL     1      34.134 -13.327 -23.770  0.00  0.00    -0.318 N 
ATOM     26  C   UNL     1      33.905 -15.069 -21.948  0.00  0.00    +0.068 C 
ATOM     27  C   UNL     1      33.659 -13.859 -22.599  0.00  0.00    +0.063 C 
ATOM     28  C   UNL     1      33.230 -15.284 -20.742  0.00  0.00    +0.006 C 
ATOM     29  C   UNL     1      32.790 -12.889 -22.105  0.00  0.00    +0.059 C 
ATOM     30  C   UNL     1      33.557 -12.099 -23.934  0.00  0.00    +0.144 C 
ATOM     31  C   UNL     1      32.353 -14.330 -20.222  0.00  0.00    +0.001 C 
ATOM     32  C   UNL     1      32.121 -13.122 -20.892  0.00  0.00    +0.016 C 
ATOM     33  H   UNL     1      32.209 -10.982 -22.837  0.00  0.00    +0.148 HD
ATOM     34  H   UNL     1      34.776 -13.754 -24.382  0.00  0.00    +0.148 HD
BRANCH  30  35
ATOM     35  C   UNL     1      33.791 -11.183 -25.066  0.00  0.00    +0.037 C 
ATOM     36  C   UNL     1      34.916 -10.154 -24.797  0.00  0.00    +0.003 C 
ATOM     37  C   UNL     1      34.081 -11.918 -26.398  0.00  0.00    +0.003 C 
ENDBRANCH  30  35
ENDBRANCH  22  26
ENDBRANCH   1  21
TORSDOF 7
ENDMDL
MODEL 6
REMARK VINA RESULT:     -11.4      2.669      5.571
REMARK  Name = 11961293
REMARK  7 active torsions:
REMARK  status: ('A' for Active; 'I' for Inactive)
REMARK    1  A    between atoms: C_1  and  C_3
REMARK    2  A    between atoms: C_1  and  N_21
REMARK    3  A    between atoms: N_2  and  C_9
REMARK    4  A    between atoms: C_9  and  C_12
REMARK    5  A    between atoms: C_17  and  O_18
REMARK    6  A    between atoms: C_22  and  C_26
REMARK    7  A    between atoms: C_30  and  C_35
REMARK                            x       y       z     vdW  Elec       q    Type
REMARK                         _______ _______ _______ _____ _____    ______ ____
ROOT
ATOM      1  C   UNL     1      36.376 -18.669 -21.349  0.00  0.00    +0.089 C 
ENDROOT
BRANCH   1   3
ATOM      2  N   UNL     1      34.183 -21.594 -19.049  0.00  0.00    +0.387 N 
ATOM      3  C   UNL     1      35.621 -19.949 -21.004  0.00  0.00    +0.015 C 
ATOM      4  C   UNL     1      33.453 -20.909 -20.122  0.00  0.00    -0.077 C 
ATOM      5  C   UNL     1      35.537 -21.966 -19.482  0.00  0.00    -0.077 C 
ATOM      6  C   UNL     1      34.185 -19.640 -20.566  0.00  0.00    -0.021 C 
ATOM      7  C   UNL     1      36.340 -20.733 -19.902  0.00  0.00    -0.021 C 
ATOM      8  H   UNL     1      34.271 -20.947 -18.265  0.00  0.00    -0.080 HD
BRANCH   2   9
ATOM      9  C   UNL     1      33.446 -22.776 -18.601  0.00  0.00    -0.077 C 
BRANCH   9  12
ATOM     10  O   UNL     1      31.996 -25.308 -13.095  0.00  0.00    -0.226 OA
ATOM     11  N   UNL     1      31.819 -23.653 -14.717  0.00  0.00    -0.246 N 
ATOM     12  C   UNL     1      32.968 -22.605 -17.161  0.00  0.00    -0.017 C 
ATOM     13  C   UNL     1      33.773 -23.502 -16.208  0.00  0.00    +0.020 C 
ATOM     14  C   UNL     1      31.468 -22.919 -17.044  0.00  0.00    +0.020 C 
ATOM     15  C   UNL     1      33.256 -23.392 -14.776  0.00  0.00    +0.097 C 
ATOM     16  C   UNL     1      30.992 -22.819 -15.596  0.00  0.00    +0.097 C 
ATOM     17  C   UNL     1      31.307 -24.607 -13.833  0.00  0.00    +0.405 C 
BRANCH  17  18
ATOM     18  O   UNL     1      29.940 -24.682 -13.871  0.00  0.00    -0.430 OA
ATOM     19  C   UNL     1      29.382 -25.543 -14.872  0.00  0.00    +0.257 C 
ENDBRANCH  17  18
ENDBRANCH   9  12
ENDBRANCH   2   9
ENDBRANCH   1   3
BRANCH   1  21
ATOM     20  O   UNL     1      34.975 -16.184 -21.027  0.00  0.00    -0.270 OA
ATOM     21  N   UNL     1      35.685 -17.920 -22.387  0.00  0.00    -0.301 N 
ATOM     22  C   UNL     1      35.039 -16.729 -22.126  0.00  0.00    +0.247 C 
ATOM     23  H   UNL     1      35.679 -18.275 -23.306  0.00  0.00    +0.150 HD
BRANCH  22  26
ATOM     24  N   UNL     1      32.118 -13.312 -23.765  0.00  0.00    -0.318 N 
ATOM     25  N   UNL     1      33.140 -14.268 -22.038  0.00  0.00    -0.318 N 
ATOM     26  C   UNL     1      34.359 -16.101 -23.288  0.00  0.00    +0.068 C 
ATOM     27  C   UNL     1      33.523 -14.992 -23.137  0.00  0.00    +0.063 C 
ATOM     28  C   UNL     1      34.527 -16.590 -24.587  0.00  0.00    +0.006 C 
ATOM     29  C   UNL     1      32.873 -14.376 -24.203  0.00  0.00    +0.059 C 
ATOM     30  C   UNL     1      32.302 -13.276 -22.463  0.00  0.00    +0.144 C 
ATOM     31  C   UNL     1      33.887 -15.992 -25.676  0.00  0.00    +0.001 C 
ATOM     32  C   UNL     1      33.054 -14.881 -25.501  0.00  0.00    +0.016 C 
ATOM     33  H   UNL     1      31.562 -12.708 -24.308  0.00  0.00    +0.148 HD
ATOM     34  H   UNL     1      33.420 -14.433 -21.108  0.00  0.00    +0.148 HD
BRANCH  30  35
ATOM     35  C   UNL     1      31.658 -12.265 -21.605  0.00  0.00    +0.037 C 
ATOM     36  C   UNL     1      32.074 -12.373 -20.117  0.00  0.00    +0.003 C 
ATOM     37  C   UNL     1      31.887 -10.813 -22.092  0.00  0.00    +0.003 C 
ENDBRANCH  30  35
ENDBRANCH  22  26
ENDBRANCH   1  21
TORSDOF 7
ENDMDL
MODEL 7
REMARK VINA RESULT:     -11.3      2.681     12.670
REMARK  Name = 11961293
REMARK  7 active torsions:
REMARK  status: ('A' for Active; 'I' for Inactive)
REMARK    1  A    between atoms: C_1  and  C_3
REMARK    2  A    between atoms: C_1  and  N_21
REMARK    3  A    between atoms: N_2  and  C_9
REMARK    4  A    between atoms: C_9  and  C_12
REMARK    5  A    between atoms: C_17  and  O_18
REMARK    6  A    between atoms: C_22  and  C_26
REMARK    7  A    between atoms: C_30  and  C_35
REMARK                            x       y       z     vdW  Elec       q    Type
REMARK                         _______ _______ _______ _____ _____    ______ ____
ROOT
ATOM      1  C   UNL     1      36.468 -21.569 -19.248  0.00  0.00    +0.089 C 
ENDROOT
BRANCH   1   3
ATOM      2  N   UNL     1      34.640 -18.305 -21.408  0.00  0.00    +0.387 N 
ATOM      3  C   UNL     1      35.911 -20.752 -20.410  0.00  0.00    +0.015 C 
ATOM      4  C   UNL     1      36.061 -18.565 -21.673  0.00  0.00    -0.077 C 
ATOM      5  C   UNL     1      33.878 -19.559 -21.325  0.00  0.00    -0.077 C 
ATOM      6  C   UNL     1      36.677 -19.435 -20.574  0.00  0.00    -0.021 C 
ATOM      7  C   UNL     1      34.420 -20.461 -20.214  0.00  0.00    -0.021 C 
ATOM      8  H   UNL     1      34.569 -17.834 -20.506  0.00  0.00    -0.080 HD
BRANCH   2   9
ATOM      9  C   UNL     1      34.078 -17.432 -22.438  0.00  0.00    -0.077 C 
BRANCH   9  12
ATOM     10  O   UNL     1      31.095 -12.074 -21.332  0.00  0.00    -0.226 OA
ATOM     11  N   UNL     1      32.984 -13.309 -21.885  0.00  0.00    -0.246 N 
ATOM     12  C   UNL     1      34.120 -15.971 -21.995  0.00  0.00    -0.017 C 
ATOM     13  C   UNL     1      32.922 -15.639 -21.092  0.00  0.00    +0.020 C 
ATOM     14  C   UNL     1      34.143 -15.033 -23.212  0.00  0.00    +0.020 C 
ATOM     15  C   UNL     1      32.916 -14.164 -20.701  0.00  0.00    +0.097 C 
ATOM     16  C   UNL     1      34.116 -13.567 -22.783  0.00  0.00    +0.097 C 
ATOM     17  C   UNL     1      32.044 -12.294 -22.083  0.00  0.00    +0.405 C 
BRANCH  17  18
ATOM     18  O   UNL     1      32.290 -11.558 -23.211  0.00  0.00    -0.430 OA
ATOM     19  C   UNL     1      32.531 -10.159 -23.012  0.00  0.00    +0.257 C 
ENDBRANCH  17  18
ENDBRANCH   9  12
ENDBRANCH   2   9
ENDBRANCH   1   3
BRANCH   1  21
ATOM     20  O   UNL     1      36.756 -22.775 -16.658  0.00  0.00    -0.270 OA
ATOM     21  N   UNL     1      35.396 -22.050 -18.389  0.00  0.00    -0.301 N 
ATOM     22  C   UNL     1      35.644 -22.617 -17.155  0.00  0.00    +0.247 C 
ATOM     23  H   UNL     1      34.465 -21.968 -18.698  0.00  0.00    +0.150 HD
BRANCH  22  26
ATOM     24  N   UNL     1      33.829 -24.556 -13.176  0.00  0.00    -0.318 N 
ATOM     25  N   UNL     1      35.612 -23.860 -14.305  0.00  0.00    -0.318 N 
ATOM     26  C   UNL     1      34.445 -23.082 -16.412  0.00  0.00    +0.068 C 
ATOM     27  C   UNL     1      34.542 -23.626 -15.129  0.00  0.00    +0.063 C 
ATOM     28  C   UNL     1      33.162 -22.992 -16.961  0.00  0.00    +0.006 C 
ATOM     29  C   UNL     1      33.441 -24.068 -14.402  0.00  0.00    +0.059 C 
ATOM     30  C   UNL     1      35.136 -24.415 -13.151  0.00  0.00    +0.144 C 
ATOM     31  C   UNL     1      32.038 -23.427 -16.255  0.00  0.00    +0.001 C 
ATOM     32  C   UNL     1      32.160 -23.971 -14.970  0.00  0.00    +0.016 C 
ATOM     33  H   UNL     1      33.254 -24.928 -12.469  0.00  0.00    +0.148 HD
ATOM     34  H   UNL     1      36.556 -23.662 -14.509  0.00  0.00    +0.148 HD
BRANCH  30  35
ATOM     35  C   UNL     1      35.950 -24.822 -11.991  0.00  0.00    +0.037 C 
ATOM     36  C   UNL     1      37.146 -25.729 -12.372  0.00  0.00    +0.003 C 
ATOM     37  C   UNL     1      36.466 -23.625 -11.155  0.00  0.00    +0.003 C 
ENDBRANCH  30  35
ENDBRANCH  22  26
ENDBRANCH   1  21
TORSDOF 7
ENDMDL
MODEL 8
REMARK VINA RESULT:     -11.3      3.182     12.194
REMARK  Name = 11961293
REMARK  7 active torsions:
REMARK  status: ('A' for Active; 'I' for Inactive)
REMARK    1  A    between atoms: C_1  and  C_3
REMARK    2  A    between atoms: C_1  and  N_21
REMARK    3  A    between atoms: N_2  and  C_9
REMARK    4  A    between atoms: C_9  and  C_12
REMARK    5  A    between atoms: C_17  and  O_18
REMARK    6  A    between atoms: C_22  and  C_26
REMARK    7  A    between atoms: C_30  and  C_35
REMARK                            x       y       z     vdW  Elec       q    Type
REMARK                         _______ _______ _______ _____ _____    ______ ____
ROOT
ATOM      1  C   UNL     1      33.808 -21.680 -20.037  0.00  0.00    +0.089 C 
ENDROOT
BRANCH   1   3
ATOM      2  N   UNL     1      34.806 -18.007 -22.080  0.00  0.00    +0.387 N 
ATOM      3  C   UNL     1      34.217 -20.226 -20.256  0.00  0.00    +0.015 C 
ATOM      4  C   UNL     1      33.561 -18.017 -21.301  0.00  0.00    -0.077 C 
ATOM      5  C   UNL     1      35.891 -18.682 -21.355  0.00  0.00    -0.077 C 
ATOM      6  C   UNL     1      33.118 -19.449 -20.988  0.00  0.00    -0.021 C 
ATOM      7  C   UNL     1      35.527 -20.136 -21.046  0.00  0.00    -0.021 C 
ATOM      8  H   UNL     1      34.640 -18.520 -22.946  0.00  0.00    -0.080 HD
BRANCH   2   9
ATOM      9  C   UNL     1      35.189 -16.635 -22.414  0.00  0.00    -0.077 C 
BRANCH   9  12
ATOM     10  O   UNL     1      33.789 -13.580 -27.661  0.00  0.00    -0.226 OA
ATOM     11  N   UNL     1      33.394 -14.172 -25.449  0.00  0.00    -0.246 N 
ATOM     12  C   UNL     1      34.144 -15.983 -23.316  0.00  0.00    -0.017 C 
ATOM     13  C   UNL     1      34.411 -16.316 -24.792  0.00  0.00    +0.020 C 
ATOM     14  C   UNL     1      34.123 -14.459 -23.112  0.00  0.00    +0.020 C 
ATOM     15  C   UNL     1      33.414 -15.611 -25.707  0.00  0.00    +0.097 C 
ATOM     16  C   UNL     1      33.130 -13.787 -24.058  0.00  0.00    +0.097 C 
ATOM     17  C   UNL     1      33.568 -13.261 -26.494  0.00  0.00    +0.405 C 
BRANCH  17  18
ATOM     18  O   UNL     1      33.465 -11.959 -26.083  0.00  0.00    -0.430 OA
ATOM     19  C   UNL     1      34.696 -11.236 -25.959  0.00  0.00    +0.257 C 
ENDBRANCH  17  18
ENDBRANCH   9  12
ENDBRANCH   2   9
ENDBRANCH   1   3
BRANCH   1  21
ATOM     20  O   UNL     1      33.702 -24.269 -18.801  0.00  0.00    -0.270 OA
ATOM     21  N   UNL     1      33.619 -21.960 -18.622  0.00  0.00    -0.301 N 
ATOM     22  C   UNL     1      33.583 -23.248 -18.128  0.00  0.00    +0.247 C 
ATOM     23  H   UNL     1      33.513 -21.206 -17.997  0.00  0.00    +0.150 HD
BRANCH  22  26
ATOM     24  N   UNL     1      30.467 -23.515 -14.507  0.00  0.00    -0.318 N 
ATOM     25  N   UNL     1      30.825 -23.333 -16.693  0.00  0.00    -0.318 N 
ATOM     26  C   UNL     1      33.356 -23.367 -16.665  0.00  0.00    +0.068 C 
ATOM     27  C   UNL     1      32.070 -23.397 -16.122  0.00  0.00    +0.063 C 
ATOM     28  C   UNL     1      34.422 -23.457 -15.764  0.00  0.00    +0.006 C 
ATOM     29  C   UNL     1      31.820 -23.511 -14.757  0.00  0.00    +0.059 C 
ATOM     30  C   UNL     1      29.901 -23.407 -15.689  0.00  0.00    +0.144 C 
ATOM     31  C   UNL     1      34.202 -23.572 -14.389  0.00  0.00    +0.001 C 
ATOM     32  C   UNL     1      32.903 -23.600 -13.866  0.00  0.00    +0.016 C 
ATOM     33  H   UNL     1      30.019 -23.584 -13.633  0.00  0.00    +0.148 HD
ATOM     34  H   UNL     1      30.632 -23.248 -17.655  0.00  0.00    +0.148 HD
BRANCH  30  35
ATOM     35  C   UNL     1      28.438 -23.375 -15.862  0.00  0.00    +0.037 C 
ATOM     36  C   UNL     1      27.775 -22.123 -15.236  0.00  0.00    +0.003 C 
ATOM     37  C   UNL     1      27.994 -23.500 -17.340  0.00  0.00    +0.003 C 
ENDBRANCH  30  35
ENDBRANCH  22  26
ENDBRANCH   1  21
TORSDOF 7
ENDMDL
MODEL 9
REMARK VINA RESULT:     -11.0      3.587      6.911
REMARK  Name = 11961293
REMARK  7 active torsions:
REMARK  status: ('A' for Active; 'I' for Inactive)
REMARK    1  A    between atoms: C_1  and  C_3
REMARK    2  A    between atoms: C_1  and  N_21
REMARK    3  A    between atoms: N_2  and  C_9
REMARK    4  A    between atoms: C_9  and  C_12
REMARK    5  A    between atoms: C_17  and  O_18
REMARK    6  A    between atoms: C_22  and  C_26
REMARK    7  A    between atoms: C_30  and  C_35
REMARK                            x       y       z     vdW  Elec       q    Type
REMARK                         _______ _______ _______ _____ _____    ______ ____
ROOT
ATOM      1  C   UNL     1      37.094 -19.797 -19.976  0.00  0.00    +0.089 C 
ENDROOT
BRANCH   1   3
ATOM      2  N   UNL     1      34.638 -22.421 -17.581  0.00  0.00    +0.387 N 
ATOM      3  C   UNL     1      36.495 -21.082 -19.412  0.00  0.00    +0.015 C 
ATOM      4  C   UNL     1      34.361 -22.383 -19.023  0.00  0.00    -0.077 C 
ATOM      5  C   UNL     1      36.083 -22.439 -17.319  0.00  0.00    -0.077 C 
ATOM      6  C   UNL     1      34.986 -21.146 -19.672  0.00  0.00    -0.021 C 
ATOM      7  C   UNL     1      36.766 -21.203 -17.909  0.00  0.00    -0.021 C 
ATOM      8  H   UNL     1      34.253 -21.574 -17.164  0.00  0.00    -0.080 HD
BRANCH   2   9
ATOM      9  C   UNL     1      33.992 -23.581 -16.966  0.00  0.00    -0.077 C 
BRANCH   9  12
ATOM     10  O   UNL     1      28.406 -25.003 -14.598  0.00  0.00    -0.226 OA
ATOM     11  N   UNL     1      29.974 -23.504 -15.433  0.00  0.00    -0.246 N 
ATOM     12  C   UNL     1      32.751 -23.161 -16.183  0.00  0.00    -0.017 C 
ATOM     13  C   UNL     1      32.303 -24.277 -15.227  0.00  0.00    +0.020 C 
ATOM     14  C   UNL     1      31.604 -22.788 -17.137  0.00  0.00    +0.020 C 
ATOM     15  C   UNL     1      31.022 -23.895 -14.491  0.00  0.00    +0.097 C 
ATOM     16  C   UNL     1      30.335 -22.431 -16.365  0.00  0.00    +0.097 C 
ATOM     17  C   UNL     1      28.713 -24.105 -15.379  0.00  0.00    +0.405 C 
BRANCH  17  18
ATOM     18  O   UNL     1      27.840 -23.581 -16.295  0.00  0.00    -0.430 OA
ATOM     19  C   UNL     1      27.118 -22.413 -15.884  0.00  0.00    +0.257 C 
ENDBRANCH  17  18
ENDBRANCH   9  12
ENDBRANCH   2   9
ENDBRANCH   1   3
BRANCH   1  21
ATOM     20  O   UNL     1      35.515 -17.466 -20.538  0.00  0.00    -0.270 OA
ATOM     21  N   UNL     1      36.479 -19.450 -21.248  0.00  0.00    -0.301 N 
ATOM     22  C   UNL     1      35.736 -18.299 -21.414  0.00  0.00    +0.247 C 
ATOM     23  H   UNL     1      36.598 -20.056 -22.016  0.00  0.00    +0.150 HD
BRANCH  22  26
ATOM     24  N   UNL     1      33.735 -15.325 -24.582  0.00  0.00    -0.318 N 
ATOM     25  N   UNL     1      34.605 -15.639 -22.562  0.00  0.00    -0.318 N 
ATOM     26  C   UNL     1      35.153 -18.102 -22.766  0.00  0.00    +0.068 C 
ATOM     27  C   UNL     1      34.673 -16.859 -23.184  0.00  0.00    +0.063 C 
ATOM     28  C   UNL     1      35.062 -19.153 -23.684  0.00  0.00    +0.006 C 
ATOM     29  C   UNL     1      34.125 -16.637 -24.444  0.00  0.00    +0.059 C 
ATOM     30  C   UNL     1      34.038 -14.756 -23.436  0.00  0.00    +0.144 C 
ATOM     31  C   UNL     1      34.516 -18.960 -24.956  0.00  0.00    +0.001 C 
ATOM     32  C   UNL     1      34.041 -17.704 -25.353  0.00  0.00    +0.016 C 
ATOM     33  H   UNL     1      33.320 -14.902 -25.369  0.00  0.00    +0.148 HD
ATOM     34  H   UNL     1      34.911 -15.437 -21.647  0.00  0.00    +0.148 HD
BRANCH  30  35
ATOM     35  C   UNL     1      33.778 -13.329 -23.172  0.00  0.00    +0.037 C 
ATOM     36  C   UNL     1      33.780 -12.460 -24.453  0.00  0.00    +0.003 C 
ATOM     37  C   UNL     1      32.465 -13.081 -22.391  0.00  0.00    +0.003 C 
ENDBRANCH  30  35
ENDBRANCH  22  26
ENDBRANCH   1  21
TORSDOF 7
ENDMDL
