MODEL 1
REMARK VINA RESULT:     -10.8      0.000      0.000
REMARK  Name = 6433109
REMARK  6 active torsions:
REMARK  status: ('A' for Active; 'I' for Inactive)
REMARK    1  A    between atoms: N_2  and  C_18
REMARK    2  A    between atoms: C_11  and  C_12
REMARK    3  A    between atoms: C_18  and  C_21
REMARK    4  A    between atoms: N_20  and  C_22
REMARK    5  A    between atoms: N_20  and  C_24
REMARK    6  A    between atoms: C_24  and  C_25
REMARK                            x       y       z     vdW  Elec       q    Type
REMARK                         _______ _______ _______ _____ _____    ______ ____
ROOT
ATOM      1  O   UNL     1      37.139 -21.878 -18.691  0.00  0.00    -0.246 OA
ATOM      2  N   UNL     1      34.840 -22.398 -18.412  0.00  0.00    -0.245 N 
ATOM      3  N   UNL     1      36.188 -22.457 -16.594  0.00  0.00    -0.274 N 
ATOM      4  N   UNL     1      32.747 -23.038 -17.264  0.00  0.00    -0.331 NA
ATOM      5  N   UNL     1      33.037 -23.418 -14.875  0.00  0.00    -0.181 NA
ATOM      6  C   UNL     1      34.056 -22.763 -17.302  0.00  0.00    +0.228 A 
ATOM      7  C   UNL     1      34.891 -22.794 -16.200  0.00  0.00    +0.132 A 
ATOM      8  C   UNL     1      36.187 -22.200 -17.994  0.00  0.00    +0.334 A 
ATOM      9  C   UNL     1      37.336 -22.380 -15.727  0.00  0.00    +0.135 C 
ATOM     10  C   UNL     1      34.351 -23.127 -14.989  0.00  0.00    +0.132 C 
ATOM     11  C   UNL     1      32.311 -23.355 -16.023  0.00  0.00    +0.089 C 
ENDROOT
BRANCH  11  12
ATOM     12  C   UNL     1      30.909 -23.665 -15.902  0.00  0.00    +0.074 C 
ATOM     13  C   UNL     1      30.496 -24.769 -15.150  0.00  0.00    +0.011 C 
ATOM     14  C   UNL     1      29.954 -22.863 -16.532  0.00  0.00    +0.011 C 
ATOM     15  C   UNL     1      29.139 -25.068 -15.030  0.00  0.00    +0.001 C 
ATOM     16  C   UNL     1      28.597 -23.163 -16.413  0.00  0.00    +0.001 C 
ATOM     17  C   UNL     1      28.189 -24.265 -15.662  0.00  0.00    +0.000 C 
ENDBRANCH  11  12
BRANCH   2  18
ATOM     18  C   UNL     1      34.313 -22.263 -19.745  0.00  0.00    +0.198 C 
BRANCH  18  21
ATOM     19  O   UNL     1      32.619 -20.583 -19.514  0.00  0.00    -0.273 OA
ATOM     20  N   UNL     1      34.563 -19.962 -20.619  0.00  0.00    -0.274 N 
ATOM     21  C   UNL     1      33.741 -20.869 -19.939  0.00  0.00    +0.249 C 
BRANCH  20  22
ATOM     22  C   UNL     1      35.886 -20.325 -21.112  0.00  0.00    +0.094 C 
ATOM     23  C   UNL     1      36.946 -19.363 -20.618  0.00  0.00    +0.023 C 
ENDBRANCH  20  22
BRANCH  20  24
ATOM     24  C   UNL     1      34.154 -18.586 -20.886  0.00  0.00    +0.120 C 
BRANCH  24  25
ATOM     25  C   UNL     1      34.380 -18.202 -22.319  0.00  0.00    -0.002 C 
ATOM     26  C   UNL     1      34.654 -16.877 -22.641  0.00  0.00    -0.003 C 
ATOM     27  C   UNL     1      34.313 -19.173 -23.311  0.00  0.00    -0.003 C 
ATOM     28  C   UNL     1      34.864 -16.519 -23.972  0.00  0.00    -0.000 C 
ATOM     29  C   UNL     1      34.523 -18.814 -24.644  0.00  0.00    -0.000 C 
ATOM     30  C   UNL     1      34.798 -17.488 -24.974  0.00  0.00    -0.000 C 
ENDBRANCH  24  25
ENDBRANCH  20  24
ENDBRANCH  18  21
ENDBRANCH   2  18
TORSDOF 6
ENDMDL
MODEL 2
REMARK VINA RESULT:     -10.4      8.189     13.496
REMARK  Name = 6433109
REMARK  6 active torsions:
REMARK  status: ('A' for Active; 'I' for Inactive)
REMARK    1  A    between atoms: N_2  and  C_18
REMARK    2  A    between atoms: C_11  and  C_12
REMARK    3  A    between atoms: C_18  and  C_21
REMARK    4  A    between atoms: N_20  and  C_22
REMARK    5  A    between atoms: N_20  and  C_24
REMARK    6  A    between atoms: C_24  and  C_25
REMARK                            x       y       z     vdW  Elec       q    Type
REMARK                         _______ _______ _______ _____ _____    ______ ____
ROOT
ATOM      1  O   UNL     1      31.373 -12.290 -20.152  0.00  0.00    -0.246 OA
ATOM      2  N   UNL     1      31.947 -10.910 -21.997  0.00  0.00    -0.245 N 
ATOM      3  N   UNL     1      31.801  -9.964 -19.945  0.00  0.00    -0.274 N 
ATOM      4  N   UNL     1      32.553  -8.861 -23.237  0.00  0.00    -0.331 NA
ATOM      5  N   UNL     1      32.714  -6.887 -21.818  0.00  0.00    -0.181 NA
ATOM      6  C   UNL     1      32.239  -9.540 -22.128  0.00  0.00    +0.228 A 
ATOM      7  C   UNL     1      32.147  -8.976 -20.870  0.00  0.00    +0.132 A 
ATOM      8  C   UNL     1      31.667 -11.204 -20.631  0.00  0.00    +0.334 A 
ATOM      9  C   UNL     1      31.612  -9.762 -18.531  0.00  0.00    +0.135 C 
ATOM     10  C   UNL     1      32.391  -7.637 -20.742  0.00  0.00    +0.132 C 
ATOM     11  C   UNL     1      32.776  -7.547 -23.006  0.00  0.00    +0.089 C 
ENDROOT
BRANCH  11  12
ATOM     12  C   UNL     1      33.119  -6.748 -24.155  0.00  0.00    +0.074 C 
ATOM     13  C   UNL     1      32.187  -5.858 -24.696  0.00  0.00    +0.011 C 
ATOM     14  C   UNL     1      34.387  -6.855 -24.733  0.00  0.00    +0.011 C 
ATOM     15  C   UNL     1      32.520  -5.082 -25.806  0.00  0.00    +0.001 C 
ATOM     16  C   UNL     1      34.719  -6.080 -25.844  0.00  0.00    +0.001 C 
ATOM     17  C   UNL     1      33.787  -5.193 -26.381  0.00  0.00    +0.000 C 
ENDBRANCH  11  12
BRANCH   2  18
ATOM     18  C   UNL     1      31.943 -11.830 -23.103  0.00  0.00    +0.198 C 
BRANCH  18  21
ATOM     19  O   UNL     1      34.222 -11.873 -23.842  0.00  0.00    -0.273 OA
ATOM     20  N   UNL     1      33.460 -13.742 -22.698  0.00  0.00    -0.274 N 
ATOM     21  C   UNL     1      33.314 -12.466 -23.256  0.00  0.00    +0.249 C 
BRANCH  20  22
ATOM     22  C   UNL     1      32.369 -14.423 -22.010  0.00  0.00    +0.094 C 
ATOM     23  C   UNL     1      32.852 -15.116 -20.753  0.00  0.00    +0.023 C 
ENDBRANCH  20  22
BRANCH  20  24
ATOM     24  C   UNL     1      34.715 -14.485 -22.764  0.00  0.00    +0.120 C 
BRANCH  24  25
ATOM     25  C   UNL     1      34.590 -15.724 -23.601  0.00  0.00    -0.002 C 
ATOM     26  C   UNL     1      35.095 -16.929 -23.126  0.00  0.00    -0.003 C 
ATOM     27  C   UNL     1      33.972 -15.656 -24.844  0.00  0.00    -0.003 C 
ATOM     28  C   UNL     1      34.980 -18.081 -23.903  0.00  0.00    -0.000 C 
ATOM     29  C   UNL     1      33.856 -16.809 -25.622  0.00  0.00    -0.000 C 
ATOM     30  C   UNL     1      34.360 -18.021 -25.152  0.00  0.00    -0.000 C 
ENDBRANCH  24  25
ENDBRANCH  20  24
ENDBRANCH  18  21
ENDBRANCH   2  18
TORSDOF 6
ENDMDL
MODEL 3
REMARK VINA RESULT:     -10.0      7.436     13.002
REMARK  Name = 6433109
REMARK  6 active torsions:
REMARK  status: ('A' for Active; 'I' for Inactive)
REMARK    1  A    between atoms: N_2  and  C_18
REMARK    2  A    between atoms: C_11  and  C_12
REMARK    3  A    between atoms: C_18  and  C_21
REMARK    4  A    between atoms: N_20  and  C_22
REMARK    5  A    between atoms: N_20  and  C_24
REMARK    6  A    between atoms: C_24  and  C_25
REMARK                            x       y       z     vdW  Elec       q    Type
REMARK                         _______ _______ _______ _____ _____    ______ ____
ROOT
ATOM      1  O   UNL     1      31.589 -13.412 -20.636  0.00  0.00    -0.246 OA
ATOM      2  N   UNL     1      32.165 -11.788 -22.269  0.00  0.00    -0.245 N 
ATOM      3  N   UNL     1      31.698 -11.087 -20.167  0.00  0.00    -0.274 N 
ATOM      4  N   UNL     1      32.630  -9.563 -23.238  0.00  0.00    -0.331 NA
ATOM      5  N   UNL     1      32.399  -7.745 -21.633  0.00  0.00    -0.181 NA
ATOM      6  C   UNL     1      32.295 -10.387 -22.239  0.00  0.00    +0.228 A 
ATOM      7  C   UNL     1      32.007  -9.973 -20.952  0.00  0.00    +0.132 A 
ATOM      8  C   UNL     1      31.790 -12.255 -20.976  0.00  0.00    +0.334 A 
ATOM      9  C   UNL     1      31.346 -11.059 -18.770  0.00  0.00    +0.135 C 
ATOM     10  C   UNL     1      32.067  -8.636 -20.673  0.00  0.00    +0.132 C 
ATOM     11  C   UNL     1      32.661  -8.264 -22.863  0.00  0.00    +0.089 C 
ENDROOT
BRANCH  11  12
ATOM     12  C   UNL     1      33.013  -7.314 -23.887  0.00  0.00    +0.074 C 
ATOM     13  C   UNL     1      32.055  -6.425 -24.381  0.00  0.00    +0.011 C 
ATOM     14  C   UNL     1      34.317  -7.273 -24.389  0.00  0.00    +0.011 C 
ATOM     15  C   UNL     1      32.397  -5.503 -25.371  0.00  0.00    +0.001 C 
ATOM     16  C   UNL     1      34.658  -6.352 -25.379  0.00  0.00    +0.001 C 
ATOM     17  C   UNL     1      33.699  -5.466 -25.870  0.00  0.00    +0.000 C 
ENDBRANCH  11  12
BRANCH   2  18
ATOM     18  C   UNL     1      32.386 -12.580 -23.449  0.00  0.00    +0.198 C 
BRANCH  18  21
ATOM     19  O   UNL     1      34.497 -13.100 -22.438  0.00  0.00    -0.273 OA
ATOM     20  N   UNL     1      33.819 -14.454 -24.196  0.00  0.00    -0.274 N 
ATOM     21  C   UNL     1      33.664 -13.389 -23.301  0.00  0.00    +0.249 C 
BRANCH  20  22
ATOM     22  C   UNL     1      32.821 -14.775 -25.208  0.00  0.00    +0.094 C 
ATOM     23  C   UNL     1      33.257 -14.316 -26.584  0.00  0.00    +0.023 C 
ENDBRANCH  20  22
BRANCH  20  24
ATOM     24  C   UNL     1      34.994 -15.322 -24.181  0.00  0.00    +0.120 C 
BRANCH  24  25
ATOM     25  C   UNL     1      34.745 -16.591 -23.419  0.00  0.00    -0.002 C 
ATOM     26  C   UNL     1      34.823 -17.814 -24.076  0.00  0.00    -0.003 C 
ATOM     27  C   UNL     1      34.437 -16.531 -22.065  0.00  0.00    -0.003 C 
ATOM     28  C   UNL     1      34.591 -18.993 -23.369  0.00  0.00    -0.000 C 
ATOM     29  C   UNL     1      34.206 -17.712 -21.357  0.00  0.00    -0.000 C 
ATOM     30  C   UNL     1      34.282 -18.942 -22.009  0.00  0.00    -0.000 C 
ENDBRANCH  24  25
ENDBRANCH  20  24
ENDBRANCH  18  21
ENDBRANCH   2  18
TORSDOF 6
ENDMDL
MODEL 4
REMARK VINA RESULT:      -9.8      5.487     10.773
REMARK  Name = 6433109
REMARK  6 active torsions:
REMARK  status: ('A' for Active; 'I' for Inactive)
REMARK    1  A    between atoms: N_2  and  C_18
REMARK    2  A    between atoms: C_11  and  C_12
REMARK    3  A    between atoms: C_18  and  C_21
REMARK    4  A    between atoms: N_20  and  C_22
REMARK    5  A    between atoms: N_20  and  C_24
REMARK    6  A    between atoms: C_24  and  C_25
REMARK                            x       y       z     vdW  Elec       q    Type
REMARK                         _______ _______ _______ _____ _____    ______ ____
ROOT
ATOM      1  O   UNL     1      33.965 -15.798 -26.027  0.00  0.00    -0.246 OA
ATOM      2  N   UNL     1      33.264 -14.642 -24.074  0.00  0.00    -0.245 N 
ATOM      3  N   UNL     1      33.793 -13.432 -25.913  0.00  0.00    -0.274 N 
ATOM      4  N   UNL     1      32.682 -12.739 -22.611  0.00  0.00    -0.331 NA
ATOM      5  N   UNL     1      32.915 -10.575 -23.705  0.00  0.00    -0.181 NA
ATOM      6  C   UNL     1      33.087 -13.282 -23.765  0.00  0.00    +0.228 A 
ATOM      7  C   UNL     1      33.412 -12.555 -24.894  0.00  0.00    +0.132 A 
ATOM      8  C   UNL     1      33.709 -14.766 -25.422  0.00  0.00    +0.334 A 
ATOM      9  C   UNL     1      34.202 -13.050 -27.241  0.00  0.00    +0.135 C 
ATOM     10  C   UNL     1      33.317 -11.193 -24.837  0.00  0.00    +0.132 C 
ATOM     11  C   UNL     1      32.620 -11.388 -22.655  0.00  0.00    +0.089 C 
ENDROOT
BRANCH  11  12
ATOM     12  C   UNL     1      32.192 -10.731 -21.448  0.00  0.00    +0.074 C 
ATOM     13  C   UNL     1      32.317  -9.344 -21.321  0.00  0.00    +0.011 C 
ATOM     14  C   UNL     1      31.646 -11.474 -20.397  0.00  0.00    +0.011 C 
ATOM     15  C   UNL     1      31.900  -8.706 -20.152  0.00  0.00    +0.001 C 
ATOM     16  C   UNL     1      31.231 -10.835 -19.229  0.00  0.00    +0.001 C 
ATOM     17  C   UNL     1      31.356  -9.452 -19.106  0.00  0.00    +0.000 C 
ENDBRANCH  11  12
BRANCH   2  18
ATOM     18  C   UNL     1      33.022 -15.708 -23.138  0.00  0.00    +0.198 C 
BRANCH  18  21
ATOM     19  O   UNL     1      34.925 -15.308 -21.736  0.00  0.00    -0.273 OA
ATOM     20  N   UNL     1      34.763 -17.411 -22.703  0.00  0.00    -0.274 N 
ATOM     21  C   UNL     1      34.320 -16.106 -22.456  0.00  0.00    +0.249 C 
BRANCH  20  22
ATOM     22  C   UNL     1      34.030 -18.335 -23.559  0.00  0.00    +0.094 C 
ATOM     23  C   UNL     1      34.898 -18.858 -24.684  0.00  0.00    +0.023 C 
ENDBRANCH  20  22
BRANCH  20  24
ATOM     24  C   UNL     1      35.994 -17.941 -22.123  0.00  0.00    +0.120 C 
BRANCH  24  25
ATOM     25  C   UNL     1      35.730 -19.106 -21.215  0.00  0.00    -0.002 C 
ATOM     26  C   UNL     1      34.420 -19.496 -20.960  0.00  0.00    -0.003 C 
ATOM     27  C   UNL     1      36.796 -19.785 -20.637  0.00  0.00    -0.003 C 
ATOM     28  C   UNL     1      34.173 -20.579 -20.117  0.00  0.00    -0.000 C 
ATOM     29  C   UNL     1      36.549 -20.869 -19.793  0.00  0.00    -0.000 C 
ATOM     30  C   UNL     1      35.238 -21.265 -19.532  0.00  0.00    -0.000 C 
ENDBRANCH  24  25
ENDBRANCH  20  24
ENDBRANCH  18  21
ENDBRANCH   2  18
TORSDOF 6
ENDMDL
MODEL 5
REMARK VINA RESULT:      -9.6      3.875      9.438
REMARK  Name = 6433109
REMARK  6 active torsions:
REMARK  status: ('A' for Active; 'I' for Inactive)
REMARK    1  A    between atoms: N_2  and  C_18
REMARK    2  A    between atoms: C_11  and  C_12
REMARK    3  A    between atoms: C_18  and  C_21
REMARK    4  A    between atoms: N_20  and  C_22
REMARK    5  A    between atoms: N_20  and  C_24
REMARK    6  A    between atoms: C_24  and  C_25
REMARK                            x       y       z     vdW  Elec       q    Type
REMARK                         _______ _______ _______ _____ _____    ______ ____
ROOT
ATOM      1  O   UNL     1      35.544 -18.686 -23.605  0.00  0.00    -0.246 OA
ATOM      2  N   UNL     1      34.643 -16.904 -22.321  0.00  0.00    -0.245 N 
ATOM      3  N   UNL     1      34.407 -16.840 -24.572  0.00  0.00    -0.274 N 
ATOM      4  N   UNL     1      33.480 -14.781 -21.830  0.00  0.00    -0.331 NA
ATOM      5  N   UNL     1      32.657 -13.648 -23.824  0.00  0.00    -0.181 NA
ATOM      6  C   UNL     1      33.945 -15.728 -22.652  0.00  0.00    +0.228 A 
ATOM      7  C   UNL     1      33.807 -15.702 -24.027  0.00  0.00    +0.132 A 
ATOM      8  C   UNL     1      34.947 -17.623 -23.513  0.00  0.00    +0.334 A 
ATOM      9  C   UNL     1      34.467 -17.168 -25.974  0.00  0.00    +0.135 C 
ATOM     10  C   UNL     1      33.154 -14.643 -24.592  0.00  0.00    +0.132 C 
ATOM     11  C   UNL     1      32.850 -13.777 -22.484  0.00  0.00    +0.089 C 
ENDROOT
BRANCH  11  12
ATOM     12  C   UNL     1      32.322 -12.717 -21.665  0.00  0.00    +0.074 C 
ATOM     13  C   UNL     1      32.187 -12.895 -20.285  0.00  0.00    +0.011 C 
ATOM     14  C   UNL     1      31.944 -11.502 -22.245  0.00  0.00    +0.011 C 
ATOM     15  C   UNL     1      31.677 -11.867 -19.491  0.00  0.00    +0.001 C 
ATOM     16  C   UNL     1      31.434 -10.475 -21.450  0.00  0.00    +0.001 C 
ATOM     17  C   UNL     1      31.300 -10.657 -20.074  0.00  0.00    +0.000 C 
ENDBRANCH  11  12
BRANCH   2  18
ATOM     18  C   UNL     1      34.977 -17.276 -20.972  0.00  0.00    +0.198 C 
BRANCH  18  21
ATOM     19  O   UNL     1      36.910 -18.658 -21.288  0.00  0.00    -0.273 OA
ATOM     20  N   UNL     1      34.971 -19.719 -20.582  0.00  0.00    -0.274 N 
ATOM     21  C   UNL     1      35.721 -18.601 -20.967  0.00  0.00    +0.249 C 
BRANCH  20  22
ATOM     22  C   UNL     1      33.565 -19.625 -20.207  0.00  0.00    +0.094 C 
ATOM     23  C   UNL     1      32.662 -20.160 -21.299  0.00  0.00    +0.023 C 
ENDBRANCH  20  22
BRANCH  20  24
ATOM     24  C   UNL     1      35.542 -21.062 -20.530  0.00  0.00    +0.120 C 
BRANCH  24  25
ATOM     25  C   UNL     1      35.516 -21.628 -19.140  0.00  0.00    -0.002 C 
ATOM     26  C   UNL     1      36.615 -21.453 -18.306  0.00  0.00    -0.003 C 
ATOM     27  C   UNL     1      34.396 -22.324 -18.700  0.00  0.00    -0.003 C 
ATOM     28  C   UNL     1      36.592 -21.979 -17.014  0.00  0.00    -0.000 C 
ATOM     29  C   UNL     1      34.374 -22.850 -17.408  0.00  0.00    -0.000 C 
ATOM     30  C   UNL     1      35.471 -22.678 -16.565  0.00  0.00    -0.000 C 
ENDBRANCH  24  25
ENDBRANCH  20  24
ENDBRANCH  18  21
ENDBRANCH   2  18
TORSDOF 6
ENDMDL
MODEL 6
REMARK VINA RESULT:      -9.5     10.692     16.668
REMARK  Name = 6433109
REMARK  6 active torsions:
REMARK  status: ('A' for Active; 'I' for Inactive)
REMARK    1  A    between atoms: N_2  and  C_18
REMARK    2  A    between atoms: C_11  and  C_12
REMARK    3  A    between atoms: C_18  and  C_21
REMARK    4  A    between atoms: N_20  and  C_22
REMARK    5  A    between atoms: N_20  and  C_24
REMARK    6  A    between atoms: C_24  and  C_25
REMARK                            x       y       z     vdW  Elec       q    Type
REMARK                         _______ _______ _______ _____ _____    ______ ____
ROOT
ATOM      1  O   UNL     1      31.871  -7.557 -20.977  0.00  0.00    -0.246 OA
ATOM      2  N   UNL     1      32.894  -7.141 -23.078  0.00  0.00    -0.245 N 
ATOM      3  N   UNL     1      31.317  -5.694 -22.340  0.00  0.00    -0.274 N 
ATOM      4  N   UNL     1      33.384  -6.000 -25.214  0.00  0.00    -0.331 NA
ATOM      5  N   UNL     1      32.059  -3.983 -25.555  0.00  0.00    -0.181 NA
ATOM      6  C   UNL     1      32.742  -6.133 -24.047  0.00  0.00    +0.228 A 
ATOM      7  C   UNL     1      31.778  -5.257 -23.585  0.00  0.00    +0.132 A 
ATOM      8  C   UNL     1      32.008  -6.889 -21.992  0.00  0.00    +0.334 A 
ATOM      9  C   UNL     1      30.310  -5.042 -21.542  0.00  0.00    +0.135 C 
ATOM     10  C   UNL     1      31.453  -4.182 -24.364  0.00  0.00    +0.132 C 
ATOM     11  C   UNL     1      32.993  -4.907 -25.910  0.00  0.00    +0.089 C 
ENDROOT
BRANCH  11  12
ATOM     12  C   UNL     1      33.639  -4.696 -27.179  0.00  0.00    +0.074 C 
ATOM     13  C   UNL     1      35.034  -4.685 -27.265  0.00  0.00    +0.011 C 
ATOM     14  C   UNL     1      32.875  -4.505 -28.334  0.00  0.00    +0.011 C 
ATOM     15  C   UNL     1      35.661  -4.484 -28.495  0.00  0.00    +0.001 C 
ATOM     16  C   UNL     1      33.502  -4.302 -29.564  0.00  0.00    +0.001 C 
ATOM     17  C   UNL     1      34.894  -4.292 -29.645  0.00  0.00    +0.000 C 
ENDBRANCH  11  12
BRANCH   2  18
ATOM     18  C   UNL     1      33.816  -8.238 -23.212  0.00  0.00    +0.198 C 
BRANCH  18  21
ATOM     19  O   UNL     1      31.864  -9.620 -23.367  0.00  0.00    -0.273 OA
ATOM     20  N   UNL     1      33.831 -10.489 -24.237  0.00  0.00    -0.274 N 
ATOM     21  C   UNL     1      33.068  -9.501 -23.605  0.00  0.00    +0.249 C 
BRANCH  20  22
ATOM     22  C   UNL     1      35.254 -10.324 -24.507  0.00  0.00    +0.094 C 
ATOM     23  C   UNL     1      35.543 -10.337 -25.993  0.00  0.00    +0.023 C 
ENDBRANCH  20  22
BRANCH  20  24
ATOM     24  C   UNL     1      33.258 -11.760 -24.673  0.00  0.00    +0.120 C 
BRANCH  24  25
ATOM     25  C   UNL     1      33.280 -12.789 -23.581  0.00  0.00    -0.002 C 
ATOM     26  C   UNL     1      32.344 -12.723 -22.555  0.00  0.00    -0.003 C 
ATOM     27  C   UNL     1      34.236 -13.797 -23.604  0.00  0.00    -0.003 C 
ATOM     28  C   UNL     1      32.363 -13.679 -21.540  0.00  0.00    -0.000 C 
ATOM     29  C   UNL     1      34.256 -14.754 -22.588  0.00  0.00    -0.000 C 
ATOM     30  C   UNL     1      33.321 -14.694 -21.556  0.00  0.00    -0.000 C 
ENDBRANCH  24  25
ENDBRANCH  20  24
ENDBRANCH  18  21
ENDBRANCH   2  18
TORSDOF 6
ENDMDL
MODEL 7
REMARK VINA RESULT:      -9.5      8.533     12.675
REMARK  Name = 6433109
REMARK  6 active torsions:
REMARK  status: ('A' for Active; 'I' for Inactive)
REMARK    1  A    between atoms: N_2  and  C_18
REMARK    2  A    between atoms: C_11  and  C_12
REMARK    3  A    between atoms: C_18  and  C_21
REMARK    4  A    between atoms: N_20  and  C_22
REMARK    5  A    between atoms: N_20  and  C_24
REMARK    6  A    between atoms: C_24  and  C_25
REMARK                            x       y       z     vdW  Elec       q    Type
REMARK                         _______ _______ _______ _____ _____    ______ ____
ROOT
ATOM      1  O   UNL     1      31.472  -9.008 -21.276  0.00  0.00    -0.246 OA
ATOM      2  N   UNL     1      32.316 -10.784 -22.607  0.00  0.00    -0.245 N 
ATOM      3  N   UNL     1      31.768 -11.216 -20.453  0.00  0.00    -0.274 N 
ATOM      4  N   UNL     1      33.062 -13.064 -23.198  0.00  0.00    -0.331 NA
ATOM      5  N   UNL     1      32.890 -14.643 -21.350  0.00  0.00    -0.181 NA
ATOM      6  C   UNL     1      32.577 -12.144 -22.357  0.00  0.00    +0.228 A 
ATOM      7  C   UNL     1      32.238 -12.393 -21.040  0.00  0.00    +0.132 A 
ATOM      8  C   UNL     1      31.806 -10.176 -21.425  0.00  0.00    +0.334 A 
ATOM      9  C   UNL     1      31.318 -11.078 -19.092  0.00  0.00    +0.135 C 
ATOM     10  C   UNL     1      32.405 -13.661 -20.558  0.00  0.00    +0.132 C 
ATOM     11  C   UNL     1      33.191 -14.284 -22.627  0.00  0.00    +0.089 C 
ENDROOT
BRANCH  11  12
ATOM     12  C   UNL     1      33.708 -15.330 -23.471  0.00  0.00    +0.074 C 
ATOM     13  C   UNL     1      34.434 -16.388 -22.916  0.00  0.00    +0.011 C 
ATOM     14  C   UNL     1      33.485 -15.296 -24.851  0.00  0.00    +0.011 C 
ATOM     15  C   UNL     1      34.933 -17.402 -23.733  0.00  0.00    +0.001 C 
ATOM     16  C   UNL     1      33.986 -16.310 -25.667  0.00  0.00    +0.001 C 
ATOM     17  C   UNL     1      34.709 -17.364 -25.109  0.00  0.00    +0.000 C 
ENDBRANCH  11  12
BRANCH   2  18
ATOM     18  C   UNL     1      32.549 -10.153 -23.879  0.00  0.00    +0.198 C 
BRANCH  18  21
ATOM     19  O   UNL     1      34.502  -8.864 -23.356  0.00  0.00    -0.273 OA
ATOM     20  N   UNL     1      32.581  -7.679 -23.893  0.00  0.00    -0.274 N 
ATOM     21  C   UNL     1      33.312  -8.854 -23.683  0.00  0.00    +0.249 C 
BRANCH  20  22
ATOM     22  C   UNL     1      31.175  -7.693 -24.278  0.00  0.00    +0.094 C 
ATOM     23  C   UNL     1      30.349  -6.778 -23.398  0.00  0.00    +0.023 C 
ENDBRANCH  20  22
BRANCH  20  24
ATOM     24  C   UNL     1      33.172  -6.352 -23.741  0.00  0.00    +0.120 C 
BRANCH  24  25
ATOM     25  C   UNL     1      33.464  -5.713 -25.067  0.00  0.00    -0.002 C 
ATOM     26  C   UNL     1      32.545  -4.828 -25.621  0.00  0.00    -0.003 C 
ATOM     27  C   UNL     1      34.649  -6.011 -25.730  0.00  0.00    -0.003 C 
ATOM     28  C   UNL     1      32.815  -4.234 -26.853  0.00  0.00    -0.000 C 
ATOM     29  C   UNL     1      34.919  -5.416 -26.963  0.00  0.00    -0.000 C 
ATOM     30  C   UNL     1      34.002  -4.528 -27.525  0.00  0.00    -0.000 C 
ENDBRANCH  24  25
ENDBRANCH  20  24
ENDBRANCH  18  21
ENDBRANCH   2  18
TORSDOF 6
ENDMDL
MODEL 8
REMARK VINA RESULT:      -9.4      0.993      1.823
REMARK  Name = 6433109
REMARK  6 active torsions:
REMARK  status: ('A' for Active; 'I' for Inactive)
REMARK    1  A    between atoms: N_2  and  C_18
REMARK    2  A    between atoms: C_11  and  C_12
REMARK    3  A    between atoms: C_18  and  C_21
REMARK    4  A    between atoms: N_20  and  C_22
REMARK    5  A    between atoms: N_20  and  C_24
REMARK    6  A    between atoms: C_24  and  C_25
REMARK                            x       y       z     vdW  Elec       q    Type
REMARK                         _______ _______ _______ _____ _____    ______ ____
ROOT
ATOM      1  O   UNL     1      37.485 -22.038 -18.199  0.00  0.00    -0.246 OA
ATOM      2  N   UNL     1      35.132 -22.342 -18.124  0.00  0.00    -0.245 N 
ATOM      3  N   UNL     1      36.337 -22.777 -16.257  0.00  0.00    -0.274 N 
ATOM      4  N   UNL     1      32.912 -22.898 -17.193  0.00  0.00    -0.331 NA
ATOM      5  N   UNL     1      32.994 -23.612 -14.865  0.00  0.00    -0.181 NA
ATOM      6  C   UNL     1      34.241 -22.761 -17.119  0.00  0.00    +0.228 A 
ATOM      7  C   UNL     1      34.989 -23.023 -15.986  0.00  0.00    +0.132 A 
ATOM      8  C   UNL     1      36.460 -22.344 -17.607  0.00  0.00    +0.334 A 
ATOM      9  C   UNL     1      37.423 -22.936 -15.324  0.00  0.00    +0.135 C 
ATOM     10  C   UNL     1      34.336 -23.450 -14.864  0.00  0.00    +0.132 C 
ATOM     11  C   UNL     1      32.360 -23.325 -16.033  0.00  0.00    +0.089 C 
ENDROOT
BRANCH  11  12
ATOM     12  C   UNL     1      30.930 -23.497 -16.035  0.00  0.00    +0.074 C 
ATOM     13  C   UNL     1      30.114 -22.595 -16.722  0.00  0.00    +0.011 C 
ATOM     14  C   UNL     1      30.351 -24.571 -15.352  0.00  0.00    +0.011 C 
ATOM     15  C   UNL     1      28.729 -22.764 -16.726  0.00  0.00    +0.001 C 
ATOM     16  C   UNL     1      28.966 -24.738 -15.356  0.00  0.00    +0.001 C 
ATOM     17  C   UNL     1      28.155 -23.836 -16.042  0.00  0.00    +0.000 C 
ENDBRANCH  11  12
BRANCH   2  18
ATOM     18  C   UNL     1      34.716 -21.981 -19.453  0.00  0.00    +0.198 C 
BRANCH  18  21
ATOM     19  O   UNL     1      36.482 -20.363 -19.538  0.00  0.00    -0.273 OA
ATOM     20  N   UNL     1      34.478 -19.775 -20.547  0.00  0.00    -0.274 N 
ATOM     21  C   UNL     1      35.320 -20.642 -19.841  0.00  0.00    +0.249 C 
BRANCH  20  22
ATOM     22  C   UNL     1      33.107 -20.129 -20.894  0.00  0.00    +0.094 C 
ATOM     23  C   UNL     1      32.140 -19.021 -20.531  0.00  0.00    +0.023 C 
ENDBRANCH  20  22
BRANCH  20  24
ATOM     24  C   UNL     1      34.911 -18.452 -20.988  0.00  0.00    +0.120 C 
BRANCH  24  25
ATOM     25  C   UNL     1      34.783 -18.286 -22.474  0.00  0.00    -0.002 C 
ATOM     26  C   UNL     1      34.887 -19.398 -23.302  0.00  0.00    -0.003 C 
ATOM     27  C   UNL     1      34.562 -17.022 -23.009  0.00  0.00    -0.003 C 
ATOM     28  C   UNL     1      34.768 -19.244 -24.683  0.00  0.00    -0.000 C 
ATOM     29  C   UNL     1      34.443 -16.868 -24.391  0.00  0.00    -0.000 C 
ATOM     30  C   UNL     1      34.546 -17.979 -25.228  0.00  0.00    -0.000 C 
ENDBRANCH  24  25
ENDBRANCH  20  24
ENDBRANCH  18  21
ENDBRANCH   2  18
TORSDOF 6
ENDMDL
MODEL 9
REMARK VINA RESULT:      -9.3      3.526      7.670
REMARK  Name = 6433109
REMARK  6 active torsions:
REMARK  status: ('A' for Active; 'I' for Inactive)
REMARK    1  A    between atoms: N_2  and  C_18
REMARK    2  A    between atoms: C_11  and  C_12
REMARK    3  A    between atoms: C_18  and  C_21
REMARK    4  A    between atoms: N_20  and  C_22
REMARK    5  A    between atoms: N_20  and  C_24
REMARK    6  A    between atoms: C_24  and  C_25
REMARK                            x       y       z     vdW  Elec       q    Type
REMARK                         _______ _______ _______ _____ _____    ______ ____
ROOT
ATOM      1  O   UNL     1      34.833 -24.943 -11.189  0.00  0.00    -0.246 OA
ATOM      2  N   UNL     1      34.521 -23.792 -13.242  0.00  0.00    -0.245 N 
ATOM      3  N   UNL     1      36.473 -24.889 -12.905  0.00  0.00    -0.274 N 
ATOM      4  N   UNL     1      35.037 -22.934 -15.501  0.00  0.00    -0.331 NA
ATOM      5  N   UNL     1      37.241 -23.594 -16.303  0.00  0.00    -0.181 NA
ATOM      6  C   UNL     1      35.322 -23.616 -14.385  0.00  0.00    +0.228 A 
ATOM      7  C   UNL     1      36.509 -24.290 -14.167  0.00  0.00    +0.132 A 
ATOM      8  C   UNL     1      35.223 -24.591 -12.293  0.00  0.00    +0.334 A 
ATOM      9  C   UNL     1      37.527 -25.679 -12.321  0.00  0.00    +0.135 C 
ATOM     10  C   UNL     1      37.458 -24.263 -15.149  0.00  0.00    +0.132 C 
ATOM     11  C   UNL     1      36.038 -22.968 -16.410  0.00  0.00    +0.089 C 
ENDROOT
BRANCH  11  12
ATOM     12  C   UNL     1      35.806 -22.254 -17.639  0.00  0.00    +0.074 C 
ATOM     13  C   UNL     1      36.810 -21.450 -18.186  0.00  0.00    +0.011 C 
ATOM     14  C   UNL     1      34.576 -22.364 -18.294  0.00  0.00    +0.011 C 
ATOM     15  C   UNL     1      36.586 -20.761 -19.379  0.00  0.00    +0.001 C 
ATOM     16  C   UNL     1      34.352 -21.673 -19.486  0.00  0.00    +0.001 C 
ATOM     17  C   UNL     1      35.357 -20.873 -20.029  0.00  0.00    +0.000 C 
ENDBRANCH  11  12
BRANCH   2  18
ATOM     18  C   UNL     1      33.204 -23.230 -13.101  0.00  0.00    +0.198 C 
BRANCH  18  21
ATOM     19  O   UNL     1      31.995 -25.298 -12.999  0.00  0.00    -0.273 OA
ATOM     20  N   UNL     1      31.425 -23.837 -14.710  0.00  0.00    -0.274 N 
ATOM     21  C   UNL     1      32.160 -24.224 -13.583  0.00  0.00    +0.249 C 
BRANCH  20  22
ATOM     22  C   UNL     1      31.640 -22.562 -15.383  0.00  0.00    +0.094 C 
ATOM     23  C   UNL     1      31.861 -22.749 -16.869  0.00  0.00    +0.023 C 
ENDBRANCH  20  22
BRANCH  20  24
ATOM     24  C   UNL     1      30.388 -24.683 -15.295  0.00  0.00    +0.120 C 
BRANCH  24  25
ATOM     25  C   UNL     1      29.211 -23.882 -15.769  0.00  0.00    -0.002 C 
ATOM     26  C   UNL     1      28.670 -22.901 -14.946  0.00  0.00    -0.003 C 
ATOM     27  C   UNL     1      28.672 -24.129 -17.026  0.00  0.00    -0.003 C 
ATOM     28  C   UNL     1      27.577 -22.156 -15.386  0.00  0.00    -0.000 C 
ATOM     29  C   UNL     1      27.577 -23.383 -17.466  0.00  0.00    -0.000 C 
ATOM     30  C   UNL     1      27.030 -22.398 -16.646  0.00  0.00    -0.000 C 
ENDBRANCH  24  25
ENDBRANCH  20  24
ENDBRANCH  18  21
ENDBRANCH   2  18
TORSDOF 6
ENDMDL
