MODEL 1
REMARK VINA RESULT:      -7.9      0.000      0.000
REMARK  Name = 5944
REMARK  0 active torsions:
REMARK  status: ('A' for Active; 'I' for Inactive)
REMARK                            x       y       z     vdW  Elec       q    Type
REMARK                         _______ _______ _______ _____ _____    ______ ____
ROOT
ATOM      1  O   UNL     1      38.344 -25.903 -12.448  0.00  0.00    -0.358 OA
ATOM      2  O   UNL     1      36.808 -23.542 -10.965  0.00  0.00    -0.392 OA
ATOM      3  O   UNL     1      35.213 -25.135 -10.622  0.00  0.00    -0.250 OA
ATOM      4  O   UNL     1      38.465 -22.244 -11.842  0.00  0.00    -0.250 OA
ATOM      5  C   UNL     1      36.277 -24.921 -12.802  0.00  0.00    +0.127 C 
ATOM      6  C   UNL     1      37.384 -23.940 -13.216  0.00  0.00    +0.127 C 
ATOM      7  C   UNL     1      37.007 -26.277 -12.878  0.00  0.00    +0.126 C 
ATOM      8  C   UNL     1      38.576 -24.888 -13.462  0.00  0.00    +0.126 C 
ATOM      9  C   UNL     1      37.308 -26.715 -14.312  0.00  0.00    +0.033 C 
ATOM     10  C   UNL     1      38.413 -25.737 -14.723  0.00  0.00    +0.033 C 
ATOM     11  C   UNL     1      36.015 -24.574 -11.355  0.00  0.00    +0.325 C 
ATOM     12  C   UNL     1      37.636 -23.134 -11.962  0.00  0.00    +0.325 C 
ATOM     13  C   UNL     1      34.955 -24.855 -13.558  0.00  0.00    +0.014 C 
ATOM     14  C   UNL     1      37.080 -22.973 -14.355  0.00  0.00    +0.014 C 
ENDROOT
TORSDOF 0
ENDMDL
MODEL 2
REMARK VINA RESULT:      -7.6      1.411      2.179
REMARK  Name = 5944
REMARK  0 active torsions:
REMARK  status: ('A' for Active; 'I' for Inactive)
REMARK                            x       y       z     vdW  Elec       q    Type
REMARK                         _______ _______ _______ _____ _____    ______ ____
ROOT
ATOM      1  O   UNL     1      36.817 -26.362 -12.850  0.00  0.00    -0.358 OA
ATOM      2  O   UNL     1      34.669 -24.332 -11.668  0.00  0.00    -0.392 OA
ATOM      3  O   UNL     1      33.747 -24.491 -13.747  0.00  0.00    -0.250 OA
ATOM      4  O   UNL     1      36.113 -24.216  -9.906  0.00  0.00    -0.250 OA
ATOM      5  C   UNL     1      36.156 -24.238 -13.494  0.00  0.00    +0.127 C 
ATOM      6  C   UNL     1      36.960 -24.146 -12.188  0.00  0.00    +0.127 C 
ATOM      7  C   UNL     1      36.629 -25.589 -14.067  0.00  0.00    +0.126 C 
ATOM      8  C   UNL     1      37.767 -25.462 -12.217  0.00  0.00    +0.126 C 
ATOM      9  C   UNL     1      38.070 -25.551 -14.576  0.00  0.00    +0.033 C 
ATOM     10  C   UNL     1      38.871 -25.462 -13.274  0.00  0.00    +0.033 C 
ATOM     11  C   UNL     1      34.726 -24.366 -13.024  0.00  0.00    +0.325 C 
ATOM     12  C   UNL     1      35.904 -24.230 -11.111  0.00  0.00    +0.325 C 
ATOM     13  C   UNL     1      36.240 -23.061 -14.459  0.00  0.00    +0.014 C 
ATOM     14  C   UNL     1      37.785 -22.886 -11.954  0.00  0.00    +0.014 C 
ENDROOT
TORSDOF 0
ENDMDL
MODEL 3
REMARK VINA RESULT:      -7.5      2.185      3.762
REMARK  Name = 5944
REMARK  0 active torsions:
REMARK  status: ('A' for Active; 'I' for Inactive)
REMARK                            x       y       z     vdW  Elec       q    Type
REMARK                         _______ _______ _______ _____ _____    ______ ____
ROOT
ATOM      1  O   UNL     1      36.360 -25.105 -12.539  0.00  0.00    -0.358 OA
ATOM      2  O   UNL     1      36.257 -26.164 -15.540  0.00  0.00    -0.392 OA
ATOM      3  O   UNL     1      37.928 -27.549 -14.842  0.00  0.00    -0.250 OA
ATOM      4  O   UNL     1      34.865 -24.386 -15.858  0.00  0.00    -0.250 OA
ATOM      5  C   UNL     1      37.952 -25.195 -14.218  0.00  0.00    +0.127 C 
ATOM      6  C   UNL     1      36.909 -24.121 -14.563  0.00  0.00    +0.127 C 
ATOM      7  C   UNL     1      37.789 -25.321 -12.690  0.00  0.00    +0.126 C 
ATOM      8  C   UNL     1      36.311 -23.800 -13.177  0.00  0.00    +0.126 C 
ATOM      9  C   UNL     1      38.317 -24.102 -11.931  0.00  0.00    +0.033 C 
ATOM     10  C   UNL     1      37.276 -23.033 -12.273  0.00  0.00    +0.033 C 
ATOM     11  C   UNL     1      37.414 -26.440 -14.884  0.00  0.00    +0.325 C 
ATOM     12  C   UNL     1      35.887 -24.865 -15.389  0.00  0.00    +0.325 C 
ATOM     13  C   UNL     1      39.381 -24.973 -14.701  0.00  0.00    +0.014 C 
ATOM     14  C   UNL     1      37.381 -22.909 -15.360  0.00  0.00    +0.014 C 
ENDROOT
TORSDOF 0
ENDMDL
MODEL 4
REMARK VINA RESULT:      -7.3      1.527      2.994
REMARK  Name = 5944
REMARK  0 active torsions:
REMARK  status: ('A' for Active; 'I' for Inactive)
REMARK                            x       y       z     vdW  Elec       q    Type
REMARK                         _______ _______ _______ _____ _____    ______ ____
ROOT
ATOM      1  O   UNL     1      36.941 -23.284 -14.743  0.00  0.00    -0.358 OA
ATOM      2  O   UNL     1      38.866 -23.798 -12.261  0.00  0.00    -0.392 OA
ATOM      3  O   UNL     1      39.785 -25.379 -13.622  0.00  0.00    -0.250 OA
ATOM      4  O   UNL     1      37.430 -22.399 -11.173  0.00  0.00    -0.250 OA
ATOM      5  C   UNL     1      37.365 -25.163 -13.459  0.00  0.00    +0.127 C 
ATOM      6  C   UNL     1      36.565 -24.149 -12.628  0.00  0.00    +0.127 C 
ATOM      7  C   UNL     1      37.037 -24.725 -14.901  0.00  0.00    +0.126 C 
ATOM      8  C   UNL     1      35.905 -23.287 -13.724  0.00  0.00    +0.126 C 
ATOM      9  C   UNL     1      35.596 -25.038 -15.307  0.00  0.00    +0.033 C 
ATOM     10  C   UNL     1      34.800 -24.025 -14.480  0.00  0.00    +0.033 C 
ATOM     11  C   UNL     1      38.804 -24.824 -13.148  0.00  0.00    +0.325 C 
ATOM     12  C   UNL     1      37.631 -23.339 -11.928  0.00  0.00    +0.325 C 
ATOM     13  C   UNL     1      37.147 -26.644 -13.168  0.00  0.00    +0.014 C 
ATOM     14  C   UNL     1      35.610 -24.698 -11.574  0.00  0.00    +0.014 C 
ENDROOT
TORSDOF 0
ENDMDL
MODEL 5
REMARK VINA RESULT:      -7.2      1.896      3.730
REMARK  Name = 5944
REMARK  0 active torsions:
REMARK  status: ('A' for Active; 'I' for Inactive)
REMARK                            x       y       z     vdW  Elec       q    Type
REMARK                         _______ _______ _______ _____ _____    ______ ____
ROOT
ATOM      1  O   UNL     1      37.944 -23.293 -12.443  0.00  0.00    -0.358 OA
ATOM      2  O   UNL     1      39.223 -24.361 -15.156  0.00  0.00    -0.392 OA
ATOM      3  O   UNL     1      37.891 -22.777 -16.112  0.00  0.00    -0.250 OA
ATOM      4  O   UNL     1      40.077 -26.000 -13.819  0.00  0.00    -0.250 OA
ATOM      5  C   UNL     1      37.012 -24.213 -14.352  0.00  0.00    +0.127 C 
ATOM      6  C   UNL     1      37.756 -25.307 -13.572  0.00  0.00    +0.127 C 
ATOM      7  C   UNL     1      36.747 -23.162 -13.256  0.00  0.00    +0.126 C 
ATOM      8  C   UNL     1      37.803 -24.710 -12.150  0.00  0.00    +0.126 C 
ATOM      9  C   UNL     1      35.694 -23.609 -12.241  0.00  0.00    +0.033 C 
ATOM     10  C   UNL     1      36.437 -24.698 -11.462  0.00  0.00    +0.033 C 
ATOM     11  C   UNL     1      38.054 -23.686 -15.310  0.00  0.00    +0.325 C 
ATOM     12  C   UNL     1      39.144 -25.291 -14.168  0.00  0.00    +0.325 C 
ATOM     13  C   UNL     1      35.787 -24.630 -15.158  0.00  0.00    +0.014 C 
ATOM     14  C   UNL     1      37.213 -26.729 -13.659  0.00  0.00    +0.014 C 
ENDROOT
TORSDOF 0
ENDMDL
MODEL 6
REMARK VINA RESULT:      -7.1      1.387      2.860
REMARK  Name = 5944
REMARK  0 active torsions:
REMARK  status: ('A' for Active; 'I' for Inactive)
REMARK                            x       y       z     vdW  Elec       q    Type
REMARK                         _______ _______ _______ _____ _____    ______ ____
ROOT
ATOM      1  O   UNL     1      37.731 -23.155 -13.418  0.00  0.00    -0.358 OA
ATOM      2  O   UNL     1      36.098 -25.284 -11.704  0.00  0.00    -0.392 OA
ATOM      3  O   UNL     1      37.938 -26.588 -12.039  0.00  0.00    -0.250 OA
ATOM      4  O   UNL     1      34.388 -23.794 -11.939  0.00  0.00    -0.250 OA
ATOM      5  C   UNL     1      37.000 -25.303 -13.882  0.00  0.00    +0.127 C 
ATOM      6  C   UNL     1      35.794 -24.352 -13.847  0.00  0.00    +0.127 C 
ATOM      7  C   UNL     1      38.166 -24.331 -14.153  0.00  0.00    +0.126 C 
ATOM      8  C   UNL     1      36.459 -22.982 -14.102  0.00  0.00    +0.126 C 
ATOM      9  C   UNL     1      38.157 -23.767 -15.574  0.00  0.00    +0.033 C 
ATOM     10  C   UNL     1      36.957 -22.818 -15.538  0.00  0.00    +0.033 C 
ATOM     11  C   UNL     1      37.092 -25.814 -12.464  0.00  0.00    +0.325 C 
ATOM     12  C   UNL     1      35.324 -24.421 -12.413  0.00  0.00    +0.325 C 
ATOM     13  C   UNL     1      36.926 -26.502 -14.820  0.00  0.00    +0.014 C 
ATOM     14  C   UNL     1      34.613 -24.675 -14.756  0.00  0.00    +0.014 C 
ENDROOT
TORSDOF 0
ENDMDL
MODEL 7
REMARK VINA RESULT:      -7.1      1.085      3.200
REMARK  Name = 5944
REMARK  0 active torsions:
REMARK  status: ('A' for Active; 'I' for Inactive)
REMARK                            x       y       z     vdW  Elec       q    Type
REMARK                         _______ _______ _______ _____ _____    ______ ____
ROOT
ATOM      1  O   UNL     1      35.456 -23.271 -13.725  0.00  0.00    -0.358 OA
ATOM      2  O   UNL     1      36.917 -23.589 -10.914  0.00  0.00    -0.392 OA
ATOM      3  O   UNL     1      38.457 -22.187 -11.841  0.00  0.00    -0.250 OA
ATOM      4  O   UNL     1      35.347 -25.205 -10.561  0.00  0.00    -0.250 OA
ATOM      5  C   UNL     1      37.558 -24.043 -13.137  0.00  0.00    +0.127 C 
ATOM      6  C   UNL     1      36.500 -25.068 -12.701  0.00  0.00    +0.127 C 
ATOM      7  C   UNL     1      36.815 -23.264 -14.240  0.00  0.00    +0.126 C 
ATOM      8  C   UNL     1      35.314 -24.714 -13.624  0.00  0.00    +0.126 C 
ATOM      9  C   UNL     1      36.612 -24.083 -15.516  0.00  0.00    +0.033 C 
ATOM     10  C   UNL     1      35.556 -25.102 -15.082  0.00  0.00    +0.033 C 
ATOM     11  C   UNL     1      37.720 -23.159 -11.922  0.00  0.00    +0.325 C 
ATOM     12  C   UNL     1      36.170 -24.662 -11.284  0.00  0.00    +0.325 C 
ATOM     13  C   UNL     1      38.932 -24.572 -13.531  0.00  0.00    +0.014 C 
ATOM     14  C   UNL     1      36.900 -26.539 -12.699  0.00  0.00    +0.014 C 
ENDROOT
TORSDOF 0
ENDMDL
MODEL 8
REMARK VINA RESULT:      -7.0      1.770      3.222
REMARK  Name = 5944
REMARK  0 active torsions:
REMARK  status: ('A' for Active; 'I' for Inactive)
REMARK                            x       y       z     vdW  Elec       q    Type
REMARK                         _______ _______ _______ _____ _____    ______ ____
ROOT
ATOM      1  O   UNL     1      34.985 -25.037 -14.558  0.00  0.00    -0.358 OA
ATOM      2  O   UNL     1      36.988 -26.514 -12.572  0.00  0.00    -0.392 OA
ATOM      3  O   UNL     1      35.941 -25.257 -10.985  0.00  0.00    -0.250 OA
ATOM      4  O   UNL     1      37.951 -27.267 -14.498  0.00  0.00    -0.250 OA
ATOM      5  C   UNL     1      36.603 -24.249 -13.101  0.00  0.00    +0.127 C 
ATOM      6  C   UNL     1      37.284 -24.934 -14.295  0.00  0.00    +0.127 C 
ATOM      7  C   UNL     1      35.215 -23.904 -13.679  0.00  0.00    +0.126 C 
ATOM      8  C   UNL     1      36.179 -24.875 -15.371  0.00  0.00    +0.126 C 
ATOM      9  C   UNL     1      35.263 -22.778 -14.713  0.00  0.00    +0.033 C 
ATOM     10  C   UNL     1      35.940 -23.462 -15.904  0.00  0.00    +0.033 C 
ATOM     11  C   UNL     1      36.461 -25.360 -12.087  0.00  0.00    +0.325 C 
ATOM     12  C   UNL     1      37.461 -26.362 -13.837  0.00  0.00    +0.325 C 
ATOM     13  C   UNL     1      37.336 -23.088 -12.440  0.00  0.00    +0.014 C 
ATOM     14  C   UNL     1      38.643 -24.399 -14.734  0.00  0.00    +0.014 C 
ENDROOT
TORSDOF 0
ENDMDL
MODEL 9
REMARK VINA RESULT:      -7.0      2.109      3.706
REMARK  Name = 5944
REMARK  0 active torsions:
REMARK  status: ('A' for Active; 'I' for Inactive)
REMARK                            x       y       z     vdW  Elec       q    Type
REMARK                         _______ _______ _______ _____ _____    ______ ____
ROOT
ATOM      1  O   UNL     1      38.222 -23.614 -14.228  0.00  0.00    -0.358 OA
ATOM      2  O   UNL     1      36.537 -25.941 -15.599  0.00  0.00    -0.392 OA
ATOM      3  O   UNL     1      34.940 -24.326 -15.795  0.00  0.00    -0.250 OA
ATOM      4  O   UNL     1      38.244 -27.268 -14.874  0.00  0.00    -0.250 OA
ATOM      5  C   UNL     1      36.178 -24.574 -13.713  0.00  0.00    +0.127 C 
ATOM      6  C   UNL     1      37.302 -25.573 -13.401  0.00  0.00    +0.127 C 
ATOM      7  C   UNL     1      36.930 -23.228 -13.686  0.00  0.00    +0.126 C 
ATOM      8  C   UNL     1      38.524 -24.642 -13.245  0.00  0.00    +0.126 C 
ATOM      9  C   UNL     1      37.354 -22.809 -12.277  0.00  0.00    +0.033 C 
ATOM     10  C   UNL     1      38.476 -23.803 -11.968  0.00  0.00    +0.033 C 
ATOM     11  C   UNL     1      35.793 -24.904 -15.136  0.00  0.00    +0.325 C 
ATOM     12  C   UNL     1      37.439 -26.369 -14.678  0.00  0.00    +0.325 C 
ATOM     13  C   UNL     1      34.923 -24.632 -12.850  0.00  0.00    +0.014 C 
ATOM     14  C   UNL     1      37.081 -26.548 -12.249  0.00  0.00    +0.014 C 
ENDROOT
TORSDOF 0
ENDMDL
