MODEL 1
REMARK VINA RESULT:      -5.2      0.000      0.000
REMARK  Name = 644073
REMARK  7 active torsions:
REMARK  status: ('A' for Active; 'I' for Inactive)
REMARK    1  A    between atoms: N_2  and  C_34
REMARK    2  A    between atoms: C_5  and  O_22
REMARK    3  A    between atoms: C_7  and  C_26
REMARK    4  A    between atoms: C_19  and  O_24
REMARK    5  A    between atoms: C_26  and  C_28
REMARK    6  A    between atoms: C_26  and  O_32
REMARK    7  A    between atoms: C_34  and  C_35
REMARK                            x       y       z     vdW  Elec       q    Type
REMARK                         _______ _______ _______ _____ _____    ______ ____
ROOT
ATOM      1  O   UNL     1      34.948  -7.608 -25.074  0.00  0.00    -0.474 OA
ATOM      2  N   UNL     1      31.884  -7.976 -20.752  0.00  0.00    +0.388 N 
ATOM      3  C   UNL     1      31.939  -7.305 -23.130  0.00  0.00    -0.010 C 
ATOM      4  C   UNL     1      33.468  -7.542 -23.130  0.00  0.00    +0.057 C 
ATOM      5  C   UNL     1      33.165  -5.819 -24.918  0.00  0.00    +0.132 C 
ATOM      6  C   UNL     1      34.208  -6.708 -24.187  0.00  0.00    +0.194 C 
ATOM      7  C   UNL     1      32.473  -4.922 -23.837  0.00  0.00    +0.053 C 
ATOM      8  C   UNL     1      31.693  -5.803 -22.816  0.00  0.00    +0.003 C 
ATOM      9  C   UNL     1      31.365  -8.332 -22.093  0.00  0.00    -0.053 C 
ATOM     10  C   UNL     1      31.317  -7.496 -24.558  0.00  0.00    +0.001 C 
ATOM     11  C   UNL     1      32.103  -6.692 -25.606  0.00  0.00    +0.031 C 
ATOM     12  C   UNL     1      34.093  -7.383 -21.728  0.00  0.00    -0.015 C 
ATOM     13  C   UNL     1      33.691  -8.902 -23.664  0.00  0.00    +0.013 C 
ATOM     14  C   UNL     1      31.688  -9.830 -22.503  0.00  0.00    +0.005 C 
ATOM     15  C   UNL     1      33.335  -8.142 -20.632  0.00  0.00    -0.077 C 
ATOM     16  C   UNL     1      32.935 -10.018 -23.342  0.00  0.00    -0.025 C 
ATOM     17  C   UNL     1      34.588  -8.880 -24.706  0.00  0.00    +0.168 C 
ATOM     18  C   UNL     1      33.274 -11.213 -23.975  0.00  0.00    -0.001 C 
ATOM     19  C   UNL     1      34.931 -10.045 -25.355  0.00  0.00    +0.167 C 
ATOM     20  C   UNL     1      34.287 -11.227 -24.958  0.00  0.00    +0.039 C 
ATOM     21  H   UNL     1      31.694  -6.978 -20.658  0.00  0.00    -0.080 HD
ENDROOT
BRANCH   5  22
ATOM     22  O   UNL     1      33.831  -5.011 -25.878  0.00  0.00    -0.352 OA
ATOM     23  C   UNL     1      33.412  -5.317 -27.201  0.00  0.00    +0.174 C 
ENDBRANCH   5  22
BRANCH  19  24
ATOM     24  O   UNL     1      35.823 -10.054 -26.376  0.00  0.00    -0.503 OA
ATOM     25  H   UNL     1      35.562 -10.358 -27.223  0.00  0.00    +0.292 HD
ENDBRANCH  19  24
BRANCH   7  26
ATOM     26  C   UNL     1      31.566  -3.836 -24.424  0.00  0.00    +0.090 C 
ATOM     27  C   UNL     1      30.392  -4.517 -25.152  0.00  0.00    +0.029 C 
BRANCH  26  28
ATOM     28  C   UNL     1      31.099  -2.760 -23.363  0.00  0.00    +0.023 C 
ATOM     29  C   UNL     1      30.448  -3.408 -22.124  0.00  0.00    +0.002 C 
ATOM     30  C   UNL     1      30.069  -1.786 -23.984  0.00  0.00    +0.002 C 
ATOM     31  C   UNL     1      32.290  -1.900 -22.875  0.00  0.00    +0.002 C 
ENDBRANCH  26  28
BRANCH  26  32
ATOM     32  O   UNL     1      32.331  -3.151 -25.434  0.00  0.00    -0.387 OA
ATOM     33  H   UNL     1      32.971  -2.559 -25.008  0.00  0.00    +0.210 HD
ENDBRANCH  26  32
ENDBRANCH   7  26
BRANCH   2  34
ATOM     34  C   UNL     1      31.175  -8.639 -19.662  0.00  0.00    -0.077 C 
BRANCH  34  35
ATOM     35  C   UNL     1      31.952  -9.843 -19.155  0.00  0.00    -0.021 C 
ATOM     36  C   UNL     1      31.256 -10.788 -18.248  0.00  0.00    -0.002 C 
ATOM     37  C   UNL     1      31.567 -11.183 -19.661  0.00  0.00    -0.002 C 
ENDBRANCH  34  35
ENDBRANCH   2  34
TORSDOF 7
ENDMDL
MODEL 2
REMARK VINA RESULT:      -4.2     16.314     19.575
REMARK  Name = 644073
REMARK  7 active torsions:
REMARK  status: ('A' for Active; 'I' for Inactive)
REMARK    1  A    between atoms: N_2  and  C_34
REMARK    2  A    between atoms: C_5  and  O_22
REMARK    3  A    between atoms: C_7  and  C_26
REMARK    4  A    between atoms: C_19  and  O_24
REMARK    5  A    between atoms: C_26  and  C_28
REMARK    6  A    between atoms: C_26  and  O_32
REMARK    7  A    between atoms: C_34  and  C_35
REMARK                            x       y       z     vdW  Elec       q    Type
REMARK                         _______ _______ _______ _____ _____    ______ ____
ROOT
ATOM      1  O   UNL     1      33.820 -25.280 -12.229  0.00  0.00    -0.474 OA
ATOM      2  N   UNL     1      36.008 -23.191 -16.595  0.00  0.00    +0.388 N 
ATOM      3  C   UNL     1      34.158 -22.978 -14.971  0.00  0.00    -0.010 C 
ATOM      4  C   UNL     1      34.599 -24.319 -14.338  0.00  0.00    +0.057 C 
ATOM      5  C   UNL     1      32.154 -24.227 -13.816  0.00  0.00    +0.132 C 
ATOM      6  C   UNL     1      33.454 -25.058 -13.629  0.00  0.00    +0.194 C 
ATOM      7  C   UNL     1      31.903 -24.089 -15.355  0.00  0.00    +0.053 C 
ATOM      8  C   UNL     1      33.061 -23.291 -16.026  0.00  0.00    +0.003 C 
ATOM      9  C   UNL     1      35.477 -22.328 -15.514  0.00  0.00    -0.053 C 
ATOM     10  C   UNL     1      33.427 -22.055 -13.933  0.00  0.00    +0.001 C 
ATOM     11  C   UNL     1      32.318 -22.828 -13.203  0.00  0.00    +0.031 C 
ATOM     12  C   UNL     1      35.342 -25.231 -15.338  0.00  0.00    -0.015 C 
ATOM     13  C   UNL     1      35.454 -23.986 -13.180  0.00  0.00    +0.013 C 
ATOM     14  C   UNL     1      36.530 -22.069 -14.356  0.00  0.00    +0.005 C 
ATOM     15  C   UNL     1      36.445 -24.507 -16.120  0.00  0.00    -0.077 C 
ATOM     16  C   UNL     1      36.423 -22.996 -13.164  0.00  0.00    -0.025 C 
ATOM     17  C   UNL     1      35.007 -24.616 -12.042  0.00  0.00    +0.168 C 
ATOM     18  C   UNL     1      37.107 -22.804 -11.964  0.00  0.00    -0.001 C 
ATOM     19  C   UNL     1      35.659 -24.433 -10.842  0.00  0.00    +0.167 C 
ATOM     20  C   UNL     1      36.741 -23.540 -10.817  0.00  0.00    +0.039 C 
ATOM     21  H   UNL     1      35.213 -23.351 -17.213  0.00  0.00    -0.080 HD
ENDROOT
BRANCH   5  22
ATOM     22  O   UNL     1      31.071 -24.909 -13.199  0.00  0.00    -0.352 OA
ATOM     23  C   UNL     1      30.501 -24.141 -12.149  0.00  0.00    +0.174 C 
ENDBRANCH   5  22
BRANCH  19  24
ATOM     24  O   UNL     1      35.247 -25.052  -9.708  0.00  0.00    -0.503 OA
ATOM     25  H   UNL     1      34.600 -25.729  -9.753  0.00  0.00    +0.292 HD
ENDBRANCH  19  24
BRANCH   7  26
ATOM     26  C   UNL     1      30.544 -23.476 -15.708  0.00  0.00    +0.090 C 
ATOM     27  C   UNL     1      30.731 -22.522 -16.903  0.00  0.00    +0.029 C 
BRANCH  26  28
ATOM     28  C   UNL     1      29.407 -24.549 -15.941  0.00  0.00    +0.023 C 
ATOM     29  C   UNL     1      29.979 -25.940 -16.283  0.00  0.00    +0.002 C 
ATOM     30  C   UNL     1      28.477 -24.122 -17.103  0.00  0.00    +0.002 C 
ATOM     31  C   UNL     1      28.513 -24.701 -14.687  0.00  0.00    +0.002 C 
ENDBRANCH  26  28
BRANCH  26  32
ATOM     32  O   UNL     1      30.151 -22.657 -14.590  0.00  0.00    -0.387 OA
ATOM     33  H   UNL     1      29.193 -22.734 -14.455  0.00  0.00    +0.210 HD
ENDBRANCH  26  32
ENDBRANCH   7  26
BRANCH   2  34
ATOM     34  C   UNL     1      37.038 -22.543 -17.401  0.00  0.00    -0.077 C 
BRANCH  34  35
ATOM     35  C   UNL     1      36.445 -21.444 -18.267  0.00  0.00    -0.021 C 
ATOM     36  C   UNL     1      36.611 -21.551 -19.737  0.00  0.00    -0.002 C 
ATOM     37  C   UNL     1      35.268 -21.777 -19.107  0.00  0.00    -0.002 C 
ENDBRANCH  34  35
ENDBRANCH   2  34
TORSDOF 7
ENDMDL
MODEL 3
REMARK VINA RESULT:      -4.0     15.272     20.088
REMARK  Name = 644073
REMARK  7 active torsions:
REMARK  status: ('A' for Active; 'I' for Inactive)
REMARK    1  A    between atoms: N_2  and  C_34
REMARK    2  A    between atoms: C_5  and  O_22
REMARK    3  A    between atoms: C_7  and  C_26
REMARK    4  A    between atoms: C_19  and  O_24
REMARK    5  A    between atoms: C_26  and  C_28
REMARK    6  A    between atoms: C_26  and  O_32
REMARK    7  A    between atoms: C_34  and  C_35
REMARK                            x       y       z     vdW  Elec       q    Type
REMARK                         _______ _______ _______ _____ _____    ______ ____
ROOT
ATOM      1  O   UNL     1      33.935 -23.576 -12.780  0.00  0.00    -0.474 OA
ATOM      2  N   UNL     1      36.234 -22.368 -17.412  0.00  0.00    +0.388 N 
ATOM      3  C   UNL     1      35.817 -24.179 -15.784  0.00  0.00    -0.010 C 
ATOM      4  C   UNL     1      35.198 -23.134 -14.826  0.00  0.00    +0.057 C 
ATOM      5  C   UNL     1      36.035 -24.901 -13.266  0.00  0.00    +0.132 C 
ATOM      6  C   UNL     1      35.284 -23.543 -13.348  0.00  0.00    +0.194 C 
ATOM      7  C   UNL     1      37.450 -24.693 -13.905  0.00  0.00    +0.053 C 
ATOM      8  C   UNL     1      37.319 -24.330 -15.414  0.00  0.00    +0.003 C 
ATOM      9  C   UNL     1      35.509 -23.646 -17.226  0.00  0.00    -0.053 C 
ATOM     10  C   UNL     1      35.226 -25.614 -15.545  0.00  0.00    +0.001 C 
ATOM     11  C   UNL     1      35.279 -25.982 -14.054  0.00  0.00    +0.031 C 
ATOM     12  C   UNL     1      35.749 -21.711 -15.064  0.00  0.00    -0.015 C 
ATOM     13  C   UNL     1      33.734 -23.181 -15.027  0.00  0.00    +0.013 C 
ATOM     14  C   UNL     1      33.950 -23.516 -17.489  0.00  0.00    +0.005 C 
ATOM     15  C   UNL     1      35.748 -21.296 -16.540  0.00  0.00    -0.077 C 
ATOM     16  C   UNL     1      33.102 -23.281 -16.256  0.00  0.00    -0.025 C 
ATOM     17  C   UNL     1      33.080 -23.358 -13.831  0.00  0.00    +0.168 C 
ATOM     18  C   UNL     1      31.710 -23.349 -16.245  0.00  0.00    -0.001 C 
ATOM     19  C   UNL     1      31.705 -23.439 -13.794  0.00  0.00    +0.167 C 
ATOM     20  C   UNL     1      31.016 -23.401 -15.017  0.00  0.00    +0.039 C 
ATOM     21  H   UNL     1      37.192 -22.569 -17.125  0.00  0.00    -0.080 HD
ENDROOT
BRANCH   5  22
ATOM     22  O   UNL     1      36.160 -25.284 -11.904  0.00  0.00    -0.352 OA
ATOM     23  C   UNL     1      36.265 -24.153 -11.050  0.00  0.00    +0.174 C 
ENDBRANCH   5  22
BRANCH  19  24
ATOM     24  O   UNL     1      31.033 -23.600 -12.627  0.00  0.00    -0.503 OA
ATOM     25  H   UNL     1      30.575 -24.400 -12.457  0.00  0.00    +0.292 HD
ENDBRANCH  19  24
BRANCH   7  26
ATOM     26  C   UNL     1      38.396 -25.883 -13.712  0.00  0.00    +0.090 C 
ATOM     27  C   UNL     1      37.836 -27.086 -14.493  0.00  0.00    +0.029 C 
BRANCH  26  28
ATOM     28  C   UNL     1      39.902 -25.558 -14.067  0.00  0.00    +0.023 C 
ATOM     29  C   UNL     1      40.841 -26.743 -13.767  0.00  0.00    +0.002 C 
ATOM     30  C   UNL     1      40.407 -24.337 -13.260  0.00  0.00    +0.002 C 
ATOM     31  C   UNL     1      40.060 -25.198 -15.564  0.00  0.00    +0.002 C 
ENDBRANCH  26  28
BRANCH  26  32
ATOM     32  O   UNL     1      38.343 -26.240 -12.318  0.00  0.00    -0.387 OA
ATOM     33  H   UNL     1      39.130 -26.757 -12.087  0.00  0.00    +0.210 HD
ENDBRANCH  26  32
ENDBRANCH   7  26
BRANCH   2  34
ATOM     34  C   UNL     1      36.301 -21.938 -18.806  0.00  0.00    -0.077 C 
BRANCH  34  35
ATOM     35  C   UNL     1      35.277 -20.853 -19.095  0.00  0.00    -0.021 C 
ATOM     36  C   UNL     1      35.186 -20.333 -20.481  0.00  0.00    -0.002 C 
ATOM     37  C   UNL     1      34.101 -21.210 -19.927  0.00  0.00    -0.002 C 
ENDBRANCH  34  35
ENDBRANCH   2  34
TORSDOF 7
ENDMDL
