MODEL 1
REMARK VINA RESULT:      -9.0      0.000      0.000
REMARK  Name = 125516
REMARK  9 active torsions:
REMARK  status: ('A' for Active; 'I' for Inactive)
REMARK    1  A    between atoms: C_1  and  C_2
REMARK    2  A    between atoms: C_1  and  C_14
REMARK    3  A    between atoms: C_2  and  C_9
REMARK    4  A    between atoms: C_5  and  C_11
REMARK    5  A    between atoms: C_11  and  O_12
REMARK    6  A    between atoms: C_14  and  C_15
REMARK    7  A    between atoms: C_15  and  C_22
REMARK    8  A    between atoms: C_18  and  C_24
REMARK    9  A    between atoms: C_24  and  O_25
REMARK                            x       y       z     vdW  Elec       q    Type
REMARK                         _______ _______ _______ _____ _____    ______ ____
ROOT
ATOM      1  C   UNL     1      36.756 -21.462 -17.978  0.00  0.00    +0.010 C 
ENDROOT
BRANCH   1   2
ATOM      2  C   UNL     1      36.512 -21.689 -19.467  0.00  0.00    +0.085 C 
BRANCH   2   9
ATOM      3  O   UNL     1      37.424 -19.736 -20.478  0.00  0.00    -0.275 OA
ATOM      4  N   UNL     1      35.123 -19.980 -20.538  0.00  0.00    -0.271 N 
ATOM      5  C   UNL     1      34.831 -18.671 -21.105  0.00  0.00    +0.174 C 
ATOM      6  C   UNL     1      33.334 -18.478 -20.885  0.00  0.00    +0.033 C 
ATOM      7  C   UNL     1      32.788 -19.904 -20.898  0.00  0.00    +0.024 C 
ATOM      8  C   UNL     1      33.893 -20.708 -20.233  0.00  0.00    +0.094 C 
ATOM      9  C   UNL     1      36.408 -20.377 -20.204  0.00  0.00    +0.226 C 
BRANCH   5  11
ATOM     10  O   UNL     1      34.513 -19.306 -23.416  0.00  0.00    -0.248 OA
ATOM     11  C   UNL     1      35.175 -18.733 -22.563  0.00  0.00    +0.332 C 
BRANCH  11  12
ATOM     12  O   UNL     1      36.329 -18.068 -22.812  0.00  0.00    -0.479 OA
ATOM     13  H   UNL     1      36.857 -18.307 -23.549  0.00  0.00    +0.295 HD
ENDBRANCH  11  12
ENDBRANCH   5  11
ENDBRANCH   2   9
ENDBRANCH   1   2
BRANCH   1  14
ATOM     14  C   UNL     1      35.716 -22.169 -17.099  0.00  0.00    +0.010 C 
BRANCH  14  15
ATOM     15  C   UNL     1      36.254 -22.516 -15.720  0.00  0.00    +0.085 C 
BRANCH  15  22
ATOM     16  O   UNL     1      35.231 -24.635 -16.079  0.00  0.00    -0.275 OA
ATOM     17  N   UNL     1      36.815 -24.498 -14.396  0.00  0.00    -0.271 N 
ATOM     18  C   UNL     1      36.622 -25.844 -13.875  0.00  0.00    +0.174 C 
ATOM     19  C   UNL     1      37.313 -25.838 -12.517  0.00  0.00    +0.033 C 
ATOM     20  C   UNL     1      38.420 -24.801 -12.688  0.00  0.00    +0.024 C 
ATOM     21  C   UNL     1      37.785 -23.757 -13.595  0.00  0.00    +0.094 C 
ATOM     22  C   UNL     1      36.041 -23.978 -15.422  0.00  0.00    +0.226 C 
BRANCH  18  24
ATOM     23  O   UNL     1      38.437 -27.185 -14.743  0.00  0.00    -0.248 OA
ATOM     24  C   UNL     1      37.285 -26.788 -14.834  0.00  0.00    +0.332 C 
BRANCH  24  25
ATOM     25  O   UNL     1      36.430 -27.145 -15.823  0.00  0.00    -0.479 OA
ATOM     26  H   UNL     1      35.505 -27.093 -15.685  0.00  0.00    +0.295 HD
ENDBRANCH  24  25
ENDBRANCH  18  24
ENDBRANCH  15  22
ENDBRANCH  14  15
ENDBRANCH   1  14
TORSDOF 9
ENDMDL
MODEL 2
REMARK VINA RESULT:      -8.9      0.040      9.180
REMARK  Name = 125516
REMARK  9 active torsions:
REMARK  status: ('A' for Active; 'I' for Inactive)
REMARK    1  A    between atoms: C_1  and  C_2
REMARK    2  A    between atoms: C_1  and  C_14
REMARK    3  A    between atoms: C_2  and  C_9
REMARK    4  A    between atoms: C_5  and  C_11
REMARK    5  A    between atoms: C_11  and  O_12
REMARK    6  A    between atoms: C_14  and  C_15
REMARK    7  A    between atoms: C_15  and  C_22
REMARK    8  A    between atoms: C_18  and  C_24
REMARK    9  A    between atoms: C_24  and  O_25
REMARK                            x       y       z     vdW  Elec       q    Type
REMARK                         _______ _______ _______ _____ _____    ______ ____
ROOT
ATOM      1  C   UNL     1      35.730 -22.094 -17.058  0.00  0.00    +0.010 C 
ENDROOT
BRANCH   1   2
ATOM      2  C   UNL     1      36.293 -22.486 -15.696  0.00  0.00    +0.085 C 
BRANCH   2   9
ATOM      3  O   UNL     1      35.250 -24.591 -16.084  0.00  0.00    -0.275 OA
ATOM      4  N   UNL     1      36.835 -24.491 -14.400  0.00  0.00    -0.271 N 
ATOM      5  C   UNL     1      36.630 -25.843 -13.896  0.00  0.00    +0.174 C 
ATOM      6  C   UNL     1      37.321 -25.860 -12.538  0.00  0.00    +0.033 C 
ATOM      7  C   UNL     1      38.438 -24.831 -12.696  0.00  0.00    +0.024 C 
ATOM      8  C   UNL     1      37.812 -23.770 -13.587  0.00  0.00    +0.094 C 
ATOM      9  C   UNL     1      36.067 -23.951 -15.419  0.00  0.00    +0.226 C 
BRANCH   5  11
ATOM     10  O   UNL     1      38.449 -27.146 -14.809  0.00  0.00    -0.248 OA
ATOM     11  C   UNL     1      37.285 -26.780 -14.866  0.00  0.00    +0.332 C 
BRANCH  11  12
ATOM     12  O   UNL     1      36.409 -27.167 -15.825  0.00  0.00    -0.479 OA
ATOM     13  H   UNL     1      35.489 -27.035 -15.700  0.00  0.00    +0.295 HD
ENDBRANCH  11  12
ENDBRANCH   5  11
ENDBRANCH   2   9
ENDBRANCH   1   2
BRANCH   1  14
ATOM     14  C   UNL     1      36.785 -21.449 -17.966  0.00  0.00    +0.010 C 
BRANCH  14  15
ATOM     15  C   UNL     1      36.511 -21.688 -19.443  0.00  0.00    +0.085 C 
BRANCH  15  22
ATOM     16  O   UNL     1      37.410 -19.722 -20.441  0.00  0.00    -0.275 OA
ATOM     17  N   UNL     1      35.113 -19.995 -20.526  0.00  0.00    -0.271 N 
ATOM     18  C   UNL     1      34.811 -18.688 -21.094  0.00  0.00    +0.174 C 
ATOM     19  C   UNL     1      33.310 -18.513 -20.889  0.00  0.00    +0.033 C 
ATOM     20  C   UNL     1      32.781 -19.945 -20.910  0.00  0.00    +0.024 C 
ATOM     21  C   UNL     1      33.890 -20.738 -20.234  0.00  0.00    +0.094 C 
ATOM     22  C   UNL     1      36.399 -20.376 -20.178  0.00  0.00    +0.226 C 
BRANCH  18  24
ATOM     23  O   UNL     1      34.515 -19.305 -23.413  0.00  0.00    -0.248 OA
ATOM     24  C   UNL     1      35.172 -18.744 -22.548  0.00  0.00    +0.332 C 
BRANCH  24  25
ATOM     25  O   UNL     1      36.334 -18.086 -22.779  0.00  0.00    -0.479 OA
ATOM     26  H   UNL     1      36.771 -18.183 -23.602  0.00  0.00    +0.295 HD
ENDBRANCH  24  25
ENDBRANCH  18  24
ENDBRANCH  15  22
ENDBRANCH  14  15
ENDBRANCH   1  14
TORSDOF 9
ENDMDL
MODEL 3
REMARK VINA RESULT:      -8.7      2.311      9.657
REMARK  Name = 125516
REMARK  9 active torsions:
REMARK  status: ('A' for Active; 'I' for Inactive)
REMARK    1  A    between atoms: C_1  and  C_2
REMARK    2  A    between atoms: C_1  and  C_14
REMARK    3  A    between atoms: C_2  and  C_9
REMARK    4  A    between atoms: C_5  and  C_11
REMARK    5  A    between atoms: C_11  and  O_12
REMARK    6  A    between atoms: C_14  and  C_15
REMARK    7  A    between atoms: C_15  and  C_22
REMARK    8  A    between atoms: C_18  and  C_24
REMARK    9  A    between atoms: C_24  and  O_25
REMARK                            x       y       z     vdW  Elec       q    Type
REMARK                         _______ _______ _______ _____ _____    ______ ____
ROOT
ATOM      1  C   UNL     1      33.297 -21.367 -19.458  0.00  0.00    +0.010 C 
ENDROOT
BRANCH   1   2
ATOM      2  C   UNL     1      34.017 -22.679 -19.162  0.00  0.00    +0.085 C 
BRANCH   2   9
ATOM      3  O   UNL     1      32.872 -23.476 -17.232  0.00  0.00    -0.275 OA
ATOM      4  N   UNL     1      35.075 -22.821 -16.958  0.00  0.00    -0.271 N 
ATOM      5  C   UNL     1      35.110 -22.953 -15.508  0.00  0.00    +0.174 C 
ATOM      6  C   UNL     1      36.372 -22.212 -15.080  0.00  0.00    +0.033 C 
ATOM      7  C   UNL     1      37.294 -22.359 -16.288  0.00  0.00    +0.024 C 
ATOM      8  C   UNL     1      36.338 -22.293 -17.468  0.00  0.00    +0.094 C 
ATOM      9  C   UNL     1      33.922 -23.029 -17.698  0.00  0.00    +0.226 C 
BRANCH   5  11
ATOM     10  O   UNL     1      36.102 -25.157 -15.549  0.00  0.00    -0.248 OA
ATOM     11  C   UNL     1      35.194 -24.418 -15.199  0.00  0.00    +0.332 C 
BRANCH  11  12
ATOM     12  O   UNL     1      34.118 -24.819 -14.479  0.00  0.00    -0.479 OA
ATOM     13  H   UNL     1      33.846 -24.326 -13.730  0.00  0.00    +0.295 HD
ENDBRANCH  11  12
ENDBRANCH   5  11
ENDBRANCH   2   9
ENDBRANCH   1   2
BRANCH   1  14
ATOM     14  C   UNL     1      34.194 -20.357 -20.185  0.00  0.00    +0.010 C 
BRANCH  14  15
ATOM     15  C   UNL     1      33.397 -19.330 -20.975  0.00  0.00    +0.085 C 
BRANCH  15  22
ATOM     16  O   UNL     1      35.355 -18.601 -22.118  0.00  0.00    -0.275 OA
ATOM     17  N   UNL     1      33.890 -16.966 -21.382  0.00  0.00    -0.271 N 
ATOM     18  C   UNL     1      34.726 -15.825 -21.728  0.00  0.00    +0.174 C 
ATOM     19  C   UNL     1      34.103 -14.648 -20.986  0.00  0.00    +0.033 C 
ATOM     20  C   UNL     1      32.627 -15.028 -20.895  0.00  0.00    +0.024 C 
ATOM     21  C   UNL     1      32.665 -16.538 -20.711  0.00  0.00    +0.094 C 
ATOM     22  C   UNL     1      34.313 -18.276 -21.544  0.00  0.00    +0.226 C 
BRANCH  18  24
ATOM     23  O   UNL     1      33.692 -15.173 -23.814  0.00  0.00    -0.248 OA
ATOM     24  C   UNL     1      34.644 -15.652 -23.215  0.00  0.00    +0.332 C 
BRANCH  24  25
ATOM     25  O   UNL     1      35.775 -16.101 -23.813  0.00  0.00    -0.479 OA
ATOM     26  H   UNL     1      36.380 -16.631 -23.332  0.00  0.00    +0.295 HD
ENDBRANCH  24  25
ENDBRANCH  18  24
ENDBRANCH  15  22
ENDBRANCH  14  15
ENDBRANCH   1  14
TORSDOF 9
ENDMDL
MODEL 4
REMARK VINA RESULT:      -8.7      1.572      2.080
REMARK  Name = 125516
REMARK  9 active torsions:
REMARK  status: ('A' for Active; 'I' for Inactive)
REMARK    1  A    between atoms: C_1  and  C_2
REMARK    2  A    between atoms: C_1  and  C_14
REMARK    3  A    between atoms: C_2  and  C_9
REMARK    4  A    between atoms: C_5  and  C_11
REMARK    5  A    between atoms: C_11  and  O_12
REMARK    6  A    between atoms: C_14  and  C_15
REMARK    7  A    between atoms: C_15  and  C_22
REMARK    8  A    between atoms: C_18  and  C_24
REMARK    9  A    between atoms: C_24  and  O_25
REMARK                            x       y       z     vdW  Elec       q    Type
REMARK                         _______ _______ _______ _____ _____    ______ ____
ROOT
ATOM      1  C   UNL     1      36.799 -21.145 -17.440  0.00  0.00    +0.010 C 
ENDROOT
BRANCH   1   2
ATOM      2  C   UNL     1      36.951 -21.651 -18.871  0.00  0.00    +0.085 C 
BRANCH   2   9
ATOM      3  O   UNL     1      34.816 -22.530 -19.449  0.00  0.00    -0.275 OA
ATOM      4  N   UNL     1      35.422 -20.513 -20.408  0.00  0.00    -0.271 N 
ATOM      5  C   UNL     1      34.277 -20.402 -21.302  0.00  0.00    +0.174 C 
ATOM      6  C   UNL     1      34.667 -19.316 -22.299  0.00  0.00    +0.033 C 
ATOM      7  C   UNL     1      35.614 -18.425 -21.500  0.00  0.00    +0.024 C 
ATOM      8  C   UNL     1      36.360 -19.411 -20.615  0.00  0.00    +0.094 C 
ATOM      9  C   UNL     1      35.631 -21.618 -19.599  0.00  0.00    +0.226 C 
BRANCH   5  11
ATOM     10  O   UNL     1      32.571 -18.892 -20.494  0.00  0.00    -0.248 OA
ATOM     11  C   UNL     1      33.102 -19.992 -20.466  0.00  0.00    +0.332 C 
BRANCH  11  12
ATOM     12  O   UNL     1      32.705 -21.011 -19.665  0.00  0.00    -0.479 OA
ATOM     13  H   UNL     1      32.157 -21.690 -20.008  0.00  0.00    +0.295 HD
ENDBRANCH  11  12
ENDBRANCH   5  11
ENDBRANCH   2   9
ENDBRANCH   1   2
BRANCH   1  14
ATOM     14  C   UNL     1      37.279 -22.169 -16.403  0.00  0.00    +0.010 C 
BRANCH  14  15
ATOM     15  C   UNL     1      36.202 -22.524 -15.389  0.00  0.00    +0.085 C 
BRANCH  15  22
ATOM     16  O   UNL     1      35.352 -24.652 -16.033  0.00  0.00    -0.275 OA
ATOM     17  N   UNL     1      36.814 -24.597 -14.240  0.00  0.00    -0.271 N 
ATOM     18  C   UNL     1      36.682 -26.001 -13.874  0.00  0.00    +0.174 C 
ATOM     19  C   UNL     1      37.285 -26.097 -12.477  0.00  0.00    +0.033 C 
ATOM     20  C   UNL     1      38.327 -24.981 -12.464  0.00  0.00    +0.024 C 
ATOM     21  C   UNL     1      37.679 -23.887 -13.301  0.00  0.00    +0.094 C 
ATOM     22  C   UNL     1      36.073 -24.020 -15.258  0.00  0.00    +0.226 C 
BRANCH  18  24
ATOM     23  O   UNL     1      38.658 -27.056 -14.785  0.00  0.00    -0.248 OA
ATOM     24  C   UNL     1      37.467 -26.794 -14.875  0.00  0.00    +0.332 C 
BRANCH  24  25
ATOM     25  O   UNL     1      36.676 -27.185 -15.904  0.00  0.00    -0.479 OA
ATOM     26  H   UNL     1      37.026 -27.234 -16.772  0.00  0.00    +0.295 HD
ENDBRANCH  24  25
ENDBRANCH  18  24
ENDBRANCH  15  22
ENDBRANCH  14  15
ENDBRANCH   1  14
TORSDOF 9
ENDMDL
MODEL 5
REMARK VINA RESULT:      -8.7      7.191     11.216
REMARK  Name = 125516
REMARK  9 active torsions:
REMARK  status: ('A' for Active; 'I' for Inactive)
REMARK    1  A    between atoms: C_1  and  C_2
REMARK    2  A    between atoms: C_1  and  C_14
REMARK    3  A    between atoms: C_2  and  C_9
REMARK    4  A    between atoms: C_5  and  C_11
REMARK    5  A    between atoms: C_11  and  O_12
REMARK    6  A    between atoms: C_14  and  C_15
REMARK    7  A    between atoms: C_15  and  C_22
REMARK    8  A    between atoms: C_18  and  C_24
REMARK    9  A    between atoms: C_24  and  O_25
REMARK                            x       y       z     vdW  Elec       q    Type
REMARK                         _______ _______ _______ _____ _____    ______ ____
ROOT
ATOM      1  C   UNL     1      32.167 -13.061 -21.101  0.00  0.00    +0.010 C 
ENDROOT
BRANCH   1   2
ATOM      2  C   UNL     1      31.843 -11.975 -22.122  0.00  0.00    +0.085 C 
BRANCH   2   9
ATOM      3  O   UNL     1      30.680 -10.654 -20.518  0.00  0.00    -0.275 OA
ATOM      4  N   UNL     1      32.168  -9.557 -21.912  0.00  0.00    -0.271 N 
ATOM      5  C   UNL     1      31.839  -8.206 -21.476  0.00  0.00    +0.174 C 
ATOM      6  C   UNL     1      32.448  -7.297 -22.539  0.00  0.00    +0.033 C 
ATOM      7  C   UNL     1      33.641  -8.101 -23.050  0.00  0.00    +0.024 C 
ATOM      8  C   UNL     1      33.144  -9.537 -22.999  0.00  0.00    +0.094 C 
ATOM      9  C   UNL     1      31.500 -10.675 -21.438  0.00  0.00    +0.226 C 
BRANCH   5  11
ATOM     10  O   UNL     1      32.772  -6.920 -19.654  0.00  0.00    -0.248 OA
ATOM     11  C   UNL     1      32.483  -8.005 -20.137  0.00  0.00    +0.332 C 
BRANCH  11  12
ATOM     12  O   UNL     1      32.708  -9.195 -19.529  0.00  0.00    -0.479 OA
ATOM     13  H   UNL     1      32.169  -9.463 -18.811  0.00  0.00    +0.295 HD
ENDBRANCH  11  12
ENDBRANCH   5  11
ENDBRANCH   2   9
ENDBRANCH   1   2
BRANCH   1  14
ATOM     14  C   UNL     1      32.510 -14.402 -21.761  0.00  0.00    +0.010 C 
BRANCH  14  15
ATOM     15  C   UNL     1      33.976 -14.502 -22.157  0.00  0.00    +0.085 C 
BRANCH  15  22
ATOM     16  O   UNL     1      34.896 -15.669 -20.298  0.00  0.00    -0.275 OA
ATOM     17  N   UNL     1      34.854 -16.781 -22.328  0.00  0.00    -0.271 N 
ATOM     18  C   UNL     1      35.610 -17.948 -21.894  0.00  0.00    +0.174 C 
ATOM     19  C   UNL     1      36.019 -18.647 -23.185  0.00  0.00    +0.033 C 
ATOM     20  C   UNL     1      34.902 -18.276 -24.158  0.00  0.00    +0.024 C 
ATOM     21  C   UNL     1      34.544 -16.854 -23.753  0.00  0.00    +0.094 C 
ATOM     22  C   UNL     1      34.620 -15.695 -21.499  0.00  0.00    +0.226 C 
BRANCH  18  24
ATOM     23  O   UNL     1      33.466 -18.695 -21.062  0.00  0.00    -0.248 OA
ATOM     24  C   UNL     1      34.685 -18.794 -21.071  0.00  0.00    +0.332 C 
BRANCH  24  25
ATOM     25  O   UNL     1      35.384 -19.689 -20.331  0.00  0.00    -0.479 OA
ATOM     26  H   UNL     1      36.320 -19.651 -20.313  0.00  0.00    +0.295 HD
ENDBRANCH  24  25
ENDBRANCH  18  24
ENDBRANCH  15  22
ENDBRANCH  14  15
ENDBRANCH   1  14
TORSDOF 9
ENDMDL
MODEL 6
REMARK VINA RESULT:      -8.7      7.184     13.140
REMARK  Name = 125516
REMARK  9 active torsions:
REMARK  status: ('A' for Active; 'I' for Inactive)
REMARK    1  A    between atoms: C_1  and  C_2
REMARK    2  A    between atoms: C_1  and  C_14
REMARK    3  A    between atoms: C_2  and  C_9
REMARK    4  A    between atoms: C_5  and  C_11
REMARK    5  A    between atoms: C_11  and  O_12
REMARK    6  A    between atoms: C_14  and  C_15
REMARK    7  A    between atoms: C_15  and  C_22
REMARK    8  A    between atoms: C_18  and  C_24
REMARK    9  A    between atoms: C_24  and  O_25
REMARK                            x       y       z     vdW  Elec       q    Type
REMARK                         _______ _______ _______ _____ _____    ______ ____
ROOT
ATOM      1  C   UNL     1      32.524 -14.420 -21.788  0.00  0.00    +0.010 C 
ENDROOT
BRANCH   1   2
ATOM      2  C   UNL     1      34.011 -14.504 -22.118  0.00  0.00    +0.085 C 
BRANCH   2   9
ATOM      3  O   UNL     1      34.913 -15.692 -20.262  0.00  0.00    -0.275 OA
ATOM      4  N   UNL     1      34.873 -16.788 -22.301  0.00  0.00    -0.271 N 
ATOM      5  C   UNL     1      35.619 -17.964 -21.873  0.00  0.00    +0.174 C 
ATOM      6  C   UNL     1      36.028 -18.656 -23.169  0.00  0.00    +0.033 C 
ATOM      7  C   UNL     1      34.918 -18.269 -24.143  0.00  0.00    +0.024 C 
ATOM      8  C   UNL     1      34.570 -16.848 -23.729  0.00  0.00    +0.094 C 
ATOM      9  C   UNL     1      34.643 -15.707 -21.465  0.00  0.00    +0.226 C 
BRANCH   5  11
ATOM     10  O   UNL     1      33.466 -18.697 -21.052  0.00  0.00    -0.248 OA
ATOM     11  C   UNL     1      34.683 -18.810 -21.062  0.00  0.00    +0.332 C 
BRANCH  11  12
ATOM     12  O   UNL     1      35.371 -19.721 -20.333  0.00  0.00    -0.479 OA
ATOM     13  H   UNL     1      34.985 -20.552 -20.137  0.00  0.00    +0.295 HD
ENDBRANCH  11  12
ENDBRANCH   5  11
ENDBRANCH   2   9
ENDBRANCH   1   2
BRANCH   1  14
ATOM     14  C   UNL     1      32.142 -13.084 -21.138  0.00  0.00    +0.010 C 
BRANCH  14  15
ATOM     15  C   UNL     1      31.907 -11.982 -22.160  0.00  0.00    +0.085 C 
BRANCH  15  22
ATOM     16  O   UNL     1      30.722 -10.688 -20.550  0.00  0.00    -0.275 OA
ATOM     17  N   UNL     1      32.194  -9.561 -21.937  0.00  0.00    -0.271 N 
ATOM     18  C   UNL     1      31.845  -8.218 -21.494  0.00  0.00    +0.174 C 
ATOM     19  C   UNL     1      32.441  -7.294 -22.550  0.00  0.00    +0.033 C 
ATOM     20  C   UNL     1      33.646  -8.076 -23.066  0.00  0.00    +0.024 C 
ATOM     21  C   UNL     1      33.171  -9.521 -23.022  0.00  0.00    +0.094 C 
ATOM     22  C   UNL     1      31.543 -10.692 -21.471  0.00  0.00    +0.226 C 
BRANCH  18  24
ATOM     23  O   UNL     1      32.780  -6.930 -19.673  0.00  0.00    -0.248 OA
ATOM     24  C   UNL     1      32.484  -8.015 -20.152  0.00  0.00    +0.332 C 
BRANCH  24  25
ATOM     25  O   UNL     1      32.692  -9.204 -19.536  0.00  0.00    -0.479 OA
ATOM     26  H   UNL     1      32.612 -10.003 -20.020  0.00  0.00    +0.295 HD
ENDBRANCH  24  25
ENDBRANCH  18  24
ENDBRANCH  15  22
ENDBRANCH  14  15
ENDBRANCH   1  14
TORSDOF 9
ENDMDL
MODEL 7
REMARK VINA RESULT:      -8.6      1.403      9.197
REMARK  Name = 125516
REMARK  9 active torsions:
REMARK  status: ('A' for Active; 'I' for Inactive)
REMARK    1  A    between atoms: C_1  and  C_2
REMARK    2  A    between atoms: C_1  and  C_14
REMARK    3  A    between atoms: C_2  and  C_9
REMARK    4  A    between atoms: C_5  and  C_11
REMARK    5  A    between atoms: C_11  and  O_12
REMARK    6  A    between atoms: C_14  and  C_15
REMARK    7  A    between atoms: C_15  and  C_22
REMARK    8  A    between atoms: C_18  and  C_24
REMARK    9  A    between atoms: C_24  and  O_25
REMARK                            x       y       z     vdW  Elec       q    Type
REMARK                         _______ _______ _______ _____ _____    ______ ____
ROOT
ATOM      1  C   UNL     1      37.111 -22.040 -16.751  0.00  0.00    +0.010 C 
ENDROOT
BRANCH   1   2
ATOM      2  C   UNL     1      36.555 -22.391 -15.375  0.00  0.00    +0.085 C 
BRANCH   2   9
ATOM      3  O   UNL     1      35.538 -24.437 -16.044  0.00  0.00    -0.275 OA
ATOM      4  N   UNL     1      36.978 -24.516 -14.233  0.00  0.00    -0.271 N 
ATOM      5  C   UNL     1      36.724 -25.906 -13.879  0.00  0.00    +0.174 C 
ATOM      6  C   UNL     1      37.301 -26.060 -12.476  0.00  0.00    +0.033 C 
ATOM      7  C   UNL     1      38.432 -25.035 -12.443  0.00  0.00    +0.024 C 
ATOM      8  C   UNL     1      37.887 -23.887 -13.279  0.00  0.00    +0.094 C 
ATOM      9  C   UNL     1      36.300 -23.873 -15.257  0.00  0.00    +0.226 C 
BRANCH   5  11
ATOM     10  O   UNL     1      38.641 -27.040 -14.821  0.00  0.00    -0.248 OA
ATOM     11  C   UNL     1      37.453 -26.756 -14.876  0.00  0.00    +0.332 C 
BRANCH  11  12
ATOM     12  O   UNL     1      36.615 -27.170 -15.857  0.00  0.00    -0.479 OA
ATOM     13  H   UNL     1      36.435 -28.084 -15.964  0.00  0.00    +0.295 HD
ENDBRANCH  11  12
ENDBRANCH   5  11
ENDBRANCH   2   9
ENDBRANCH   1   2
BRANCH   1  14
ATOM     14  C   UNL     1      36.025 -22.016 -17.834  0.00  0.00    +0.010 C 
BRANCH  14  15
ATOM     15  C   UNL     1      36.471 -21.289 -19.094  0.00  0.00    +0.085 C 
BRANCH  15  22
ATOM     16  O   UNL     1      34.191 -21.462 -19.758  0.00  0.00    -0.275 OA
ATOM     17  N   UNL     1      35.501 -19.909 -20.868  0.00  0.00    -0.271 N 
ATOM     18  C   UNL     1      34.506 -19.532 -21.863  0.00  0.00    +0.174 C 
ATOM     19  C   UNL     1      35.291 -18.780 -22.931  0.00  0.00    +0.033 C 
ATOM     20  C   UNL     1      36.451 -18.166 -22.152  0.00  0.00    +0.024 C 
ATOM     21  C   UNL     1      36.769 -19.225 -21.106  0.00  0.00    +0.094 C 
ATOM     22  C   UNL     1      35.278 -20.906 -19.932  0.00  0.00    +0.226 C 
BRANCH  18  24
ATOM     23  O   UNL     1      33.600 -17.432 -21.078  0.00  0.00    -0.248 OA
ATOM     24  C   UNL     1      33.508 -18.647 -21.177  0.00  0.00    +0.332 C 
BRANCH  24  25
ATOM     25  O   UNL     1      32.483 -19.379 -20.677  0.00  0.00    -0.479 OA
ATOM     26  H   UNL     1      31.957 -19.902 -21.249  0.00  0.00    +0.295 HD
ENDBRANCH  24  25
ENDBRANCH  18  24
ENDBRANCH  15  22
ENDBRANCH  14  15
ENDBRANCH   1  14
TORSDOF 9
ENDMDL
MODEL 8
REMARK VINA RESULT:      -8.4      3.977      5.681
REMARK  Name = 125516
REMARK  9 active torsions:
REMARK  status: ('A' for Active; 'I' for Inactive)
REMARK    1  A    between atoms: C_1  and  C_2
REMARK    2  A    between atoms: C_1  and  C_14
REMARK    3  A    between atoms: C_2  and  C_9
REMARK    4  A    between atoms: C_5  and  C_11
REMARK    5  A    between atoms: C_11  and  O_12
REMARK    6  A    between atoms: C_14  and  C_15
REMARK    7  A    between atoms: C_15  and  C_22
REMARK    8  A    between atoms: C_18  and  C_24
REMARK    9  A    between atoms: C_24  and  O_25
REMARK                            x       y       z     vdW  Elec       q    Type
REMARK                         _______ _______ _______ _____ _____    ______ ____
ROOT
ATOM      1  C   UNL     1      34.497 -22.673 -17.608  0.00  0.00    +0.010 C 
ENDROOT
BRANCH   1   2
ATOM      2  C   UNL     1      33.392 -23.678 -17.295  0.00  0.00    +0.085 C 
BRANCH   2   9
ATOM      3  O   UNL     1      31.717 -22.038 -17.714  0.00  0.00    -0.275 OA
ATOM      4  N   UNL     1      31.374 -23.466 -15.925  0.00  0.00    -0.271 N 
ATOM      5  C   UNL     1      30.181 -22.806 -15.411  0.00  0.00    +0.174 C 
ATOM      6  C   UNL     1      29.999 -23.372 -14.007  0.00  0.00    +0.033 C 
ATOM      7  C   UNL     1      30.609 -24.768 -14.106  0.00  0.00    +0.024 C 
ATOM      8  C   UNL     1      31.777 -24.572 -15.060  0.00  0.00    +0.094 C 
ATOM      9  C   UNL     1      32.089 -22.976 -17.006  0.00  0.00    +0.226 C 
BRANCH   5  11
ATOM     10  O   UNL     1      28.543 -24.294 -16.384  0.00  0.00    -0.248 OA
ATOM     11  C   UNL     1      29.045 -23.182 -16.314  0.00  0.00    +0.332 C 
BRANCH  11  12
ATOM     12  O   UNL     1      28.646 -22.118 -17.052  0.00  0.00    -0.479 OA
ATOM     13  H   UNL     1      28.643 -22.172 -17.988  0.00  0.00    +0.295 HD
ENDBRANCH  11  12
ENDBRANCH   5  11
ENDBRANCH   2   9
ENDBRANCH   1   2
BRANCH   1  14
ATOM     14  C   UNL     1      35.621 -22.694 -16.564  0.00  0.00    +0.010 C 
BRANCH  14  15
ATOM     15  C   UNL     1      35.210 -23.388 -15.275  0.00  0.00    +0.085 C 
BRANCH  15  22
ATOM     16  O   UNL     1      36.082 -25.549 -15.762  0.00  0.00    -0.275 OA
ATOM     17  N   UNL     1      36.915 -24.471 -13.891  0.00  0.00    -0.271 N 
ATOM     18  C   UNL     1      37.715 -25.585 -13.400  0.00  0.00    +0.174 C 
ATOM     19  C   UNL     1      38.062 -25.209 -11.964  0.00  0.00    +0.033 C 
ATOM     20  C   UNL     1      38.080 -23.683 -11.991  0.00  0.00    +0.024 C 
ATOM     21  C   UNL     1      36.968 -23.338 -12.972  0.00  0.00    +0.094 C 
ATOM     22  C   UNL     1      36.100 -24.575 -15.007  0.00  0.00    +0.226 C 
BRANCH  18  24
ATOM     23  O   UNL     1      39.648 -24.720 -14.567  0.00  0.00    -0.248 OA
ATOM     24  C   UNL     1      38.936 -25.667 -14.265  0.00  0.00    +0.332 C 
BRANCH  24  25
ATOM     25  O   UNL     1      39.149 -26.942 -14.674  0.00  0.00    -0.479 OA
ATOM     26  H   UNL     1      39.936 -27.162 -15.133  0.00  0.00    +0.295 HD
ENDBRANCH  24  25
ENDBRANCH  18  24
ENDBRANCH  15  22
ENDBRANCH  14  15
ENDBRANCH   1  14
TORSDOF 9
ENDMDL
MODEL 9
REMARK VINA RESULT:      -8.4      2.669      3.832
REMARK  Name = 125516
REMARK  9 active torsions:
REMARK  status: ('A' for Active; 'I' for Inactive)
REMARK    1  A    between atoms: C_1  and  C_2
REMARK    2  A    between atoms: C_1  and  C_14
REMARK    3  A    between atoms: C_2  and  C_9
REMARK    4  A    between atoms: C_5  and  C_11
REMARK    5  A    between atoms: C_11  and  O_12
REMARK    6  A    between atoms: C_14  and  C_15
REMARK    7  A    between atoms: C_15  and  C_22
REMARK    8  A    between atoms: C_18  and  C_24
REMARK    9  A    between atoms: C_24  and  O_25
REMARK                            x       y       z     vdW  Elec       q    Type
REMARK                         _______ _______ _______ _____ _____    ______ ____
ROOT
ATOM      1  C   UNL     1      36.762 -21.431 -17.820  0.00  0.00    +0.010 C 
ENDROOT
BRANCH   1   2
ATOM      2  C   UNL     1      36.311 -21.706 -19.251  0.00  0.00    +0.085 C 
BRANCH   2   9
ATOM      3  O   UNL     1      37.316 -19.841 -20.338  0.00  0.00    -0.275 OA
ATOM      4  N   UNL     1      35.011 -20.013 -20.451  0.00  0.00    -0.271 N 
ATOM      5  C   UNL     1      34.779 -18.727 -21.095  0.00  0.00    +0.174 C 
ATOM      6  C   UNL     1      33.284 -18.474 -20.929  0.00  0.00    +0.033 C 
ATOM      7  C   UNL     1      32.691 -19.879 -20.882  0.00  0.00    +0.024 C 
ATOM      8  C   UNL     1      33.749 -20.682 -20.143  0.00  0.00    +0.094 C 
ATOM      9  C   UNL     1      36.272 -20.433 -20.059  0.00  0.00    +0.226 C 
BRANCH   5  11
ATOM     10  O   UNL     1      34.507 -19.484 -23.375  0.00  0.00    -0.248 OA
ATOM     11  C   UNL     1      35.160 -18.879 -22.537  0.00  0.00    +0.332 C 
BRANCH  11  12
ATOM     12  O   UNL     1      36.337 -18.256 -22.790  0.00  0.00    -0.479 OA
ATOM     13  H   UNL     1      36.555 -18.007 -23.667  0.00  0.00    +0.295 HD
ENDBRANCH  11  12
ENDBRANCH   5  11
ENDBRANCH   2   9
ENDBRANCH   1   2
BRANCH   1  14
ATOM     14  C   UNL     1      36.176 -22.436 -16.818  0.00  0.00    +0.010 C 
BRANCH  14  15
ATOM     15  C   UNL     1      34.738 -22.811 -17.139  0.00  0.00    +0.085 C 
BRANCH  15  22
ATOM     16  O   UNL     1      34.922 -24.433 -15.406  0.00  0.00    -0.275 OA
ATOM     17  N   UNL     1      32.802 -23.638 -15.889  0.00  0.00    -0.271 N 
ATOM     18  C   UNL     1      32.079 -24.548 -15.011  0.00  0.00    +0.174 C 
ATOM     19  C   UNL     1      30.624 -24.441 -15.454  0.00  0.00    +0.033 C 
ATOM     20  C   UNL     1      30.523 -23.019 -15.999  0.00  0.00    +0.024 C 
ATOM     21  C   UNL     1      31.882 -22.795 -16.647  0.00  0.00    +0.094 C 
ATOM     22  C   UNL     1      34.174 -23.708 -16.067  0.00  0.00    +0.226 C 
BRANCH  18  24
ATOM     23  O   UNL     1      31.724 -23.071 -13.129  0.00  0.00    -0.248 OA
ATOM     24  C   UNL     1      32.271 -24.054 -13.608  0.00  0.00    +0.332 C 
BRANCH  24  25
ATOM     25  O   UNL     1      33.140 -24.847 -12.935  0.00  0.00    -0.479 OA
ATOM     26  H   UNL     1      33.200 -25.758 -13.144  0.00  0.00    +0.295 HD
ENDBRANCH  24  25
ENDBRANCH  18  24
ENDBRANCH  15  22
ENDBRANCH  14  15
ENDBRANCH   1  14
TORSDOF 9
ENDMDL
