MODEL 1
REMARK VINA RESULT:      -8.1      0.000      0.000
REMARK  Name = 46937108
REMARK  5 active torsions:
REMARK  status: ('A' for Active; 'I' for Inactive)
REMARK    1  A    between atoms: S_1  and  C_4
REMARK    2  A    between atoms: S_1  and  N_10
REMARK    3  A    between atoms: N_10  and  C_12
REMARK    4  A    between atoms: C_12  and  C_14
REMARK    5  A    between atoms: C_14  and  N_16
REMARK                            x       y       z     vdW  Elec       q    Type
REMARK                         _______ _______ _______ _____ _____    ______ ____
ROOT
ATOM      1  S   UNL     1      33.860 -22.889 -18.457  0.00  0.00    +0.061 S 
ATOM      2  O   UNL     1      33.855 -24.087 -19.287  0.00  0.00    -0.153 OA
ATOM      3  O   UNL     1      34.846 -22.765 -17.391  0.00  0.00    -0.153 OA
ENDROOT
BRANCH   1   4
ATOM      4  C   UNL     1      34.014 -21.490 -19.490  0.00  0.00    +0.122 C 
ATOM      5  C   UNL     1      32.877 -20.779 -19.875  0.00  0.00    +0.020 C 
ATOM      6  C   UNL     1      35.273 -21.086 -19.934  0.00  0.00    +0.020 C 
ATOM      7  C   UNL     1      32.999 -19.664 -20.704  0.00  0.00    +0.001 C 
ATOM      8  C   UNL     1      35.395 -19.971 -20.763  0.00  0.00    +0.001 C 
ATOM      9  C   UNL     1      34.259 -19.260 -21.148  0.00  0.00    +0.000 C 
ENDBRANCH   1   4
BRANCH   1  10
ATOM     10  N   UNL     1      32.302 -22.682 -17.786  0.00  0.00    -0.170 NA
ATOM     11  H   UNL     1      31.639 -23.071 -18.456  0.00  0.00    +0.149 HD
BRANCH  10  12
ATOM     12  C   UNL     1      31.983 -23.270 -16.478  0.00  0.00    +0.180 C 
BRANCH  12  14
ATOM     13  O   UNL     1      30.174 -22.846 -14.932  0.00  0.00    -0.269 OA
ATOM     14  C   UNL     1      30.584 -22.873 -16.088  0.00  0.00    +0.288 C 
BRANCH  14  16
ATOM     15  O   UNL     1      28.566 -21.994 -16.613  0.00  0.00    -0.071 OA
ATOM     16  N   UNL     1      29.592 -22.483 -17.098  0.00  0.00    -0.027 NA
ENDBRANCH  14  16
ENDBRANCH  12  14
ENDBRANCH  10  12
ENDBRANCH   1  10
TORSDOF 5
ENDMDL
MODEL 2
REMARK VINA RESULT:      -7.9      5.625      7.504
REMARK  Name = 46937108
REMARK  5 active torsions:
REMARK  status: ('A' for Active; 'I' for Inactive)
REMARK    1  A    between atoms: S_1  and  C_4
REMARK    2  A    between atoms: S_1  and  N_10
REMARK    3  A    between atoms: N_10  and  C_12
REMARK    4  A    between atoms: C_12  and  C_14
REMARK    5  A    between atoms: C_14  and  N_16
REMARK                            x       y       z     vdW  Elec       q    Type
REMARK                         _______ _______ _______ _____ _____    ______ ____
ROOT
ATOM      1  S   UNL     1      35.563 -18.405 -21.463  0.00  0.00    +0.061 S 
ATOM      2  O   UNL     1      35.288 -17.246 -20.623  0.00  0.00    -0.153 OA
ATOM      3  O   UNL     1      36.916 -18.619 -21.961  0.00  0.00    -0.153 OA
ENDROOT
BRANCH   1   4
ATOM      4  C   UNL     1      35.074 -19.847 -20.609  0.00  0.00    +0.122 C 
ATOM      5  C   UNL     1      33.720 -20.147 -20.467  0.00  0.00    +0.020 C 
ATOM      6  C   UNL     1      36.038 -20.696 -20.066  0.00  0.00    +0.020 C 
ATOM      7  C   UNL     1      33.329 -21.298 -19.781  0.00  0.00    +0.001 C 
ATOM      8  C   UNL     1      35.648 -21.846 -19.380  0.00  0.00    +0.001 C 
ATOM      9  C   UNL     1      34.293 -22.147 -19.237  0.00  0.00    +0.000 C 
ENDBRANCH   1   4
BRANCH   1  10
ATOM     10  N   UNL     1      34.490 -18.383 -22.792  0.00  0.00    -0.170 NA
ATOM     11  H   UNL     1      33.884 -17.572 -22.669  0.00  0.00    +0.149 HD
BRANCH  10  12
ATOM     12  C   UNL     1      35.020 -18.314 -24.161  0.00  0.00    +0.180 C 
BRANCH  12  14
ATOM     13  O   UNL     1      34.766 -16.711 -25.952  0.00  0.00    -0.269 OA
ATOM     14  C   UNL     1      34.669 -16.977 -24.759  0.00  0.00    +0.288 C 
BRANCH  14  16
ATOM     15  O   UNL     1      35.070 -15.292 -23.303  0.00  0.00    -0.071 OA
ATOM     16  N   UNL     1      34.175 -15.875 -23.924  0.00  0.00    -0.027 NA
ENDBRANCH  14  16
ENDBRANCH  12  14
ENDBRANCH  10  12
ENDBRANCH   1  10
TORSDOF 5
ENDMDL
MODEL 3
REMARK VINA RESULT:      -7.8      2.601      4.208
REMARK  Name = 46937108
REMARK  5 active torsions:
REMARK  status: ('A' for Active; 'I' for Inactive)
REMARK    1  A    between atoms: S_1  and  C_4
REMARK    2  A    between atoms: S_1  and  N_10
REMARK    3  A    between atoms: N_10  and  C_12
REMARK    4  A    between atoms: C_12  and  C_14
REMARK    5  A    between atoms: C_14  and  N_16
REMARK                            x       y       z     vdW  Elec       q    Type
REMARK                         _______ _______ _______ _____ _____    ______ ____
ROOT
ATOM      1  S   UNL     1      33.773 -22.746 -18.697  0.00  0.00    +0.061 S 
ATOM      2  O   UNL     1      32.483 -22.536 -18.053  0.00  0.00    -0.153 OA
ATOM      3  O   UNL     1      33.972 -23.930 -19.524  0.00  0.00    -0.153 OA
ENDROOT
BRANCH   1   4
ATOM      4  C   UNL     1      34.148 -21.347 -19.671  0.00  0.00    +0.122 C 
ATOM      5  C   UNL     1      35.478 -21.028 -19.950  0.00  0.00    +0.020 C 
ATOM      6  C   UNL     1      33.120 -20.546 -20.167  0.00  0.00    +0.020 C 
ATOM      7  C   UNL     1      35.778 -19.908 -20.726  0.00  0.00    +0.001 C 
ATOM      8  C   UNL     1      33.420 -19.425 -20.941  0.00  0.00    +0.001 C 
ATOM      9  C   UNL     1      34.749 -19.106 -21.220  0.00  0.00    +0.000 C 
ENDBRANCH   1   4
BRANCH   1  10
ATOM     10  N   UNL     1      34.994 -22.702 -17.503  0.00  0.00    -0.170 NA
ATOM     11  H   UNL     1      35.291 -21.730 -17.421  0.00  0.00    +0.149 HD
BRANCH  10  12
ATOM     12  C   UNL     1      34.706 -23.176 -16.142  0.00  0.00    +0.180 C 
BRANCH  12  14
ATOM     13  O   UNL     1      36.047 -25.057 -15.434  0.00  0.00    -0.269 OA
ATOM     14  C   UNL     1      35.933 -23.846 -15.584  0.00  0.00    +0.288 C 
BRANCH  14  16
ATOM     15  O   UNL     1      37.702 -22.539 -16.116  0.00  0.00    -0.071 OA
ATOM     16  N   UNL     1      37.107 -23.066 -15.170  0.00  0.00    -0.027 NA
ENDBRANCH  14  16
ENDBRANCH  12  14
ENDBRANCH  10  12
ENDBRANCH   1  10
TORSDOF 5
ENDMDL
MODEL 4
REMARK VINA RESULT:      -7.7      5.196      6.749
REMARK  Name = 46937108
REMARK  5 active torsions:
REMARK  status: ('A' for Active; 'I' for Inactive)
REMARK    1  A    between atoms: S_1  and  C_4
REMARK    2  A    between atoms: S_1  and  N_10
REMARK    3  A    between atoms: N_10  and  C_12
REMARK    4  A    between atoms: C_12  and  C_14
REMARK    5  A    between atoms: C_14  and  N_16
REMARK                            x       y       z     vdW  Elec       q    Type
REMARK                         _______ _______ _______ _____ _____    ______ ____
ROOT
ATOM      1  S   UNL     1      35.783 -24.452 -14.832  0.00  0.00    +0.061 S 
ATOM      2  O   UNL     1      36.076 -25.664 -15.587  0.00  0.00    -0.153 OA
ATOM      3  O   UNL     1      36.654 -23.293 -14.979  0.00  0.00    -0.153 OA
ENDROOT
BRANCH   1   4
ATOM      4  C   UNL     1      34.153 -23.943 -15.196  0.00  0.00    +0.122 C 
ATOM      5  C   UNL     1      33.816 -23.561 -16.494  0.00  0.00    +0.020 C 
ATOM      6  C   UNL     1      33.190 -23.916 -14.187  0.00  0.00    +0.020 C 
ATOM      7  C   UNL     1      32.514 -23.151 -16.784  0.00  0.00    +0.001 C 
ATOM      8  C   UNL     1      31.889 -23.506 -14.477  0.00  0.00    +0.001 C 
ATOM      9  C   UNL     1      31.551 -23.123 -15.775  0.00  0.00    +0.000 C 
ENDBRANCH   1   4
BRANCH   1  10
ATOM     10  N   UNL     1      35.683 -24.852 -13.174  0.00  0.00    -0.170 NA
ATOM     11  H   UNL     1      35.232 -25.765 -13.117  0.00  0.00    +0.149 HD
BRANCH  10  12
ATOM     12  C   UNL     1      36.906 -24.930 -12.363  0.00  0.00    +0.180 C 
BRANCH  12  14
ATOM     13  O   UNL     1      37.376 -22.821 -11.282  0.00  0.00    -0.269 OA
ATOM     14  C   UNL     1      36.827 -23.916 -11.253  0.00  0.00    +0.288 C 
BRANCH  14  16
ATOM     15  O   UNL     1      35.228 -25.085 -10.160  0.00  0.00    -0.071 OA
ATOM     16  N   UNL     1      36.064 -24.186 -10.027  0.00  0.00    -0.027 NA
ENDBRANCH  14  16
ENDBRANCH  12  14
ENDBRANCH  10  12
ENDBRANCH   1  10
TORSDOF 5
ENDMDL
MODEL 5
REMARK VINA RESULT:      -7.5      6.023      7.760
REMARK  Name = 46937108
REMARK  5 active torsions:
REMARK  status: ('A' for Active; 'I' for Inactive)
REMARK    1  A    between atoms: S_1  and  C_4
REMARK    2  A    between atoms: S_1  and  N_10
REMARK    3  A    between atoms: N_10  and  C_12
REMARK    4  A    between atoms: C_12  and  C_14
REMARK    5  A    between atoms: C_14  and  N_16
REMARK                            x       y       z     vdW  Elec       q    Type
REMARK                         _______ _______ _______ _____ _____    ______ ____
ROOT
ATOM      1  S   UNL     1      35.408 -18.642 -22.669  0.00  0.00    +0.061 S 
ATOM      2  O   UNL     1      36.780 -18.311 -22.303  0.00  0.00    -0.153 OA
ATOM      3  O   UNL     1      35.148 -19.281 -23.952  0.00  0.00    -0.153 OA
ENDROOT
BRANCH   1   4
ATOM      4  C   UNL     1      34.721 -19.651 -21.421  0.00  0.00    +0.122 C 
ATOM      5  C   UNL     1      33.347 -19.626 -21.183  0.00  0.00    +0.020 C 
ATOM      6  C   UNL     1      35.547 -20.479 -20.661  0.00  0.00    +0.020 C 
ATOM      7  C   UNL     1      32.798 -20.430 -20.183  0.00  0.00    +0.001 C 
ATOM      8  C   UNL     1      34.999 -21.282 -19.661  0.00  0.00    +0.001 C 
ATOM      9  C   UNL     1      33.625 -21.257 -19.421  0.00  0.00    +0.000 C 
ENDBRANCH   1   4
BRANCH   1  10
ATOM     10  N   UNL     1      34.457 -17.226 -22.562  0.00  0.00    -0.170 NA
ATOM     11  H   UNL     1      34.338 -17.025 -21.570  0.00  0.00    +0.149 HD
BRANCH  10  12
ATOM     12  C   UNL     1      34.920 -15.983 -23.196  0.00  0.00    +0.180 C 
BRANCH  12  14
ATOM     13  O   UNL     1      33.103 -14.659 -24.082  0.00  0.00    -0.269 OA
ATOM     14  C   UNL     1      33.919 -15.560 -24.239  0.00  0.00    +0.288 C 
BRANCH  14  16
ATOM     15  O   UNL     1      34.903 -16.806 -25.851  0.00  0.00    -0.071 OA
ATOM     16  N   UNL     1      33.858 -16.221 -25.548  0.00  0.00    -0.027 NA
ENDBRANCH  14  16
ENDBRANCH  12  14
ENDBRANCH  10  12
ENDBRANCH   1  10
TORSDOF 5
ENDMDL
MODEL 6
REMARK VINA RESULT:      -7.5      6.640      7.509
REMARK  Name = 46937108
REMARK  5 active torsions:
REMARK  status: ('A' for Active; 'I' for Inactive)
REMARK    1  A    between atoms: S_1  and  C_4
REMARK    2  A    between atoms: S_1  and  N_10
REMARK    3  A    between atoms: N_10  and  C_12
REMARK    4  A    between atoms: C_12  and  C_14
REMARK    5  A    between atoms: C_14  and  N_16
REMARK                            x       y       z     vdW  Elec       q    Type
REMARK                         _______ _______ _______ _____ _____    ______ ____
ROOT
ATOM      1  S   UNL     1      38.183 -25.657 -13.882  0.00  0.00    +0.061 S 
ATOM      2  O   UNL     1      38.123 -26.987 -14.475  0.00  0.00    -0.153 OA
ATOM      3  O   UNL     1      39.469 -24.979 -13.783  0.00  0.00    -0.153 OA
ENDROOT
BRANCH   1   4
ATOM      4  C   UNL     1      37.091 -24.606 -14.749  0.00  0.00    +0.122 C 
ATOM      5  C   UNL     1      37.537 -23.369 -15.213  0.00  0.00    +0.020 C 
ATOM      6  C   UNL     1      35.773 -25.002 -14.972  0.00  0.00    +0.020 C 
ATOM      7  C   UNL     1      36.663 -22.527 -15.903  0.00  0.00    +0.001 C 
ATOM      8  C   UNL     1      34.899 -24.161 -15.661  0.00  0.00    +0.001 C 
ATOM      9  C   UNL     1      35.344 -22.923 -16.126  0.00  0.00    +0.000 C 
ENDBRANCH   1   4
BRANCH   1  10
ATOM     10  N   UNL     1      37.477 -25.720 -12.327  0.00  0.00    -0.170 NA
ATOM     11  H   UNL     1      38.188 -25.404 -11.667  0.00  0.00    +0.149 HD
BRANCH  10  12
ATOM     12  C   UNL     1      36.260 -24.947 -12.043  0.00  0.00    +0.180 C 
BRANCH  12  14
ATOM     13  O   UNL     1      36.296 -24.004  -9.819  0.00  0.00    -0.269 OA
ATOM     14  C   UNL     1      36.572 -23.898 -11.009  0.00  0.00    +0.288 C 
BRANCH  14  16
ATOM     15  O   UNL     1      38.452 -22.786 -11.596  0.00  0.00    -0.071 OA
ATOM     16  N   UNL     1      37.245 -22.646 -11.373  0.00  0.00    -0.027 NA
ENDBRANCH  14  16
ENDBRANCH  12  14
ENDBRANCH  10  12
ENDBRANCH   1  10
TORSDOF 5
ENDMDL
MODEL 7
REMARK VINA RESULT:      -7.5      5.459      7.060
REMARK  Name = 46937108
REMARK  5 active torsions:
REMARK  status: ('A' for Active; 'I' for Inactive)
REMARK    1  A    between atoms: S_1  and  C_4
REMARK    2  A    between atoms: S_1  and  N_10
REMARK    3  A    between atoms: N_10  and  C_12
REMARK    4  A    between atoms: C_12  and  C_14
REMARK    5  A    between atoms: C_14  and  N_16
REMARK                            x       y       z     vdW  Elec       q    Type
REMARK                         _______ _______ _______ _____ _____    ______ ____
ROOT
ATOM      1  S   UNL     1      35.101 -18.799 -21.867  0.00  0.00    +0.061 S 
ATOM      2  O   UNL     1      36.509 -18.425 -21.831  0.00  0.00    -0.153 OA
ATOM      3  O   UNL     1      34.505 -19.206 -23.133  0.00  0.00    -0.153 OA
ENDROOT
BRANCH   1   4
ATOM      4  C   UNL     1      34.830 -20.081 -20.713  0.00  0.00    +0.122 C 
ATOM      5  C   UNL     1      35.915 -20.769 -20.169  0.00  0.00    +0.020 C 
ATOM      6  C   UNL     1      33.530 -20.420 -20.339  0.00  0.00    +0.020 C 
ATOM      7  C   UNL     1      35.699 -21.797 -19.250  0.00  0.00    +0.001 C 
ATOM      8  C   UNL     1      33.314 -21.447 -19.421  0.00  0.00    +0.001 C 
ATOM      9  C   UNL     1      34.398 -22.136 -18.877  0.00  0.00    +0.000 C 
ENDBRANCH   1   4
BRANCH   1  10
ATOM     10  N   UNL     1      34.178 -17.518 -21.216  0.00  0.00    -0.170 NA
ATOM     11  H   UNL     1      33.879 -17.811 -20.286  0.00  0.00    +0.149 HD
BRANCH  10  12
ATOM     12  C   UNL     1      34.777 -16.184 -21.069  0.00  0.00    +0.180 C 
BRANCH  12  14
ATOM     13  O   UNL     1      35.076 -15.311 -23.303  0.00  0.00    -0.269 OA
ATOM     14  C   UNL     1      34.418 -15.348 -22.269  0.00  0.00    +0.288 C 
BRANCH  14  16
ATOM     15  O   UNL     1      32.236 -15.035 -21.757  0.00  0.00    -0.071 OA
ATOM     16  N   UNL     1      33.221 -14.497 -22.275  0.00  0.00    -0.027 NA
ENDBRANCH  14  16
ENDBRANCH  12  14
ENDBRANCH  10  12
ENDBRANCH   1  10
TORSDOF 5
ENDMDL
MODEL 8
REMARK VINA RESULT:      -7.5      6.872      8.538
REMARK  Name = 46937108
REMARK  5 active torsions:
REMARK  status: ('A' for Active; 'I' for Inactive)
REMARK    1  A    between atoms: S_1  and  C_4
REMARK    2  A    between atoms: S_1  and  N_10
REMARK    3  A    between atoms: N_10  and  C_12
REMARK    4  A    between atoms: C_12  and  C_14
REMARK    5  A    between atoms: C_14  and  N_16
REMARK                            x       y       z     vdW  Elec       q    Type
REMARK                         _______ _______ _______ _____ _____    ______ ____
ROOT
ATOM      1  S   UNL     1      37.532 -23.473 -12.032  0.00  0.00    +0.061 S 
ATOM      2  O   UNL     1      37.962 -22.084 -11.928  0.00  0.00    -0.153 OA
ATOM      3  O   UNL     1      37.164 -24.196 -10.821  0.00  0.00    -0.153 OA
ENDROOT
BRANCH   1   4
ATOM      4  C   UNL     1      36.183 -23.562 -13.137  0.00  0.00    +0.122 C 
ATOM      5  C   UNL     1      36.326 -23.108 -14.448  0.00  0.00    +0.020 C 
ATOM      6  C   UNL     1      34.963 -24.082 -12.707  0.00  0.00    +0.020 C 
ATOM      7  C   UNL     1      35.248 -23.176 -15.331  0.00  0.00    +0.001 C 
ATOM      8  C   UNL     1      33.884 -24.149 -13.589  0.00  0.00    +0.001 C 
ATOM      9  C   UNL     1      34.026 -23.695 -14.901  0.00  0.00    +0.000 C 
ENDBRANCH   1   4
BRANCH   1  10
ATOM     10  N   UNL     1      38.740 -24.360 -12.852  0.00  0.00    -0.170 NA
ATOM     11  H   UNL     1      39.601 -24.250 -12.318  0.00  0.00    +0.149 HD
BRANCH  10  12
ATOM     12  C   UNL     1      38.562 -25.800 -13.082  0.00  0.00    +0.180 C 
BRANCH  12  14
ATOM     13  O   UNL     1      37.864 -26.570 -15.264  0.00  0.00    -0.269 OA
ATOM     14  C   UNL     1      38.737 -26.090 -14.549  0.00  0.00    +0.288 C 
BRANCH  14  16
ATOM     15  O   UNL     1      40.991 -25.899 -14.499  0.00  0.00    -0.071 OA
ATOM     16  N   UNL     1      40.004 -25.809 -15.237  0.00  0.00    -0.027 NA
ENDBRANCH  14  16
ENDBRANCH  12  14
ENDBRANCH  10  12
ENDBRANCH   1  10
TORSDOF 5
ENDMDL
MODEL 9
REMARK VINA RESULT:      -7.4      3.798      5.270
REMARK  Name = 46937108
REMARK  5 active torsions:
REMARK  status: ('A' for Active; 'I' for Inactive)
REMARK    1  A    between atoms: S_1  and  C_4
REMARK    2  A    between atoms: S_1  and  N_10
REMARK    3  A    between atoms: N_10  and  C_12
REMARK    4  A    between atoms: C_12  and  C_14
REMARK    5  A    between atoms: C_14  and  N_16
REMARK                            x       y       z     vdW  Elec       q    Type
REMARK                         _______ _______ _______ _____ _____    ______ ____
ROOT
ATOM      1  S   UNL     1      35.665 -18.479 -21.153  0.00  0.00    +0.061 S 
ATOM      2  O   UNL     1      36.993 -19.079 -21.194  0.00  0.00    -0.153 OA
ATOM      3  O   UNL     1      35.446 -17.288 -20.341  0.00  0.00    -0.153 OA
ENDROOT
BRANCH   1   4
ATOM      4  C   UNL     1      35.165 -18.111 -22.785  0.00  0.00    +0.122 C 
ATOM      5  C   UNL     1      34.783 -19.140 -23.645  0.00  0.00    +0.020 C 
ATOM      6  C   UNL     1      35.151 -16.789 -23.229  0.00  0.00    +0.020 C 
ATOM      7  C   UNL     1      34.387 -18.847 -24.951  0.00  0.00    +0.001 C 
ATOM      8  C   UNL     1      34.756 -16.495 -24.534  0.00  0.00    +0.001 C 
ATOM      9  C   UNL     1      34.374 -17.524 -25.395  0.00  0.00    +0.000 C 
ENDBRANCH   1   4
BRANCH   1  10
ATOM     10  N   UNL     1      34.539 -19.674 -20.684  0.00  0.00    -0.170 NA
ATOM     11  H   UNL     1      34.064 -19.982 -21.532  0.00  0.00    +0.149 HD
BRANCH  10  12
ATOM     12  C   UNL     1      35.001 -20.885 -19.991  0.00  0.00    +0.180 C 
BRANCH  12  14
ATOM     13  O   UNL     1      32.679 -21.150 -19.378  0.00  0.00    -0.269 OA
ATOM     14  C   UNL     1      33.810 -21.619 -19.433  0.00  0.00    +0.288 C 
BRANCH  14  16
ATOM     15  O   UNL     1      34.000 -23.846 -19.787  0.00  0.00    -0.071 OA
ATOM     16  N   UNL     1      33.934 -22.983 -18.905  0.00  0.00    -0.027 NA
ENDBRANCH  14  16
ENDBRANCH  12  14
ENDBRANCH  10  12
ENDBRANCH   1  10
TORSDOF 5
ENDMDL
