MODEL 1
REMARK VINA RESULT:      -8.9      0.000      0.000
REMARK  Name = 3047788
REMARK  3 active torsions:
REMARK  status: ('A' for Active; 'I' for Inactive)
REMARK    1  A    between atoms: C_2  and  C_13
REMARK    2  A    between atoms: C_13  and  C_14
REMARK    3  A    between atoms: C_14  and  N_15
REMARK                            x       y       z     vdW  Elec       q    Type
REMARK                         _______ _______ _______ _____ _____    ______ ____
ROOT
ATOM      1  O   UNL     1      36.464 -23.171 -13.412  0.00  0.00    -0.296 OA
ATOM      2  C   UNL     1      35.068 -23.499 -15.374  0.00  0.00    +0.068 C 
ATOM      3  C   UNL     1      35.025 -22.941 -16.802  0.00  0.00    -0.020 C 
ATOM      4  C   UNL     1      36.375 -23.154 -14.641  0.00  0.00    +0.154 C 
ATOM      5  C   UNL     1      34.981 -25.037 -15.389  0.00  0.00    +0.012 C 
ATOM      6  C   UNL     1      37.592 -22.895 -15.490  0.00  0.00    +0.069 C 
ATOM      7  C   UNL     1      36.068 -22.146 -17.319  0.00  0.00    -0.025 C 
ATOM      8  C   UNL     1      37.269 -21.796 -16.481  0.00  0.00    +0.034 C 
ATOM      9  C   UNL     1      33.921 -23.213 -17.635  0.00  0.00    -0.004 C 
ATOM     10  C   UNL     1      35.976 -21.624 -18.620  0.00  0.00    -0.005 C 
ATOM     11  C   UNL     1      33.848 -22.702 -18.932  0.00  0.00    -0.000 C 
ATOM     12  C   UNL     1      34.873 -21.904 -19.423  0.00  0.00    -0.000 C 
ENDROOT
BRANCH   2  13
ATOM     13  C   UNL     1      33.900 -22.914 -14.555  0.00  0.00    -0.012 C 
BRANCH  13  14
ATOM     14  C   UNL     1      33.046 -24.028 -13.972  0.00  0.00    -0.077 C 
BRANCH  14  15
ATOM     15  N   UNL     1      31.840 -24.195 -14.782  0.00  0.00    +0.387 N 
ATOM     16  C   UNL     1      31.231 -22.889 -15.075  0.00  0.00    -0.077 C 
ATOM     17  C   UNL     1      30.886 -25.085 -14.105  0.00  0.00    -0.077 C 
ATOM     18  C   UNL     1      29.996 -23.044 -15.963  0.00  0.00    -0.023 C 
ATOM     19  C   UNL     1      29.639 -25.310 -14.961  0.00  0.00    -0.023 C 
ATOM     20  C   UNL     1      28.978 -23.989 -15.337  0.00  0.00    -0.004 C 
ATOM     21  H   UNL     1      32.099 -24.627 -15.669  0.00  0.00    -0.080 HD
ENDBRANCH  14  15
ENDBRANCH  13  14
ENDBRANCH   2  13
TORSDOF 3
ENDMDL
MODEL 2
REMARK VINA RESULT:      -8.7     14.880     16.997
REMARK  Name = 3047788
REMARK  3 active torsions:
REMARK  status: ('A' for Active; 'I' for Inactive)
REMARK    1  A    between atoms: C_2  and  C_13
REMARK    2  A    between atoms: C_13  and  C_14
REMARK    3  A    between atoms: C_14  and  N_15
REMARK                            x       y       z     vdW  Elec       q    Type
REMARK                         _______ _______ _______ _____ _____    ______ ____
ROOT
ATOM      1  O   UNL     1      32.535  -8.901 -20.765  0.00  0.00    -0.296 OA
ATOM      2  C   UNL     1      32.916  -7.688 -22.836  0.00  0.00    +0.068 C 
ATOM      3  C   UNL     1      32.394  -6.392 -23.467  0.00  0.00    -0.020 C 
ATOM      4  C   UNL     1      32.549  -7.816 -21.349  0.00  0.00    +0.154 C 
ATOM      5  C   UNL     1      34.454  -7.743 -22.902  0.00  0.00    +0.012 C 
ATOM      6  C   UNL     1      32.308  -6.538 -20.588  0.00  0.00    +0.069 C 
ATOM      7  C   UNL     1      31.608  -5.477 -22.736  0.00  0.00    -0.025 C 
ATOM      8  C   UNL     1      31.234  -5.742 -21.302  0.00  0.00    +0.034 C 
ATOM      9  C   UNL     1      32.689  -6.089 -24.811  0.00  0.00    -0.004 C 
ATOM     10  C   UNL     1      31.119  -4.317 -23.359  0.00  0.00    -0.005 C 
ATOM     11  C   UNL     1      32.210  -4.925 -25.414  0.00  0.00    -0.000 C 
ATOM     12  C   UNL     1      31.422  -4.041 -24.690  0.00  0.00    -0.000 C 
ENDROOT
BRANCH   2  13
ATOM     13  C   UNL     1      32.315  -8.901 -23.575  0.00  0.00    -0.012 C 
BRANCH  13  14
ATOM     14  C   UNL     1      33.413  -9.839 -24.045  0.00  0.00    -0.077 C 
BRANCH  14  15
ATOM     15  N   UNL     1      33.364 -11.078 -23.269  0.00  0.00    +0.387 N 
ATOM     16  C   UNL     1      33.780 -12.220 -24.095  0.00  0.00    -0.077 C 
ATOM     17  C   UNL     1      32.019 -11.285 -22.717  0.00  0.00    -0.077 C 
ATOM     18  C   UNL     1      33.781 -13.517 -23.284  0.00  0.00    -0.023 C 
ATOM     19  C   UNL     1      31.961 -12.552 -21.861  0.00  0.00    -0.023 C 
ATOM     20  C   UNL     1      32.421 -13.774 -22.648  0.00  0.00    -0.004 C 
ATOM     21  H   UNL     1      34.016 -11.001 -22.488  0.00  0.00    -0.080 HD
ENDBRANCH  14  15
ENDBRANCH  13  14
ENDBRANCH   2  13
TORSDOF 3
ENDMDL
MODEL 3
REMARK VINA RESULT:      -8.3      6.448      8.972
REMARK  Name = 3047788
REMARK  3 active torsions:
REMARK  status: ('A' for Active; 'I' for Inactive)
REMARK    1  A    between atoms: C_2  and  C_13
REMARK    2  A    between atoms: C_13  and  C_14
REMARK    3  A    between atoms: C_14  and  N_15
REMARK                            x       y       z     vdW  Elec       q    Type
REMARK                         _______ _______ _______ _____ _____    ______ ____
ROOT
ATOM      1  O   UNL     1      34.885 -16.415 -19.926  0.00  0.00    -0.296 OA
ATOM      2  C   UNL     1      34.818 -16.998 -22.284  0.00  0.00    +0.068 C 
ATOM      3  C   UNL     1      34.258 -16.362 -23.561  0.00  0.00    -0.020 C 
ATOM      4  C   UNL     1      34.836 -16.025 -21.094  0.00  0.00    +0.154 C 
ATOM      5  C   UNL     1      36.278 -17.443 -22.494  0.00  0.00    +0.012 C 
ATOM      6  C   UNL     1      34.902 -14.554 -21.409  0.00  0.00    +0.069 C 
ATOM      7  C   UNL     1      33.763 -15.042 -23.576  0.00  0.00    -0.025 C 
ATOM      8  C   UNL     1      33.749 -14.201 -22.327  0.00  0.00    +0.034 C 
ATOM      9  C   UNL     1      34.222 -17.098 -24.762  0.00  0.00    -0.004 C 
ATOM     10  C   UNL     1      33.225 -14.505 -24.757  0.00  0.00    -0.005 C 
ATOM     11  C   UNL     1      33.700 -16.549 -25.935  0.00  0.00    -0.000 C 
ATOM     12  C   UNL     1      33.198 -15.254 -25.932  0.00  0.00    -0.000 C 
ENDROOT
BRANCH   2  13
ATOM     13  C   UNL     1      33.952 -18.211 -21.888  0.00  0.00    -0.012 C 
BRANCH  13  14
ATOM     14  C   UNL     1      34.790 -19.477 -21.849  0.00  0.00    -0.077 C 
BRANCH  14  15
ATOM     15  N   UNL     1      34.629 -20.131 -20.551  0.00  0.00    +0.387 N 
ATOM     16  C   UNL     1      35.736 -21.066 -20.304  0.00  0.00    -0.077 C 
ATOM     17  C   UNL     1      33.331 -20.814 -20.477  0.00  0.00    -0.077 C 
ATOM     18  C   UNL     1      35.608 -21.722 -18.929  0.00  0.00    -0.023 C 
ATOM     19  C   UNL     1      33.125 -21.463 -19.108  0.00  0.00    -0.023 C 
ATOM     20  C   UNL     1      34.263 -22.419 -18.770  0.00  0.00    -0.004 C 
ATOM     21  H   UNL     1      34.651 -19.419 -19.821  0.00  0.00    -0.080 HD
ENDBRANCH  14  15
ENDBRANCH  13  14
ENDBRANCH   2  13
TORSDOF 3
ENDMDL
MODEL 4
REMARK VINA RESULT:      -8.1     13.351     15.745
REMARK  Name = 3047788
REMARK  3 active torsions:
REMARK  status: ('A' for Active; 'I' for Inactive)
REMARK    1  A    between atoms: C_2  and  C_13
REMARK    2  A    between atoms: C_13  and  C_14
REMARK    3  A    between atoms: C_14  and  N_15
REMARK                            x       y       z     vdW  Elec       q    Type
REMARK                         _______ _______ _______ _____ _____    ______ ____
ROOT
ATOM      1  O   UNL     1      33.422  -6.713 -23.835  0.00  0.00    -0.296 OA
ATOM      2  C   UNL     1      31.995  -8.588 -23.239  0.00  0.00    +0.068 C 
ATOM      3  C   UNL     1      31.720  -9.404 -21.972  0.00  0.00    -0.020 C 
ATOM      4  C   UNL     1      32.788  -7.301 -22.957  0.00  0.00    +0.154 C 
ATOM      5  C   UNL     1      30.675  -8.140 -23.894  0.00  0.00    +0.012 C 
ATOM      6  C   UNL     1      32.674  -6.712 -21.575  0.00  0.00    +0.069 C 
ATOM      7  C   UNL     1      32.219  -9.010 -20.713  0.00  0.00    -0.025 C 
ATOM      8  C   UNL     1      33.061  -7.771 -20.563  0.00  0.00    +0.034 C 
ATOM      9  C   UNL     1      30.956 -10.586 -22.042  0.00  0.00    -0.004 C 
ATOM     10  C   UNL     1      31.976  -9.803 -19.579  0.00  0.00    -0.005 C 
ATOM     11  C   UNL     1      30.707 -11.358 -20.906  0.00  0.00    -0.000 C 
ATOM     12  C   UNL     1      31.220 -10.969 -19.676  0.00  0.00    -0.000 C 
ENDROOT
BRANCH   2  13
ATOM     13  C   UNL     1      32.813  -9.436 -24.234  0.00  0.00    -0.012 C 
BRANCH  13  14
ATOM     14  C   UNL     1      33.885 -10.228 -23.506  0.00  0.00    -0.077 C 
BRANCH  14  15
ATOM     15  N   UNL     1      34.060 -11.527 -24.155  0.00  0.00    +0.387 N 
ATOM     16  C   UNL     1      33.501 -11.503 -25.514  0.00  0.00    -0.077 C 
ATOM     17  C   UNL     1      33.445 -12.591 -23.348  0.00  0.00    -0.077 C 
ATOM     18  C   UNL     1      33.720 -12.840 -26.224  0.00  0.00    -0.023 C 
ATOM     19  C   UNL     1      33.660 -13.963 -23.988  0.00  0.00    -0.023 C 
ATOM     20  C   UNL     1      33.139 -13.996 -25.419  0.00  0.00    -0.004 C 
ATOM     21  H   UNL     1      35.058 -11.725 -24.228  0.00  0.00    -0.080 HD
ENDBRANCH  14  15
ENDBRANCH  13  14
ENDBRANCH   2  13
TORSDOF 3
ENDMDL
MODEL 5
REMARK VINA RESULT:      -8.1     15.671     17.873
REMARK  Name = 3047788
REMARK  3 active torsions:
REMARK  status: ('A' for Active; 'I' for Inactive)
REMARK    1  A    between atoms: C_2  and  C_13
REMARK    2  A    between atoms: C_13  and  C_14
REMARK    3  A    between atoms: C_14  and  N_15
REMARK                            x       y       z     vdW  Elec       q    Type
REMARK                         _______ _______ _______ _____ _____    ______ ____
ROOT
ATOM      1  O   UNL     1      33.978  -6.871 -24.417  0.00  0.00    -0.296 OA
ATOM      2  C   UNL     1      32.752  -8.346 -22.925  0.00  0.00    +0.068 C 
ATOM      3  C   UNL     1      32.555  -9.860 -22.789  0.00  0.00    -0.020 C 
ATOM      4  C   UNL     1      33.895  -7.979 -23.885  0.00  0.00    +0.154 C 
ATOM      5  C   UNL     1      33.120  -7.722 -21.566  0.00  0.00    +0.012 C 
ATOM      6  C   UNL     1      34.988  -8.998 -24.075  0.00  0.00    +0.069 C 
ATOM      7  C   UNL     1      33.322 -10.777 -23.537  0.00  0.00    -0.025 C 
ATOM      8  C   UNL     1      34.362 -10.306 -24.518  0.00  0.00    +0.034 C 
ATOM      9  C   UNL     1      31.585 -10.372 -21.904  0.00  0.00    -0.004 C 
ATOM     10  C   UNL     1      33.088 -12.157 -23.411  0.00  0.00    -0.005 C 
ATOM     11  C   UNL     1      31.372 -11.746 -21.776  0.00  0.00    -0.000 C 
ATOM     12  C   UNL     1      32.121 -12.638 -22.531  0.00  0.00    -0.000 C 
ENDROOT
BRANCH   2  13
ATOM     13  C   UNL     1      31.459  -7.703 -23.465  0.00  0.00    -0.012 C 
BRANCH  13  14
ATOM     14  C   UNL     1      31.080  -6.486 -22.638  0.00  0.00    -0.077 C 
BRANCH  14  15
ATOM     15  N   UNL     1      31.502  -5.271 -23.333  0.00  0.00    +0.387 N 
ATOM     16  C   UNL     1      30.995  -4.078 -22.640  0.00  0.00    -0.077 C 
ATOM     17  C   UNL     1      31.058  -5.301 -24.734  0.00  0.00    -0.077 C 
ATOM     18  C   UNL     1      31.468  -2.797 -23.328  0.00  0.00    -0.023 C 
ATOM     19  C   UNL     1      31.532  -4.059 -25.490  0.00  0.00    -0.023 C 
ATOM     20  C   UNL     1      31.073  -2.780 -24.800  0.00  0.00    -0.004 C 
ATOM     21  H   UNL     1      32.521  -5.228 -23.328  0.00  0.00    -0.080 HD
ENDBRANCH  14  15
ENDBRANCH  13  14
ENDBRANCH   2  13
TORSDOF 3
ENDMDL
MODEL 6
REMARK VINA RESULT:      -8.0     16.162     18.081
REMARK  Name = 3047788
REMARK  3 active torsions:
REMARK  status: ('A' for Active; 'I' for Inactive)
REMARK    1  A    between atoms: C_2  and  C_13
REMARK    2  A    between atoms: C_13  and  C_14
REMARK    3  A    between atoms: C_14  and  N_15
REMARK                            x       y       z     vdW  Elec       q    Type
REMARK                         _______ _______ _______ _____ _____    ______ ____
ROOT
ATOM      1  O   UNL     1      29.744  -5.522 -21.930  0.00  0.00    -0.296 OA
ATOM      2  C   UNL     1      31.841  -6.185 -22.964  0.00  0.00    +0.068 C 
ATOM      3  C   UNL     1      32.616  -5.799 -24.229  0.00  0.00    -0.020 C 
ATOM      4  C   UNL     1      30.694  -5.210 -22.649  0.00  0.00    +0.154 C 
ATOM      5  C   UNL     1      32.766  -6.166 -21.733  0.00  0.00    +0.012 C 
ATOM      6  C   UNL     1      30.826  -3.802 -23.169  0.00  0.00    +0.069 C 
ATOM      7  C   UNL     1      32.237  -4.697 -25.023  0.00  0.00    -0.025 C 
ATOM      8  C   UNL     1      31.040  -3.856 -24.668  0.00  0.00    +0.034 C 
ATOM      9  C   UNL     1      33.735  -6.554 -24.632  0.00  0.00    -0.004 C 
ATOM     10  C   UNL     1      32.952  -4.395 -26.195  0.00  0.00    -0.005 C 
ATOM     11  C   UNL     1      34.447  -6.236 -25.790  0.00  0.00    -0.000 C 
ATOM     12  C   UNL     1      34.053  -5.159 -26.573  0.00  0.00    -0.000 C 
ENDROOT
BRANCH   2  13
ATOM     13  C   UNL     1      31.230  -7.589 -23.140  0.00  0.00    -0.012 C 
BRANCH  13  14
ATOM     14  C   UNL     1      32.230  -8.662 -22.744  0.00  0.00    -0.077 C 
BRANCH  14  15
ATOM     15  N   UNL     1      31.618  -9.566 -21.771  0.00  0.00    +0.387 N 
ATOM     16  C   UNL     1      32.071  -9.243 -20.411  0.00  0.00    -0.077 C 
ATOM     17  C   UNL     1      31.916 -10.964 -22.112  0.00  0.00    -0.077 C 
ATOM     18  C   UNL     1      31.401 -10.149 -19.377  0.00  0.00    -0.023 C 
ATOM     19  C   UNL     1      31.242 -11.927 -21.132  0.00  0.00    -0.023 C 
ATOM     20  C   UNL     1      31.638 -11.621 -19.693  0.00  0.00    -0.004 C 
ATOM     21  H   UNL     1      30.605  -9.444 -21.802  0.00  0.00    -0.080 HD
ENDBRANCH  14  15
ENDBRANCH  13  14
ENDBRANCH   2  13
TORSDOF 3
ENDMDL
MODEL 7
REMARK VINA RESULT:      -7.9     15.986     18.170
REMARK  Name = 3047788
REMARK  3 active torsions:
REMARK  status: ('A' for Active; 'I' for Inactive)
REMARK    1  A    between atoms: C_2  and  C_13
REMARK    2  A    between atoms: C_13  and  C_14
REMARK    3  A    between atoms: C_14  and  N_15
REMARK                            x       y       z     vdW  Elec       q    Type
REMARK                         _______ _______ _______ _____ _____    ______ ____
ROOT
ATOM      1  O   UNL     1      29.763  -5.828 -22.198  0.00  0.00    -0.296 OA
ATOM      2  C   UNL     1      31.916  -6.420 -23.157  0.00  0.00    +0.068 C 
ATOM      3  C   UNL     1      32.752  -5.961 -24.357  0.00  0.00    -0.020 C 
ATOM      4  C   UNL     1      30.747  -5.471 -22.849  0.00  0.00    +0.154 C 
ATOM      5  C   UNL     1      32.777  -6.464 -21.880  0.00  0.00    +0.012 C 
ATOM      6  C   UNL     1      30.893  -4.036 -23.284  0.00  0.00    +0.069 C 
ATOM      7  C   UNL     1      32.406  -4.819 -25.108  0.00  0.00    -0.025 C 
ATOM      8  C   UNL     1      31.184  -4.006 -24.771  0.00  0.00    +0.034 C 
ATOM      9  C   UNL     1      33.897  -6.687 -24.742  0.00  0.00    -0.004 C 
ATOM     10  C   UNL     1      33.177  -4.450 -26.223  0.00  0.00    -0.005 C 
ATOM     11  C   UNL     1      34.665  -6.301 -25.842  0.00  0.00    -0.000 C 
ATOM     12  C   UNL     1      34.303  -5.185 -26.585  0.00  0.00    -0.000 C 
ENDROOT
BRANCH   2  13
ATOM     13  C   UNL     1      31.327  -7.817 -23.441  0.00  0.00    -0.012 C 
BRANCH  13  14
ATOM     14  C   UNL     1      31.817  -8.823 -22.413  0.00  0.00    -0.077 C 
BRANCH  14  15
ATOM     15  N   UNL     1      32.105 -10.096 -23.073  0.00  0.00    +0.387 N 
ATOM     16  C   UNL     1      31.947 -11.212 -22.130  0.00  0.00    -0.077 C 
ATOM     17  C   UNL     1      33.454 -10.079 -23.654  0.00  0.00    -0.077 C 
ATOM     18  C   UNL     1      32.198 -12.555 -22.818  0.00  0.00    -0.023 C 
ATOM     19  C   UNL     1      33.755 -11.385 -24.391  0.00  0.00    -0.023 C 
ATOM     20  C   UNL     1      33.570 -12.592 -23.479  0.00  0.00    -0.004 C 
ATOM     21  H   UNL     1      31.437 -10.230 -23.833  0.00  0.00    -0.080 HD
ENDBRANCH  14  15
ENDBRANCH  13  14
ENDBRANCH   2  13
TORSDOF 3
ENDMDL
MODEL 8
REMARK VINA RESULT:      -7.9      9.810     12.522
REMARK  Name = 3047788
REMARK  3 active torsions:
REMARK  status: ('A' for Active; 'I' for Inactive)
REMARK    1  A    between atoms: C_2  and  C_13
REMARK    2  A    between atoms: C_13  and  C_14
REMARK    3  A    between atoms: C_14  and  N_15
REMARK                            x       y       z     vdW  Elec       q    Type
REMARK                         _______ _______ _______ _____ _____    ______ ____
ROOT
ATOM      1  O   UNL     1      32.032 -15.211 -21.336  0.00  0.00    -0.296 OA
ATOM      2  C   UNL     1      33.289 -13.608 -22.661  0.00  0.00    +0.068 C 
ATOM      3  C   UNL     1      33.138 -12.129 -23.037  0.00  0.00    -0.020 C 
ATOM      4  C   UNL     1      32.340 -14.033 -21.529  0.00  0.00    +0.154 C 
ATOM      5  C   UNL     1      34.715 -13.895 -22.151  0.00  0.00    +0.012 C 
ATOM      6  C   UNL     1      31.873 -12.959 -20.582  0.00  0.00    +0.069 C 
ATOM      7  C   UNL     1      32.170 -11.305 -22.428  0.00  0.00    -0.025 C 
ATOM      8  C   UNL     1      31.228 -11.848 -21.387  0.00  0.00    +0.034 C 
ATOM      9  C   UNL     1      33.973 -11.559 -24.018  0.00  0.00    -0.004 C 
ATOM     10  C   UNL     1      32.038  -9.963 -22.824  0.00  0.00    -0.005 C 
ATOM     11  C   UNL     1      33.844 -10.221 -24.393  0.00  0.00    -0.000 C 
ATOM     12  C   UNL     1      32.874  -9.424 -23.799  0.00  0.00    -0.000 C 
ENDROOT
BRANCH   2  13
ATOM     13  C   UNL     1      32.983 -14.488 -23.889  0.00  0.00    -0.012 C 
BRANCH  13  14
ATOM     14  C   UNL     1      34.232 -15.224 -24.345  0.00  0.00    -0.077 C 
BRANCH  14  15
ATOM     15  N   UNL     1      34.088 -16.652 -24.064  0.00  0.00    +0.387 N 
ATOM     16  C   UNL     1      34.873 -17.026 -22.879  0.00  0.00    -0.077 C 
ATOM     17  C   UNL     1      34.482 -17.448 -25.234  0.00  0.00    -0.077 C 
ATOM     18  C   UNL     1      34.694 -18.507 -22.543  0.00  0.00    -0.023 C 
ATOM     19  C   UNL     1      34.292 -18.943 -24.975  0.00  0.00    -0.023 C 
ATOM     20  C   UNL     1      35.050 -19.392 -23.731  0.00  0.00    -0.004 C 
ATOM     21  H   UNL     1      33.106 -16.849 -23.866  0.00  0.00    -0.080 HD
ENDBRANCH  14  15
ENDBRANCH  13  14
ENDBRANCH   2  13
TORSDOF 3
ENDMDL
MODEL 9
REMARK VINA RESULT:      -7.8     10.736     13.504
REMARK  Name = 3047788
REMARK  3 active torsions:
REMARK  status: ('A' for Active; 'I' for Inactive)
REMARK    1  A    between atoms: C_2  and  C_13
REMARK    2  A    between atoms: C_13  and  C_14
REMARK    3  A    between atoms: C_14  and  N_15
REMARK                            x       y       z     vdW  Elec       q    Type
REMARK                         _______ _______ _______ _____ _____    ______ ____
ROOT
ATOM      1  O   UNL     1      32.437 -12.405 -21.400  0.00  0.00    -0.296 OA
ATOM      2  C   UNL     1      33.234 -13.896 -23.146  0.00  0.00    +0.068 C 
ATOM      3  C   UNL     1      33.906 -15.273 -23.197  0.00  0.00    -0.020 C 
ATOM      4  C   UNL     1      32.670 -13.561 -21.756  0.00  0.00    +0.154 C 
ATOM      5  C   UNL     1      32.039 -13.839 -24.116  0.00  0.00    +0.012 C 
ATOM      6  C   UNL     1      32.303 -14.720 -20.865  0.00  0.00    +0.069 C 
ATOM      7  C   UNL     1      34.029 -16.081 -22.048  0.00  0.00    -0.025 C 
ATOM      8  C   UNL     1      33.515 -15.618 -20.711  0.00  0.00    +0.034 C 
ATOM      9  C   UNL     1      34.428 -15.762 -24.411  0.00  0.00    -0.004 C 
ATOM     10  C   UNL     1      34.683 -17.322 -22.127  0.00  0.00    -0.005 C 
ATOM     11  C   UNL     1      35.062 -17.003 -24.481  0.00  0.00    -0.000 C 
ATOM     12  C   UNL     1      35.193 -17.782 -23.339  0.00  0.00    -0.000 C 
ENDROOT
BRANCH   2  13
ATOM     13  C   UNL     1      34.261 -12.806 -23.513  0.00  0.00    -0.012 C 
BRANCH  13  14
ATOM     14  C   UNL     1      33.614 -11.728 -24.367  0.00  0.00    -0.077 C 
BRANCH  14  15
ATOM     15  N   UNL     1      33.721 -10.437 -23.689  0.00  0.00    +0.387 N 
ATOM     16  C   UNL     1      32.404  -9.789 -23.604  0.00  0.00    -0.077 C 
ATOM     17  C   UNL     1      34.693  -9.575 -24.375  0.00  0.00    -0.077 C 
ATOM     18  C   UNL     1      32.490  -8.460 -22.854  0.00  0.00    -0.023 C 
ATOM     19  C   UNL     1      34.853  -8.237 -23.651  0.00  0.00    -0.023 C 
ATOM     20  C   UNL     1      33.513  -7.528 -23.493  0.00  0.00    -0.004 C 
ATOM     21  H   UNL     1      34.056 -10.593 -22.738  0.00  0.00    -0.080 HD
ENDBRANCH  14  15
ENDBRANCH  13  14
ENDBRANCH   2  13
TORSDOF 3
ENDMDL
