MODEL 1
REMARK VINA RESULT:      -5.9      0.000      0.000
REMARK  Name = 3117
REMARK  9 active torsions:
REMARK  status: ('A' for Active; 'I' for Inactive)
REMARK    1  A    between atoms: S_1  and  C_3
REMARK    2  A    between atoms: S_1  and  S_9
REMARK    3  A    between atoms: C_3  and  N_4
REMARK    4  A    between atoms: N_4  and  C_5
REMARK    5  A    between atoms: N_4  and  C_7
REMARK    6  A    between atoms: S_9  and  C_11
REMARK    7  A    between atoms: C_11  and  N_12
REMARK    8  A    between atoms: N_12  and  C_13
REMARK    9  A    between atoms: N_12  and  C_15
REMARK                            x       y       z     vdW  Elec       q    Type
REMARK                         _______ _______ _______ _____ _____    ______ ____
ROOT
ATOM      1  S   UNL     1      34.882 -17.042 -21.578  0.00  0.00    -0.027 S 
ENDROOT
BRANCH   1   3
ATOM      2  S   UNL     1      34.793 -19.145 -23.682  0.00  0.00    -0.027 S 
ATOM      3  C   UNL     1      34.956 -18.755 -22.044  0.00  0.00    +0.121 C 
BRANCH   3   4
ATOM      4  N   UNL     1      35.173 -19.679 -21.002  0.00  0.00    -0.297 N 
BRANCH   4   5
ATOM      5  C   UNL     1      34.120 -20.498 -20.394  0.00  0.00    +0.092 C 
ATOM      6  C   UNL     1      32.751 -19.880 -20.594  0.00  0.00    +0.023 C 
ENDBRANCH   4   5
BRANCH   4   7
ATOM      7  C   UNL     1      36.495 -19.893 -20.408  0.00  0.00    +0.092 C 
ATOM      8  C   UNL     1      36.538 -21.170 -19.595  0.00  0.00    +0.023 C 
ENDBRANCH   4   7
ENDBRANCH   3   4
ENDBRANCH   1   3
BRANCH   1   9
ATOM      9  S   UNL     1      34.928 -16.112 -23.418  0.00  0.00    -0.027 S 
BRANCH   9  11
ATOM     10  S   UNL     1      32.759 -14.882 -21.792  0.00  0.00    -0.027 S 
ATOM     11  C   UNL     1      33.645 -14.895 -23.232  0.00  0.00    +0.121 C 
BRANCH  11  12
ATOM     12  N   UNL     1      33.473 -13.997 -24.306  0.00  0.00    -0.297 N 
BRANCH  12  13
ATOM     13  C   UNL     1      32.818 -14.389 -25.555  0.00  0.00    +0.092 C 
ATOM     14  C   UNL     1      33.241 -13.501 -26.707  0.00  0.00    +0.023 C 
ENDBRANCH  12  13
BRANCH  12  15
ATOM     15  C   UNL     1      33.901 -12.595 -24.286  0.00  0.00    +0.092 C 
ATOM     16  C   UNL     1      32.985 -11.748 -23.428  0.00  0.00    +0.023 C 
ENDBRANCH  12  15
ENDBRANCH  11  12
ENDBRANCH   9  11
ENDBRANCH   1   9
TORSDOF 9
ENDMDL
MODEL 2
REMARK VINA RESULT:      -5.9      0.049      7.394
REMARK  Name = 3117
REMARK  9 active torsions:
REMARK  status: ('A' for Active; 'I' for Inactive)
REMARK    1  A    between atoms: S_1  and  C_3
REMARK    2  A    between atoms: S_1  and  S_9
REMARK    3  A    between atoms: C_3  and  N_4
REMARK    4  A    between atoms: N_4  and  C_5
REMARK    5  A    between atoms: N_4  and  C_7
REMARK    6  A    between atoms: S_9  and  C_11
REMARK    7  A    between atoms: C_11  and  N_12
REMARK    8  A    between atoms: N_12  and  C_13
REMARK    9  A    between atoms: N_12  and  C_15
REMARK                            x       y       z     vdW  Elec       q    Type
REMARK                         _______ _______ _______ _____ _____    ______ ____
ROOT
ATOM      1  S   UNL     1      34.880 -16.094 -23.419  0.00  0.00    -0.027 S 
ENDROOT
BRANCH   1   3
ATOM      2  S   UNL     1      32.731 -14.845 -21.782  0.00  0.00    -0.027 S 
ATOM      3  C   UNL     1      33.615 -14.862 -23.224  0.00  0.00    +0.121 C 
BRANCH   3   4
ATOM      4  N   UNL     1      33.452 -13.957 -24.293  0.00  0.00    -0.297 N 
BRANCH   4   5
ATOM      5  C   UNL     1      33.912 -12.565 -24.271  0.00  0.00    +0.092 C 
ATOM      6  C   UNL     1      32.998 -11.691 -23.438  0.00  0.00    +0.023 C 
ENDBRANCH   4   5
BRANCH   4   7
ATOM      7  C   UNL     1      32.779 -14.330 -25.539  0.00  0.00    +0.092 C 
ATOM      8  C   UNL     1      33.258 -13.488 -26.703  0.00  0.00    +0.023 C 
ENDBRANCH   4   7
ENDBRANCH   3   4
ENDBRANCH   1   3
BRANCH   1   9
ATOM      9  S   UNL     1      34.852 -17.009 -21.571  0.00  0.00    -0.027 S 
BRANCH   9  11
ATOM     10  S   UNL     1      34.796 -19.130 -23.658  0.00  0.00    -0.027 S 
ATOM     11  C   UNL     1      34.945 -18.726 -22.023  0.00  0.00    +0.121 C 
BRANCH  11  12
ATOM     12  N   UNL     1      35.166 -19.640 -20.972  0.00  0.00    -0.297 N 
BRANCH  12  13
ATOM     13  C   UNL     1      36.492 -19.852 -20.387  0.00  0.00    +0.092 C 
ATOM     14  C   UNL     1      36.569 -21.174 -19.651  0.00  0.00    +0.023 C 
ENDBRANCH  12  13
BRANCH  12  15
ATOM     15  C   UNL     1      34.115 -20.447 -20.345  0.00  0.00    +0.092 C 
ATOM     16  C   UNL     1      32.740 -19.876 -20.622  0.00  0.00    +0.023 C 
ENDBRANCH  12  15
ENDBRANCH  11  12
ENDBRANCH   9  11
ENDBRANCH   1   9
TORSDOF 9
ENDMDL
MODEL 3
REMARK VINA RESULT:      -5.9      0.103      7.317
REMARK  Name = 3117
REMARK  9 active torsions:
REMARK  status: ('A' for Active; 'I' for Inactive)
REMARK    1  A    between atoms: S_1  and  C_3
REMARK    2  A    between atoms: S_1  and  S_9
REMARK    3  A    between atoms: C_3  and  N_4
REMARK    4  A    between atoms: N_4  and  C_5
REMARK    5  A    between atoms: N_4  and  C_7
REMARK    6  A    between atoms: S_9  and  C_11
REMARK    7  A    between atoms: C_11  and  N_12
REMARK    8  A    between atoms: N_12  and  C_13
REMARK    9  A    between atoms: N_12  and  C_15
REMARK                            x       y       z     vdW  Elec       q    Type
REMARK                         _______ _______ _______ _____ _____    ______ ____
ROOT
ATOM      1  S   UNL     1      34.958 -15.991 -23.374  0.00  0.00    -0.027 S 
ENDROOT
BRANCH   1   3
ATOM      2  S   UNL     1      32.732 -14.764 -21.827  0.00  0.00    -0.027 S 
ATOM      3  C   UNL     1      33.633 -14.814 -23.258  0.00  0.00    +0.121 C 
BRANCH   3   4
ATOM      4  N   UNL     1      33.440 -13.975 -24.374  0.00  0.00    -0.297 N 
BRANCH   4   5
ATOM      5  C   UNL     1      32.779 -14.393 -25.614  0.00  0.00    +0.092 C 
ATOM      6  C   UNL     1      33.201 -13.531 -26.786  0.00  0.00    +0.023 C 
ENDBRANCH   4   5
BRANCH   4   7
ATOM      7  C   UNL     1      33.910 -12.588 -24.402  0.00  0.00    +0.092 C 
ATOM      8  C   UNL     1      33.068 -11.698 -23.512  0.00  0.00    +0.023 C 
ENDBRANCH   4   7
ENDBRANCH   3   4
ENDBRANCH   1   3
BRANCH   1   9
ATOM      9  S   UNL     1      34.815 -16.955 -21.557  0.00  0.00    -0.027 S 
BRANCH   9  11
ATOM     10  S   UNL     1      34.790 -19.030 -23.690  0.00  0.00    -0.027 S 
ATOM     11  C   UNL     1      34.941 -18.659 -22.047  0.00  0.00    +0.121 C 
BRANCH  11  12
ATOM     12  N   UNL     1      35.187 -19.591 -21.018  0.00  0.00    -0.297 N 
BRANCH  12  13
ATOM     13  C   UNL     1      34.141 -20.471 -20.494  0.00  0.00    +0.092 C 
ATOM     14  C   UNL     1      32.773 -19.825 -20.586  0.00  0.00    +0.023 C 
ENDBRANCH  12  13
BRANCH  12  15
ATOM     15  C   UNL     1      36.494 -19.795 -20.385  0.00  0.00    +0.092 C 
ATOM     16  C   UNL     1      36.522 -21.072 -19.572  0.00  0.00    +0.023 C 
ENDBRANCH  12  15
ENDBRANCH  11  12
ENDBRANCH   9  11
ENDBRANCH   1   9
TORSDOF 9
ENDMDL
MODEL 4
REMARK VINA RESULT:      -5.9      2.690      4.135
REMARK  Name = 3117
REMARK  9 active torsions:
REMARK  status: ('A' for Active; 'I' for Inactive)
REMARK    1  A    between atoms: S_1  and  C_3
REMARK    2  A    between atoms: S_1  and  S_9
REMARK    3  A    between atoms: C_3  and  N_4
REMARK    4  A    between atoms: N_4  and  C_5
REMARK    5  A    between atoms: N_4  and  C_7
REMARK    6  A    between atoms: S_9  and  C_11
REMARK    7  A    between atoms: C_11  and  N_12
REMARK    8  A    between atoms: N_12  and  C_13
REMARK    9  A    between atoms: N_12  and  C_15
REMARK                            x       y       z     vdW  Elec       q    Type
REMARK                         _______ _______ _______ _____ _____    ______ ____
ROOT
ATOM      1  S   UNL     1      34.166 -14.580 -23.421  0.00  0.00    -0.027 S 
ENDROOT
BRANCH   1   3
ATOM      2  S   UNL     1      34.466 -15.497 -20.606  0.00  0.00    -0.027 S 
ATOM      3  C   UNL     1      34.487 -15.879 -22.253  0.00  0.00    +0.121 C 
BRANCH   3   4
ATOM      4  N   UNL     1      34.716 -17.162 -22.791  0.00  0.00    -0.297 N 
BRANCH   4   5
ATOM      5  C   UNL     1      34.894 -17.437 -24.221  0.00  0.00    +0.092 C 
ATOM      6  C   UNL     1      34.504 -18.859 -24.565  0.00  0.00    +0.023 C 
ENDBRANCH   4   5
BRANCH   4   7
ATOM      7  C   UNL     1      34.779 -18.363 -21.955  0.00  0.00    +0.092 C 
ATOM      8  C   UNL     1      36.180 -18.603 -21.433  0.00  0.00    +0.023 C 
ENDBRANCH   4   7
ENDBRANCH   3   4
ENDBRANCH   1   3
BRANCH   1   9
ATOM      9  S   UNL     1      32.551 -13.636 -22.555  0.00  0.00    -0.027 S 
BRANCH   9  11
ATOM     10  S   UNL     1      33.814 -11.681 -24.409  0.00  0.00    -0.027 S 
ATOM     11  C   UNL     1      32.787 -11.959 -23.095  0.00  0.00    +0.121 C 
BRANCH  11  12
ATOM     12  N   UNL     1      32.069 -10.968 -22.394  0.00  0.00    -0.297 N 
BRANCH  12  13
ATOM     13  C   UNL     1      32.431  -9.550 -22.456  0.00  0.00    +0.092 C 
ATOM     14  C   UNL     1      31.364  -8.735 -23.157  0.00  0.00    +0.023 C 
ENDBRANCH  12  13
BRANCH  12  15
ATOM     15  C   UNL     1      30.893 -11.235 -21.560  0.00  0.00    +0.092 C 
ATOM     16  C   UNL     1      31.191 -11.008 -20.093  0.00  0.00    +0.023 C 
ENDBRANCH  12  15
ENDBRANCH  11  12
ENDBRANCH   9  11
ENDBRANCH   1   9
TORSDOF 9
ENDMDL
MODEL 5
REMARK VINA RESULT:      -5.9      2.678      7.434
REMARK  Name = 3117
REMARK  9 active torsions:
REMARK  status: ('A' for Active; 'I' for Inactive)
REMARK    1  A    between atoms: S_1  and  C_3
REMARK    2  A    between atoms: S_1  and  S_9
REMARK    3  A    between atoms: C_3  and  N_4
REMARK    4  A    between atoms: N_4  and  C_5
REMARK    5  A    between atoms: N_4  and  C_7
REMARK    6  A    between atoms: S_9  and  C_11
REMARK    7  A    between atoms: C_11  and  N_12
REMARK    8  A    between atoms: N_12  and  C_13
REMARK    9  A    between atoms: N_12  and  C_15
REMARK                            x       y       z     vdW  Elec       q    Type
REMARK                         _______ _______ _______ _____ _____    ______ ____
ROOT
ATOM      1  S   UNL     1      32.417 -13.710 -22.336  0.00  0.00    -0.027 S 
ENDROOT
BRANCH   1   3
ATOM      2  S   UNL     1      33.716 -11.874 -24.284  0.00  0.00    -0.027 S 
ATOM      3  C   UNL     1      32.697 -12.066 -22.949  0.00  0.00    +0.121 C 
BRANCH   3   4
ATOM      4  N   UNL     1      32.018 -11.026 -22.282  0.00  0.00    -0.297 N 
BRANCH   4   5
ATOM      5  C   UNL     1      30.853 -11.224 -21.414  0.00  0.00    +0.092 C 
ATOM      6  C   UNL     1      31.201 -10.998 -19.957  0.00  0.00    +0.023 C 
ENDBRANCH   4   5
BRANCH   4   7
ATOM      7  C   UNL     1      32.414  -9.622 -22.414  0.00  0.00    +0.092 C 
ATOM      8  C   UNL     1      31.363  -8.814 -23.148  0.00  0.00    +0.023 C 
ENDBRANCH   4   7
ENDBRANCH   3   4
ENDBRANCH   1   3
BRANCH   1   9
ATOM      9  S   UNL     1      33.739 -14.806 -23.477  0.00  0.00    -0.027 S 
BRANCH   9  11
ATOM     10  S   UNL     1      34.438 -15.506 -20.671  0.00  0.00    -0.027 S 
ATOM     11  C   UNL     1      34.343 -15.983 -22.290  0.00  0.00    +0.121 C 
BRANCH  11  12
ATOM     12  N   UNL     1      34.679 -17.259 -22.787  0.00  0.00    -0.297 N 
BRANCH  12  13
ATOM     13  C   UNL     1      34.984 -17.491 -24.201  0.00  0.00    +0.092 C 
ATOM     14  C   UNL     1      34.459 -18.832 -24.669  0.00  0.00    +0.023 C 
ENDBRANCH  12  13
BRANCH  12  15
ATOM     15  C   UNL     1      34.781 -18.466 -21.962  0.00  0.00    +0.092 C 
ATOM     16  C   UNL     1      36.183 -18.650 -21.420  0.00  0.00    +0.023 C 
ENDBRANCH  12  15
ENDBRANCH  11  12
ENDBRANCH   9  11
ENDBRANCH   1   9
TORSDOF 9
ENDMDL
MODEL 6
REMARK VINA RESULT:      -5.9      2.837      4.388
REMARK  Name = 3117
REMARK  9 active torsions:
REMARK  status: ('A' for Active; 'I' for Inactive)
REMARK    1  A    between atoms: S_1  and  C_3
REMARK    2  A    between atoms: S_1  and  S_9
REMARK    3  A    between atoms: C_3  and  N_4
REMARK    4  A    between atoms: N_4  and  C_5
REMARK    5  A    between atoms: N_4  and  C_7
REMARK    6  A    between atoms: S_9  and  C_11
REMARK    7  A    between atoms: C_11  and  N_12
REMARK    8  A    between atoms: N_12  and  C_13
REMARK    9  A    between atoms: N_12  and  C_15
REMARK                            x       y       z     vdW  Elec       q    Type
REMARK                         _______ _______ _______ _____ _____    ______ ____
ROOT
ATOM      1  S   UNL     1      33.900 -14.435 -23.565  0.00  0.00    -0.027 S 
ENDROOT
BRANCH   1   3
ATOM      2  S   UNL     1      34.439 -15.334 -20.779  0.00  0.00    -0.027 S 
ATOM      3  C   UNL     1      34.403 -15.705 -22.429  0.00  0.00    +0.121 C 
BRANCH   3   4
ATOM      4  N   UNL     1      34.718 -16.959 -22.992  0.00  0.00    -0.297 N 
BRANCH   4   5
ATOM      5  C   UNL     1      35.010 -17.175 -24.412  0.00  0.00    +0.092 C 
ATOM      6  C   UNL     1      34.294 -18.398 -24.947  0.00  0.00    +0.023 C 
ENDBRANCH   4   5
BRANCH   4   7
ATOM      7  C   UNL     1      34.764 -18.186 -22.194  0.00  0.00    +0.092 C 
ATOM      8  C   UNL     1      36.181 -18.533 -21.788  0.00  0.00    +0.023 C 
ENDBRANCH   4   7
ENDBRANCH   3   4
ENDBRANCH   1   3
BRANCH   1   9
ATOM      9  S   UNL     1      32.399 -13.502 -22.502  0.00  0.00    -0.027 S 
BRANCH   9  11
ATOM     10  S   UNL     1      33.727 -11.450 -24.199  0.00  0.00    -0.027 S 
ATOM     11  C   UNL     1      32.668 -11.798 -22.927  0.00  0.00    +0.121 C 
BRANCH  11  12
ATOM     12  N   UNL     1      31.949 -10.844 -22.178  0.00  0.00    -0.297 N 
BRANCH  12  13
ATOM     13  C   UNL     1      30.854 -11.220 -21.280  0.00  0.00    +0.092 C 
ATOM     14  C   UNL     1      31.209 -10.956 -19.831  0.00  0.00    +0.023 C 
ENDBRANCH  12  13
BRANCH  12  15
ATOM     15  C   UNL     1      32.222  -9.403 -22.195  0.00  0.00    +0.092 C 
ATOM     16  C   UNL     1      31.360  -8.688 -23.215  0.00  0.00    +0.023 C 
ENDBRANCH  12  15
ENDBRANCH  11  12
ENDBRANCH   9  11
ENDBRANCH   1   9
TORSDOF 9
ENDMDL
MODEL 7
REMARK VINA RESULT:      -5.8      2.767      7.447
REMARK  Name = 3117
REMARK  9 active torsions:
REMARK  status: ('A' for Active; 'I' for Inactive)
REMARK    1  A    between atoms: S_1  and  C_3
REMARK    2  A    between atoms: S_1  and  S_9
REMARK    3  A    between atoms: C_3  and  N_4
REMARK    4  A    between atoms: N_4  and  C_5
REMARK    5  A    between atoms: N_4  and  C_7
REMARK    6  A    between atoms: S_9  and  C_11
REMARK    7  A    between atoms: C_11  and  N_12
REMARK    8  A    between atoms: N_12  and  C_13
REMARK    9  A    between atoms: N_12  and  C_15
REMARK                            x       y       z     vdW  Elec       q    Type
REMARK                         _______ _______ _______ _____ _____    ______ ____
ROOT
ATOM      1  S   UNL     1      32.388 -13.577 -22.429  0.00  0.00    -0.027 S 
ENDROOT
BRANCH   1   3
ATOM      2  S   UNL     1      33.752 -11.629 -24.218  0.00  0.00    -0.027 S 
ATOM      3  C   UNL     1      32.688 -11.899 -22.932  0.00  0.00    +0.121 C 
BRANCH   3   4
ATOM      4  N   UNL     1      31.987 -10.900 -22.227  0.00  0.00    -0.297 N 
BRANCH   4   5
ATOM      5  C   UNL     1      32.308  -9.471 -22.286  0.00  0.00    +0.092 C 
ATOM      6  C   UNL     1      31.383  -8.732 -23.231  0.00  0.00    +0.023 C 
ENDBRANCH   4   5
BRANCH   4   7
ATOM      7  C   UNL     1      30.863 -11.209 -21.339  0.00  0.00    +0.092 C 
ATOM      8  C   UNL     1      31.210 -10.939 -19.890  0.00  0.00    +0.023 C 
ENDBRANCH   4   7
ENDBRANCH   3   4
ENDBRANCH   1   3
BRANCH   1   9
ATOM      9  S   UNL     1      33.798 -14.597 -23.535  0.00  0.00    -0.027 S 
BRANCH   9  11
ATOM     10  S   UNL     1      34.432 -15.360 -20.730  0.00  0.00    -0.027 S 
ATOM     11  C   UNL     1      34.367 -15.803 -22.360  0.00  0.00    +0.121 C 
BRANCH  11  12
ATOM     12  N   UNL     1      34.703 -17.071 -22.877  0.00  0.00    -0.297 N 
BRANCH  12  13
ATOM     13  C   UNL     1      35.056 -17.273 -24.284  0.00  0.00    +0.092 C 
ATOM     14  C   UNL     1      34.375 -18.499 -24.857  0.00  0.00    +0.023 C 
ENDBRANCH  12  13
BRANCH  12  15
ATOM     15  C   UNL     1      34.759 -18.300 -22.079  0.00  0.00    +0.092 C 
ATOM     16  C   UNL     1      36.173 -18.607 -21.633  0.00  0.00    +0.023 C 
ENDBRANCH  12  15
ENDBRANCH  11  12
ENDBRANCH   9  11
ENDBRANCH   1   9
TORSDOF 9
ENDMDL
MODEL 8
REMARK VINA RESULT:      -5.7      3.405      8.487
REMARK  Name = 3117
REMARK  9 active torsions:
REMARK  status: ('A' for Active; 'I' for Inactive)
REMARK    1  A    between atoms: S_1  and  C_3
REMARK    2  A    between atoms: S_1  and  S_9
REMARK    3  A    between atoms: C_3  and  N_4
REMARK    4  A    between atoms: N_4  and  C_5
REMARK    5  A    between atoms: N_4  and  C_7
REMARK    6  A    between atoms: S_9  and  C_11
REMARK    7  A    between atoms: C_11  and  N_12
REMARK    8  A    between atoms: N_12  and  C_13
REMARK    9  A    between atoms: N_12  and  C_15
REMARK                            x       y       z     vdW  Elec       q    Type
REMARK                         _______ _______ _______ _____ _____    ______ ____
ROOT
ATOM      1  S   UNL     1      33.404 -11.769 -23.803  0.00  0.00    -0.027 S 
ENDROOT
BRANCH   1   3
ATOM      2  S   UNL     1      31.283 -10.798 -21.955  0.00  0.00    -0.027 S 
ATOM      3  C   UNL     1      32.563 -10.428 -22.997  0.00  0.00    +0.121 C 
BRANCH   3   4
ATOM      4  N   UNL     1      33.046  -9.132 -23.269  0.00  0.00    -0.297 N 
BRANCH   4   5
ATOM      5  C   UNL     1      34.350  -8.849 -23.878  0.00  0.00    +0.092 C 
ATOM      6  C   UNL     1      34.857  -7.475 -23.491  0.00  0.00    +0.023 C 
ENDBRANCH   4   5
BRANCH   4   7
ATOM      7  C   UNL     1      32.280  -7.926 -22.945  0.00  0.00    +0.092 C 
ATOM      8  C   UNL     1      31.206  -7.656 -23.978  0.00  0.00    +0.023 C 
ENDBRANCH   4   7
ENDBRANCH   3   4
ENDBRANCH   1   3
BRANCH   1   9
ATOM      9  S   UNL     1      32.505 -13.406 -22.929  0.00  0.00    -0.027 S 
BRANCH   9  11
ATOM     10  S   UNL     1      33.285 -14.795 -25.442  0.00  0.00    -0.027 S 
ATOM     11  C   UNL     1      33.330 -14.747 -23.752  0.00  0.00    +0.121 C 
BRANCH  11  12
ATOM     12  N   UNL     1      33.994 -15.676 -22.925  0.00  0.00    -0.297 N 
BRANCH  12  13
ATOM     13  C   UNL     1      35.181 -16.410 -23.371  0.00  0.00    +0.092 C 
ATOM     14  C   UNL     1      34.910 -17.897 -23.470  0.00  0.00    +0.023 C 
ENDBRANCH  12  13
BRANCH  12  15
ATOM     15  C   UNL     1      33.595 -15.991 -21.550  0.00  0.00    +0.092 C 
ATOM     16  C   UNL     1      34.602 -15.467 -20.547  0.00  0.00    +0.023 C 
ENDBRANCH  12  15
ENDBRANCH  11  12
ENDBRANCH   9  11
ENDBRANCH   1   9
TORSDOF 9
ENDMDL
MODEL 9
REMARK VINA RESULT:      -5.7      4.102      8.918
REMARK  Name = 3117
REMARK  9 active torsions:
REMARK  status: ('A' for Active; 'I' for Inactive)
REMARK    1  A    between atoms: S_1  and  C_3
REMARK    2  A    between atoms: S_1  and  S_9
REMARK    3  A    between atoms: C_3  and  N_4
REMARK    4  A    between atoms: N_4  and  C_5
REMARK    5  A    between atoms: N_4  and  C_7
REMARK    6  A    between atoms: S_9  and  C_11
REMARK    7  A    between atoms: C_11  and  N_12
REMARK    8  A    between atoms: N_12  and  C_13
REMARK    9  A    between atoms: N_12  and  C_15
REMARK                            x       y       z     vdW  Elec       q    Type
REMARK                         _______ _______ _______ _____ _____    ______ ____
ROOT
ATOM      1  S   UNL     1      35.662 -20.796 -20.151  0.00  0.00    -0.027 S 
ENDROOT
BRANCH   1   3
ATOM      2  S   UNL     1      32.836 -20.003 -20.643  0.00  0.00    -0.027 S 
ATOM      3  C   UNL     1      34.466 -19.861 -21.073  0.00  0.00    +0.121 C 
BRANCH   3   4
ATOM      4  N   UNL     1      34.971 -19.036 -22.098  0.00  0.00    -0.297 N 
BRANCH   4   5
ATOM      5  C   UNL     1      34.822 -19.316 -23.530  0.00  0.00    +0.092 C 
ATOM      6  C   UNL     1      34.872 -18.045 -24.352  0.00  0.00    +0.023 C 
ENDBRANCH   4   5
BRANCH   4   7
ATOM      7  C   UNL     1      35.723 -17.811 -21.819  0.00  0.00    +0.092 C 
ATOM      8  C   UNL     1      34.927 -16.855 -20.955  0.00  0.00    +0.023 C 
ENDBRANCH   4   7
ENDBRANCH   3   4
ENDBRANCH   1   3
BRANCH   1   9
ATOM      9  S   UNL     1      34.473 -22.237 -19.276  0.00  0.00    -0.027 S 
BRANCH   9  11
ATOM     10  S   UNL     1      36.782 -21.777 -17.455  0.00  0.00    -0.027 S 
ATOM     11  C   UNL     1      35.218 -22.384 -17.668  0.00  0.00    +0.121 C 
BRANCH  11  12
ATOM     12  N   UNL     1      34.429 -22.983 -16.665  0.00  0.00    -0.297 N 
BRANCH  12  13
ATOM     13  C   UNL     1      33.063 -23.445 -16.917  0.00  0.00    +0.092 C 
ATOM     14  C   UNL     1      32.161 -23.189 -15.726  0.00  0.00    +0.023 C 
ENDBRANCH  12  13
BRANCH  12  15
ATOM     15  C   UNL     1      34.884 -23.225 -15.292  0.00  0.00    +0.092 C 
ATOM     16  C   UNL     1      35.515 -24.595 -15.151  0.00  0.00    +0.023 C 
ENDBRANCH  12  15
ENDBRANCH  11  12
ENDBRANCH   9  11
ENDBRANCH   1   9
TORSDOF 9
ENDMDL
