MODEL 1
REMARK VINA RESULT:      -9.8      0.000      0.000
REMARK  Name = 15947913
REMARK  14 active torsions:
REMARK  status: ('A' for Active; 'I' for Inactive)
REMARK    1  A    between atoms: C_1  and  N_3
REMARK    2  A    between atoms: C_1  and  C_13
REMARK    3  A    between atoms: C_1  and  C_30
REMARK    4  A    between atoms: C_4  and  C_6
REMARK    5  A    between atoms: C_6  and  C_7
REMARK    6  A    between atoms: C_7  and  C_10
REMARK    7  A    between atoms: C_13  and  O_14
REMARK    8  A    between atoms: C_13  and  C_16
REMARK    9  A    between atoms: C_16  and  N_17
REMARK   10  A    between atoms: N_17  and  S_18
REMARK   11  A    between atoms: N_17  and  C_26
REMARK   12  A    between atoms: S_18  and  C_22
REMARK   13  A    between atoms: C_26  and  C_27
REMARK   14  A    between atoms: C_30  and  C_31
REMARK                            x       y       z     vdW  Elec       q    Type
REMARK                         _______ _______ _______ _____ _____    ______ ____
ROOT
ATOM      1  C   UNL     1      33.809 -24.132 -13.877  0.00  0.00    +0.104 C 
ENDROOT
BRANCH   1   3
ATOM      2  O   UNL     1      34.851 -24.951 -11.312  0.00  0.00    -0.275 OA
ATOM      3  N   UNL     1      34.960 -23.590 -13.191  0.00  0.00    -0.303 N 
ATOM      4  C   UNL     1      35.386 -24.051 -11.954  0.00  0.00    +0.223 C 
ATOM      5  H   UNL     1      35.463 -22.861 -13.620  0.00  0.00    +0.149 HD
BRANCH   4   6
ATOM      6  C   UNL     1      36.616 -23.299 -11.473  0.00  0.00    +0.095 C 
BRANCH   6   7
ATOM      7  C   UNL     1      37.895 -23.713 -12.196  0.00  0.00    +0.095 C 
BRANCH   7  10
ATOM      8  O   UNL     1      37.969 -26.089 -11.719  0.00  0.00    -0.275 OA
ATOM      9  N   UNL     1      37.901 -25.380 -13.930  0.00  0.00    -0.303 N 
ATOM     10  C   UNL     1      37.928 -25.190 -12.557  0.00  0.00    +0.223 C 
ATOM     11  C   UNL     1      37.918 -26.688 -14.542  0.00  0.00    +0.111 C 
ATOM     12  H   UNL     1      37.868 -24.588 -14.514  0.00  0.00    +0.149 HD
ENDBRANCH   7  10
ENDBRANCH   6   7
ENDBRANCH   4   6
ENDBRANCH   1   3
BRANCH   1  13
ATOM     13  C   UNL     1      34.060 -24.192 -15.400  0.00  0.00    +0.146 C 
BRANCH  13  14
ATOM     14  O   UNL     1      35.232 -24.966 -15.652  0.00  0.00    -0.381 OA
ATOM     15  H   UNL     1      34.993 -25.903 -15.723  0.00  0.00    +0.210 HD
ENDBRANCH  13  14
BRANCH  13  16
ATOM     16  C   UNL     1      34.227 -22.801 -16.019  0.00  0.00    +0.127 C 
BRANCH  16  17
ATOM     17  N   UNL     1      34.713 -22.928 -17.413  0.00  0.00    -0.150 NA
BRANCH  17  18
ATOM     18  S   UNL     1      33.527 -22.954 -18.667  0.00  0.00    +0.096 S 
ATOM     19  O   UNL     1      32.202 -22.838 -18.085  0.00  0.00    -0.150 OA
ATOM     20  O   UNL     1      33.821 -24.028 -19.596  0.00  0.00    -0.150 OA
BRANCH  18  22
ATOM     21  O   UNL     1      32.680 -20.656 -19.892  0.00  0.00    -0.432 OA
ATOM     22  C   UNL     1      33.754 -21.442 -19.615  0.00  0.00    +0.267 C 
ATOM     23  C   UNL     1      34.900 -20.898 -20.146  0.00  0.00    +0.062 C 
ATOM     24  C   UNL     1      34.505 -19.702 -20.791  0.00  0.00    +0.045 C 
ATOM     25  C   UNL     1      33.146 -19.599 -20.608  0.00  0.00    +0.181 C 
ENDBRANCH  18  22
ENDBRANCH  17  18
BRANCH  17  26
ATOM     26  C   UNL     1      35.937 -22.119 -17.655  0.00  0.00    +0.096 C 
BRANCH  26  27
ATOM     27  C   UNL     1      36.661 -21.859 -16.377  0.00  0.00    +0.018 C 
ATOM     28  C   UNL     1      38.015 -21.215 -16.420  0.00  0.00    +0.001 C 
ATOM     29  C   UNL     1      37.885 -22.664 -16.051  0.00  0.00    +0.001 C 
ENDBRANCH  26  27
ENDBRANCH  17  26
ENDBRANCH  16  17
ENDBRANCH  13  16
ENDBRANCH   1  13
BRANCH   1  30
ATOM     30  C   UNL     1      32.567 -23.308 -13.489  0.00  0.00    +0.048 C 
BRANCH  30  31
ATOM     31  C   UNL     1      31.302 -23.741 -14.190  0.00  0.00    -0.020 C 
ATOM     32  C   UNL     1      30.867 -25.062 -14.090  0.00  0.00    -0.004 C 
ATOM     33  C   UNL     1      30.568 -22.819 -14.936  0.00  0.00    -0.004 C 
ATOM     34  C   UNL     1      29.697 -25.462 -14.737  0.00  0.00    -0.000 C 
ATOM     35  C   UNL     1      29.399 -23.219 -15.584  0.00  0.00    -0.000 C 
ATOM     36  C   UNL     1      28.964 -24.540 -15.484  0.00  0.00    -0.000 C 
ENDBRANCH  30  31
ENDBRANCH   1  30
TORSDOF 14
ENDMDL
MODEL 2
REMARK VINA RESULT:      -9.6      2.180      5.718
REMARK  Name = 15947913
REMARK  14 active torsions:
REMARK  status: ('A' for Active; 'I' for Inactive)
REMARK    1  A    between atoms: C_1  and  N_3
REMARK    2  A    between atoms: C_1  and  C_13
REMARK    3  A    between atoms: C_1  and  C_30
REMARK    4  A    between atoms: C_4  and  C_6
REMARK    5  A    between atoms: C_6  and  C_7
REMARK    6  A    between atoms: C_7  and  C_10
REMARK    7  A    between atoms: C_13  and  O_14
REMARK    8  A    between atoms: C_13  and  C_16
REMARK    9  A    between atoms: C_16  and  N_17
REMARK   10  A    between atoms: N_17  and  S_18
REMARK   11  A    between atoms: N_17  and  C_26
REMARK   12  A    between atoms: S_18  and  C_22
REMARK   13  A    between atoms: C_26  and  C_27
REMARK   14  A    between atoms: C_30  and  C_31
REMARK                            x       y       z     vdW  Elec       q    Type
REMARK                         _______ _______ _______ _____ _____    ______ ____
ROOT
ATOM      1  C   UNL     1      34.352 -22.567 -17.300  0.00  0.00    +0.104 C 
ENDROOT
BRANCH   1   3
ATOM      2  O   UNL     1      36.769 -20.993 -17.164  0.00  0.00    -0.275 OA
ATOM      3  N   UNL     1      35.616 -22.959 -16.718  0.00  0.00    -0.303 N 
ATOM      4  C   UNL     1      36.727 -22.129 -16.700  0.00  0.00    +0.223 C 
ATOM      5  H   UNL     1      35.690 -23.854 -16.316  0.00  0.00    +0.149 HD
BRANCH   4   6
ATOM      6  C   UNL     1      37.913 -22.800 -16.027  0.00  0.00    +0.095 C 
BRANCH   6   7
ATOM      7  C   UNL     1      37.537 -24.077 -15.280  0.00  0.00    +0.095 C 
BRANCH   7  10
ATOM      8  O   UNL     1      38.867 -24.339 -13.271  0.00  0.00    -0.275 OA
ATOM      9  N   UNL     1      39.453 -25.527 -15.180  0.00  0.00    -0.303 N 
ATOM     10  C   UNL     1      38.677 -24.641 -14.447  0.00  0.00    +0.223 C 
ATOM     11  C   UNL     1      40.599 -26.210 -14.625  0.00  0.00    +0.111 C 
ATOM     12  H   UNL     1      39.212 -25.698 -16.119  0.00  0.00    +0.149 HD
ENDBRANCH   7  10
ENDBRANCH   6   7
ENDBRANCH   4   6
ENDBRANCH   1   3
BRANCH   1  13
ATOM     13  C   UNL     1      33.182 -23.315 -16.624  0.00  0.00    +0.146 C 
BRANCH  13  14
ATOM     14  O   UNL     1      32.133 -23.501 -17.574  0.00  0.00    -0.381 OA
ATOM     15  H   UNL     1      32.260 -24.344 -18.035  0.00  0.00    +0.210 HD
ENDBRANCH  13  14
BRANCH  13  16
ATOM     16  C   UNL     1      32.637 -22.564 -15.406  0.00  0.00    +0.127 C 
BRANCH  16  17
ATOM     17  N   UNL     1      32.613 -23.467 -14.231  0.00  0.00    -0.150 NA
BRANCH  17  18
ATOM     18  S   UNL     1      31.140 -24.308 -13.907  0.00  0.00    +0.096 S 
ATOM     19  O   UNL     1      30.657 -23.951 -12.586  0.00  0.00    -0.150 OA
ATOM     20  O   UNL     1      31.281 -25.703 -14.278  0.00  0.00    -0.150 OA
BRANCH  18  22
ATOM     21  O   UNL     1      29.549 -24.372 -16.134  0.00  0.00    -0.432 OA
ATOM     22  C   UNL     1      29.914 -23.646 -15.045  0.00  0.00    +0.267 C 
ATOM     23  C   UNL     1      29.229 -22.453 -15.008  0.00  0.00    +0.062 C 
ATOM     24  C   UNL     1      28.390 -22.446 -16.147  0.00  0.00    +0.045 C 
ATOM     25  C   UNL     1      28.621 -23.635 -16.800  0.00  0.00    +0.181 C 
ENDBRANCH  18  22
ENDBRANCH  17  18
BRANCH  17  26
ATOM     26  C   UNL     1      33.877 -24.238 -14.091  0.00  0.00    +0.096 C 
BRANCH  26  27
ATOM     27  C   UNL     1      34.355 -24.218 -12.678  0.00  0.00    +0.018 C 
ATOM     28  C   UNL     1      35.596 -23.448 -12.335  0.00  0.00    +0.001 C 
ATOM     29  C   UNL     1      35.617 -24.949 -12.321  0.00  0.00    +0.001 C 
ENDBRANCH  26  27
ENDBRANCH  17  26
ENDBRANCH  16  17
ENDBRANCH  13  16
ENDBRANCH   1  13
BRANCH   1  30
ATOM     30  C   UNL     1      34.421 -22.781 -18.825  0.00  0.00    +0.048 C 
BRANCH  30  31
ATOM     31  C   UNL     1      34.279 -21.512 -19.628  0.00  0.00    -0.020 C 
ATOM     32  C   UNL     1      33.018 -20.951 -19.829  0.00  0.00    -0.004 C 
ATOM     33  C   UNL     1      35.409 -20.899 -20.170  0.00  0.00    -0.004 C 
ATOM     34  C   UNL     1      32.887 -19.777 -20.572  0.00  0.00    -0.000 C 
ATOM     35  C   UNL     1      35.279 -19.725 -20.913  0.00  0.00    -0.000 C 
ATOM     36  C   UNL     1      34.017 -19.165 -21.113  0.00  0.00    -0.000 C 
ENDBRANCH  30  31
ENDBRANCH   1  30
TORSDOF 14
ENDMDL
MODEL 3
REMARK VINA RESULT:      -9.6      2.111      6.523
REMARK  Name = 15947913
REMARK  14 active torsions:
REMARK  status: ('A' for Active; 'I' for Inactive)
REMARK    1  A    between atoms: C_1  and  N_3
REMARK    2  A    between atoms: C_1  and  C_13
REMARK    3  A    between atoms: C_1  and  C_30
REMARK    4  A    between atoms: C_4  and  C_6
REMARK    5  A    between atoms: C_6  and  C_7
REMARK    6  A    between atoms: C_7  and  C_10
REMARK    7  A    between atoms: C_13  and  O_14
REMARK    8  A    between atoms: C_13  and  C_16
REMARK    9  A    between atoms: C_16  and  N_17
REMARK   10  A    between atoms: N_17  and  S_18
REMARK   11  A    between atoms: N_17  and  C_26
REMARK   12  A    between atoms: S_18  and  C_22
REMARK   13  A    between atoms: C_26  and  C_27
REMARK   14  A    between atoms: C_30  and  C_31
REMARK                            x       y       z     vdW  Elec       q    Type
REMARK                         _______ _______ _______ _____ _____    ______ ____
ROOT
ATOM      1  C   UNL     1      32.617 -23.903 -14.832  0.00  0.00    +0.104 C 
ENDROOT
BRANCH   1   3
ATOM      2  O   UNL     1      31.868 -22.411 -17.187  0.00  0.00    -0.275 OA
ATOM      3  N   UNL     1      33.290 -23.900 -16.111  0.00  0.00    -0.303 N 
ATOM      4  C   UNL     1      32.852 -23.146 -17.190  0.00  0.00    +0.223 C 
ATOM      5  H   UNL     1      34.093 -24.457 -16.221  0.00  0.00    +0.149 HD
BRANCH   4   6
ATOM      6  C   UNL     1      33.748 -23.337 -18.403  0.00  0.00    +0.095 C 
BRANCH   6   7
ATOM      7  C   UNL     1      34.521 -22.078 -18.785  0.00  0.00    +0.095 C 
BRANCH   7  10
ATOM      8  O   UNL     1      32.671 -21.470 -20.228  0.00  0.00    -0.275 OA
ATOM      9  N   UNL     1      34.595 -20.169 -20.246  0.00  0.00    -0.303 N 
ATOM     10  C   UNL     1      33.807 -21.230 -19.825  0.00  0.00    +0.223 C 
ATOM     11  C   UNL     1      34.154 -19.205 -21.228  0.00  0.00    +0.111 C 
ATOM     12  H   UNL     1      35.495 -20.068 -19.859  0.00  0.00    +0.149 HD
ENDBRANCH   7  10
ENDBRANCH   6   7
ENDBRANCH   4   6
ENDBRANCH   1   3
BRANCH   1  13
ATOM     13  C   UNL     1      33.589 -24.316 -13.704  0.00  0.00    +0.146 C 
BRANCH  13  14
ATOM     14  O   UNL     1      33.561 -23.327 -12.676  0.00  0.00    -0.381 OA
ATOM     15  H   UNL     1      32.771 -23.451 -12.128  0.00  0.00    +0.210 HD
ENDBRANCH  13  14
BRANCH  13  16
ATOM     16  C   UNL     1      35.025 -24.486 -14.206  0.00  0.00    +0.127 C 
BRANCH  16  17
ATOM     17  N   UNL     1      35.950 -23.703 -13.354  0.00  0.00    -0.150 NA
BRANCH  17  18
ATOM     18  S   UNL     1      37.025 -24.585 -12.331  0.00  0.00    +0.096 S 
ATOM     19  O   UNL     1      36.366 -25.787 -11.855  0.00  0.00    -0.150 OA
ATOM     20  O   UNL     1      37.656 -23.680 -11.389  0.00  0.00    -0.150 OA
BRANCH  18  22
ATOM     21  O   UNL     1      39.601 -24.626 -13.257  0.00  0.00    -0.432 OA
ATOM     22  C   UNL     1      38.363 -25.171 -13.381  0.00  0.00    +0.267 C 
ATOM     23  C   UNL     1      38.358 -26.143 -14.355  0.00  0.00    +0.062 C 
ATOM     24  C   UNL     1      39.678 -26.197 -14.862  0.00  0.00    +0.045 C 
ATOM     25  C   UNL     1      40.396 -25.256 -14.161  0.00  0.00    +0.181 C 
ENDBRANCH  18  22
ENDBRANCH  17  18
BRANCH  17  26
ATOM     26  C   UNL     1      36.510 -22.526 -14.070  0.00  0.00    +0.096 C 
BRANCH  26  27
ATOM     27  C   UNL     1      36.610 -22.795 -15.534  0.00  0.00    +0.018 C 
ATOM     28  C   UNL     1      37.965 -22.907 -16.167  0.00  0.00    +0.001 C 
ATOM     29  C   UNL     1      37.104 -21.710 -16.446  0.00  0.00    +0.001 C 
ENDBRANCH  26  27
ENDBRANCH  17  26
ENDBRANCH  16  17
ENDBRANCH  13  16
ENDBRANCH   1  13
BRANCH   1  30
ATOM     30  C   UNL     1      31.369 -24.801 -14.930  0.00  0.00    +0.048 C 
BRANCH  30  31
ATOM     31  C   UNL     1      30.117 -24.066 -15.340  0.00  0.00    -0.020 C 
ATOM     32  C   UNL     1      29.804 -22.840 -14.753  0.00  0.00    -0.004 C 
ATOM     33  C   UNL     1      29.272 -24.613 -16.306  0.00  0.00    -0.004 C 
ATOM     34  C   UNL     1      28.646 -22.161 -15.133  0.00  0.00    -0.000 C 
ATOM     35  C   UNL     1      28.114 -23.934 -16.686  0.00  0.00    -0.000 C 
ATOM     36  C   UNL     1      27.801 -22.708 -16.100  0.00  0.00    -0.000 C 
ENDBRANCH  30  31
ENDBRANCH   1  30
TORSDOF 14
ENDMDL
MODEL 4
REMARK VINA RESULT:      -9.3      8.689     14.126
REMARK  Name = 15947913
REMARK  14 active torsions:
REMARK  status: ('A' for Active; 'I' for Inactive)
REMARK    1  A    between atoms: C_1  and  N_3
REMARK    2  A    between atoms: C_1  and  C_13
REMARK    3  A    between atoms: C_1  and  C_30
REMARK    4  A    between atoms: C_4  and  C_6
REMARK    5  A    between atoms: C_6  and  C_7
REMARK    6  A    between atoms: C_7  and  C_10
REMARK    7  A    between atoms: C_13  and  O_14
REMARK    8  A    between atoms: C_13  and  C_16
REMARK    9  A    between atoms: C_16  and  N_17
REMARK   10  A    between atoms: N_17  and  S_18
REMARK   11  A    between atoms: N_17  and  C_26
REMARK   12  A    between atoms: S_18  and  C_22
REMARK   13  A    between atoms: C_26  and  C_27
REMARK   14  A    between atoms: C_30  and  C_31
REMARK                            x       y       z     vdW  Elec       q    Type
REMARK                         _______ _______ _______ _____ _____    ______ ____
ROOT
ATOM      1  C   UNL     1      33.243 -12.132 -23.788  0.00  0.00    +0.104 C 
ENDROOT
BRANCH   1   3
ATOM      2  O   UNL     1      30.703 -11.578 -22.533  0.00  0.00    -0.275 OA
ATOM      3  N   UNL     1      32.933 -12.209 -22.378  0.00  0.00    -0.303 N 
ATOM      4  C   UNL     1      31.675 -11.923 -21.867  0.00  0.00    +0.223 C 
ATOM      5  H   UNL     1      33.644 -12.478 -21.754  0.00  0.00    +0.149 HD
BRANCH   4   6
ATOM      6  C   UNL     1      31.638 -12.085 -20.356  0.00  0.00    +0.095 C 
BRANCH   6   7
ATOM      7  C   UNL     1      30.989 -10.904 -19.640  0.00  0.00    +0.095 C 
BRANCH   7  10
ATOM      8  O   UNL     1      32.753  -9.778 -18.417  0.00  0.00    -0.275 OA
ATOM      9  N   UNL     1      31.835  -8.746 -20.285  0.00  0.00    -0.303 N 
ATOM     10  C   UNL     1      31.961  -9.769 -19.356  0.00  0.00    +0.223 C 
ATOM     11  C   UNL     1      32.644  -7.550 -20.248  0.00  0.00    +0.111 C 
ATOM     12  H   UNL     1      31.166  -8.840 -21.000  0.00  0.00    +0.149 HD
ENDBRANCH   7  10
ENDBRANCH   6   7
ENDBRANCH   4   6
ENDBRANCH   1   3
BRANCH   1  13
ATOM     13  C   UNL     1      33.567 -13.533 -24.353  0.00  0.00    +0.146 C 
BRANCH  13  14
ATOM     14  O   UNL     1      32.943 -13.679 -25.629  0.00  0.00    -0.381 OA
ATOM     15  H   UNL     1      31.985 -13.560 -25.537  0.00  0.00    +0.210 HD
ENDBRANCH  13  14
BRANCH  13  16
ATOM     16  C   UNL     1      33.098 -14.658 -23.427  0.00  0.00    +0.127 C 
BRANCH  16  17
ATOM     17  N   UNL     1      34.256 -15.215 -22.689  0.00  0.00    -0.150 NA
BRANCH  17  18
ATOM     18  S   UNL     1      33.988 -15.728 -21.062  0.00  0.00    +0.096 S 
ATOM     19  O   UNL     1      32.568 -15.679 -20.765  0.00  0.00    -0.150 OA
ATOM     20  O   UNL     1      34.938 -15.076 -20.181  0.00  0.00    -0.150 OA
BRANCH  18  22
ATOM     21  O   UNL     1      35.718 -17.840 -20.861  0.00  0.00    -0.432 OA
ATOM     22  C   UNL     1      34.417 -17.474 -21.000  0.00  0.00    +0.267 C 
ATOM     23  C   UNL     1      33.608 -18.584 -21.071  0.00  0.00    +0.062 C 
ATOM     24  C   UNL     1      34.467 -19.704 -20.970  0.00  0.00    +0.045 C 
ATOM     25  C   UNL     1      35.740 -19.198 -20.843  0.00  0.00    +0.181 C 
ENDBRANCH  18  22
ENDBRANCH  17  18
BRANCH  17  26
ATOM     26  C   UNL     1      35.097 -16.092 -23.546  0.00  0.00    +0.096 C 
BRANCH  26  27
ATOM     27  C   UNL     1      34.252 -17.070 -24.292  0.00  0.00    +0.018 C 
ATOM     28  C   UNL     1      34.780 -18.451 -24.547  0.00  0.00    +0.001 C 
ATOM     29  C   UNL     1      34.653 -17.476 -25.680  0.00  0.00    +0.001 C 
ENDBRANCH  26  27
ENDBRANCH  17  26
ENDBRANCH  16  17
ENDBRANCH  13  16
ENDBRANCH   1  13
BRANCH   1  30
ATOM     30  C   UNL     1      34.377 -11.109 -23.990  0.00  0.00    +0.048 C 
BRANCH  30  31
ATOM     31  C   UNL     1      33.920  -9.671 -23.939  0.00  0.00    -0.020 C 
ATOM     32  C   UNL     1      34.859  -8.641 -23.931  0.00  0.00    -0.004 C 
ATOM     33  C   UNL     1      32.558  -9.374 -23.900  0.00  0.00    -0.004 C 
ATOM     34  C   UNL     1      34.437  -7.312 -23.884  0.00  0.00    -0.000 C 
ATOM     35  C   UNL     1      32.134  -8.045 -23.853  0.00  0.00    -0.000 C 
ATOM     36  C   UNL     1      33.074  -7.015 -23.844  0.00  0.00    -0.000 C 
ENDBRANCH  30  31
ENDBRANCH   1  30
TORSDOF 14
ENDMDL
MODEL 5
REMARK VINA RESULT:      -9.2      1.988      6.398
REMARK  Name = 15947913
REMARK  14 active torsions:
REMARK  status: ('A' for Active; 'I' for Inactive)
REMARK    1  A    between atoms: C_1  and  N_3
REMARK    2  A    between atoms: C_1  and  C_13
REMARK    3  A    between atoms: C_1  and  C_30
REMARK    4  A    between atoms: C_4  and  C_6
REMARK    5  A    between atoms: C_6  and  C_7
REMARK    6  A    between atoms: C_7  and  C_10
REMARK    7  A    between atoms: C_13  and  O_14
REMARK    8  A    between atoms: C_13  and  C_16
REMARK    9  A    between atoms: C_16  and  N_17
REMARK   10  A    between atoms: N_17  and  S_18
REMARK   11  A    between atoms: N_17  and  C_26
REMARK   12  A    between atoms: S_18  and  C_22
REMARK   13  A    between atoms: C_26  and  C_27
REMARK   14  A    between atoms: C_30  and  C_31
REMARK                            x       y       z     vdW  Elec       q    Type
REMARK                         _______ _______ _______ _____ _____    ______ ____
ROOT
ATOM      1  C   UNL     1      32.139 -23.542 -15.109  0.00  0.00    +0.104 C 
ENDROOT
BRANCH   1   3
ATOM      2  O   UNL     1      31.737 -22.201 -17.634  0.00  0.00    -0.275 OA
ATOM      3  N   UNL     1      32.990 -23.608 -16.275  0.00  0.00    -0.303 N 
ATOM      4  C   UNL     1      32.712 -22.924 -17.450  0.00  0.00    +0.223 C 
ATOM      5  H   UNL     1      33.802 -24.162 -16.234  0.00  0.00    +0.149 HD
BRANCH   4   6
ATOM      6  C   UNL     1      33.774 -23.178 -18.507  0.00  0.00    +0.095 C 
BRANCH   6   7
ATOM      7  C   UNL     1      34.668 -21.968 -18.764  0.00  0.00    +0.095 C 
BRANCH   7  10
ATOM      8  O   UNL     1      32.995 -21.120 -20.299  0.00  0.00    -0.275 OA
ATOM      9  N   UNL     1      35.115 -20.170 -20.298  0.00  0.00    -0.303 N 
ATOM     10  C   UNL     1      34.142 -21.059 -19.865  0.00  0.00    +0.223 C 
ATOM     11  C   UNL     1      34.877 -19.191 -21.334  0.00  0.00    +0.111 C 
ATOM     12  H   UNL     1      36.006 -20.207 -19.881  0.00  0.00    +0.149 HD
ENDBRANCH   7  10
ENDBRANCH   6   7
ENDBRANCH   4   6
ENDBRANCH   1   3
BRANCH   1  13
ATOM     13  C   UNL     1      32.943 -23.855 -13.827  0.00  0.00    +0.146 C 
BRANCH  13  14
ATOM     14  O   UNL     1      32.363 -23.155 -12.727  0.00  0.00    -0.381 OA
ATOM     15  H   UNL     1      31.490 -23.528 -12.530  0.00  0.00    +0.210 HD
ENDBRANCH  13  14
BRANCH  13  16
ATOM     16  C   UNL     1      34.418 -23.466 -13.956  0.00  0.00    +0.127 C 
BRANCH  16  17
ATOM     17  N   UNL     1      35.264 -24.681 -13.888  0.00  0.00    -0.150 NA
BRANCH  17  18
ATOM     18  S   UNL     1      36.201 -25.073 -15.285  0.00  0.00    +0.096 S 
ATOM     19  O   UNL     1      36.221 -23.940 -16.190  0.00  0.00    -0.150 OA
ATOM     20  O   UNL     1      35.827 -26.387 -15.772  0.00  0.00    -0.150 OA
BRANCH  18  22
ATOM     21  O   UNL     1      38.239 -26.301 -13.929  0.00  0.00    -0.432 OA
ATOM     22  C   UNL     1      37.901 -25.252 -14.724  0.00  0.00    +0.267 C 
ATOM     23  C   UNL     1      39.000 -24.463 -14.976  0.00  0.00    +0.062 C 
ATOM     24  C   UNL     1      40.082 -25.066 -14.290  0.00  0.00    +0.045 C 
ATOM     25  C   UNL     1      39.567 -26.181 -13.670  0.00  0.00    +0.181 C 
ENDBRANCH  18  22
ENDBRANCH  17  18
BRANCH  17  26
ATOM     26  C   UNL     1      35.926 -24.830 -12.565  0.00  0.00    +0.096 C 
BRANCH  26  27
ATOM     27  C   UNL     1      36.160 -23.497 -11.937  0.00  0.00    +0.018 C 
ATOM     28  C   UNL     1      37.563 -22.984 -11.810  0.00  0.00    +0.001 C 
ATOM     29  C   UNL     1      36.814 -23.428 -10.588  0.00  0.00    +0.001 C 
ENDBRANCH  26  27
ENDBRANCH  17  26
ENDBRANCH  16  17
ENDBRANCH  13  16
ENDBRANCH   1  13
BRANCH   1  30
ATOM     30  C   UNL     1      30.932 -24.475 -15.322  0.00  0.00    +0.048 C 
BRANCH  30  31
ATOM     31  C   UNL     1      29.662 -23.756 -15.708  0.00  0.00    -0.020 C 
ATOM     32  C   UNL     1      29.222 -22.667 -14.956  0.00  0.00    -0.004 C 
ATOM     33  C   UNL     1      28.931 -24.179 -16.817  0.00  0.00    -0.004 C 
ATOM     34  C   UNL     1      28.049 -22.001 -15.313  0.00  0.00    -0.000 C 
ATOM     35  C   UNL     1      27.757 -23.514 -17.175  0.00  0.00    -0.000 C 
ATOM     36  C   UNL     1      27.317 -22.425 -16.423  0.00  0.00    -0.000 C 
ENDBRANCH  30  31
ENDBRANCH   1  30
TORSDOF 14
ENDMDL
MODEL 6
REMARK VINA RESULT:      -8.8      7.243     12.795
REMARK  Name = 15947913
REMARK  14 active torsions:
REMARK  status: ('A' for Active; 'I' for Inactive)
REMARK    1  A    between atoms: C_1  and  N_3
REMARK    2  A    between atoms: C_1  and  C_13
REMARK    3  A    between atoms: C_1  and  C_30
REMARK    4  A    between atoms: C_4  and  C_6
REMARK    5  A    between atoms: C_6  and  C_7
REMARK    6  A    between atoms: C_7  and  C_10
REMARK    7  A    between atoms: C_13  and  O_14
REMARK    8  A    between atoms: C_13  and  C_16
REMARK    9  A    between atoms: C_16  and  N_17
REMARK   10  A    between atoms: N_17  and  S_18
REMARK   11  A    between atoms: N_17  and  C_26
REMARK   12  A    between atoms: S_18  and  C_22
REMARK   13  A    between atoms: C_26  and  C_27
REMARK   14  A    between atoms: C_30  and  C_31
REMARK                            x       y       z     vdW  Elec       q    Type
REMARK                         _______ _______ _______ _____ _____    ______ ____
ROOT
ATOM      1  C   UNL     1      32.845 -14.442 -22.007  0.00  0.00    +0.104 C 
ENDROOT
BRANCH   1   3
ATOM      2  O   UNL     1      31.387 -11.953 -22.124  0.00  0.00    -0.275 OA
ATOM      3  N   UNL     1      32.584 -13.533 -20.914  0.00  0.00    -0.303 N 
ATOM      4  C   UNL     1      31.869 -12.354 -21.069  0.00  0.00    +0.223 C 
ATOM      5  H   UNL     1      32.928 -13.761 -20.021  0.00  0.00    +0.149 HD
BRANCH   4   6
ATOM      6  C   UNL     1      31.750 -11.599 -19.756  0.00  0.00    +0.095 C 
BRANCH   6   7
ATOM      7  C   UNL     1      31.014 -10.269 -19.892  0.00  0.00    +0.095 C 
BRANCH   7  10
ATOM      8  O   UNL     1      32.384  -8.343 -19.358  0.00  0.00    -0.275 OA
ATOM      9  N   UNL     1      32.199  -9.021 -21.572  0.00  0.00    -0.303 N 
ATOM     10  C   UNL     1      31.936  -9.103 -20.212  0.00  0.00    +0.223 C 
ATOM     11  C   UNL     1      33.052  -8.006 -22.145  0.00  0.00    +0.111 C 
ATOM     12  H   UNL     1      31.787  -9.683 -22.172  0.00  0.00    +0.149 HD
ENDBRANCH   7  10
ENDBRANCH   6   7
ENDBRANCH   4   6
ENDBRANCH   1   3
BRANCH   1  13
ATOM     13  C   UNL     1      33.019 -15.887 -21.488  0.00  0.00    +0.146 C 
BRANCH  13  14
ATOM     14  O   UNL     1      32.145 -16.093 -20.378  0.00  0.00    -0.381 OA
ATOM     15  H   UNL     1      31.393 -15.485 -20.440  0.00  0.00    +0.210 HD
ENDBRANCH  13  14
BRANCH  13  16
ATOM     16  C   UNL     1      34.459 -16.183 -21.062  0.00  0.00    +0.127 C 
BRANCH  16  17
ATOM     17  N   UNL     1      35.032 -17.237 -21.932  0.00  0.00    -0.150 NA
BRANCH  17  18
ATOM     18  S   UNL     1      35.869 -18.534 -21.161  0.00  0.00    +0.096 S 
ATOM     19  O   UNL     1      36.484 -18.056 -19.936  0.00  0.00    -0.150 OA
ATOM     20  O   UNL     1      36.662 -19.255 -22.138  0.00  0.00    -0.150 OA
BRANCH  18  22
ATOM     21  O   UNL     1      34.980 -20.808 -19.921  0.00  0.00    -0.432 OA
ATOM     22  C   UNL     1      34.613 -19.705 -20.625  0.00  0.00    +0.267 C 
ATOM     23  C   UNL     1      33.250 -19.682 -20.810  0.00  0.00    +0.062 C 
ATOM     24  C   UNL     1      32.748 -20.847 -20.180  0.00  0.00    +0.045 C 
ATOM     25  C   UNL     1      33.840 -21.497 -19.654  0.00  0.00    +0.181 C 
ENDBRANCH  18  22
ENDBRANCH  17  18
BRANCH  17  26
ATOM     26  C   UNL     1      34.123 -17.590 -23.055  0.00  0.00    +0.096 C 
BRANCH  26  27
ATOM     27  C   UNL     1      34.903 -17.957 -24.273  0.00  0.00    +0.018 C 
ATOM     28  C   UNL     1      34.192 -18.087 -25.587  0.00  0.00    +0.001 C 
ATOM     29  C   UNL     1      34.707 -19.311 -24.889  0.00  0.00    +0.001 C 
ENDBRANCH  26  27
ENDBRANCH  17  26
ENDBRANCH  16  17
ENDBRANCH  13  16
ENDBRANCH   1  13
BRANCH   1  30
ATOM     30  C   UNL     1      34.057 -13.924 -22.804  0.00  0.00    +0.048 C 
BRANCH  30  31
ATOM     31  C   UNL     1      33.756 -13.627 -24.253  0.00  0.00    -0.020 C 
ATOM     32  C   UNL     1      33.947 -12.339 -24.755  0.00  0.00    -0.004 C 
ATOM     33  C   UNL     1      33.287 -14.639 -25.089  0.00  0.00    -0.004 C 
ATOM     34  C   UNL     1      33.670 -12.065 -26.094  0.00  0.00    -0.000 C 
ATOM     35  C   UNL     1      33.008 -14.365 -26.429  0.00  0.00    -0.000 C 
ATOM     36  C   UNL     1      33.200 -13.078 -26.931  0.00  0.00    -0.000 C 
ENDBRANCH  30  31
ENDBRANCH   1  30
TORSDOF 14
ENDMDL
MODEL 7
REMARK VINA RESULT:      -8.7      8.806     14.230
REMARK  Name = 15947913
REMARK  14 active torsions:
REMARK  status: ('A' for Active; 'I' for Inactive)
REMARK    1  A    between atoms: C_1  and  N_3
REMARK    2  A    between atoms: C_1  and  C_13
REMARK    3  A    between atoms: C_1  and  C_30
REMARK    4  A    between atoms: C_4  and  C_6
REMARK    5  A    between atoms: C_6  and  C_7
REMARK    6  A    between atoms: C_7  and  C_10
REMARK    7  A    between atoms: C_13  and  O_14
REMARK    8  A    between atoms: C_13  and  C_16
REMARK    9  A    between atoms: C_16  and  N_17
REMARK   10  A    between atoms: N_17  and  S_18
REMARK   11  A    between atoms: N_17  and  C_26
REMARK   12  A    between atoms: S_18  and  C_22
REMARK   13  A    between atoms: C_26  and  C_27
REMARK   14  A    between atoms: C_30  and  C_31
REMARK                            x       y       z     vdW  Elec       q    Type
REMARK                         _______ _______ _______ _____ _____    ______ ____
ROOT
ATOM      1  C   UNL     1      33.591 -12.762 -23.139  0.00  0.00    +0.104 C 
ENDROOT
BRANCH   1   3
ATOM      2  O   UNL     1      33.095 -10.898 -25.287  0.00  0.00    -0.275 OA
ATOM      3  N   UNL     1      34.385 -11.607 -23.491  0.00  0.00    -0.303 N 
ATOM      4  C   UNL     1      34.065 -10.765 -24.546  0.00  0.00    +0.223 C 
ATOM      5  H   UNL     1      35.188 -11.409 -22.958  0.00  0.00    +0.149 HD
BRANCH   4   6
ATOM      6  C   UNL     1      35.074  -9.637 -24.684  0.00  0.00    +0.095 C 
BRANCH   6   7
ATOM      7  C   UNL     1      34.836  -8.494 -23.701  0.00  0.00    +0.095 C 
BRANCH   7  10
ATOM      8  O   UNL     1      34.625  -6.503 -25.068  0.00  0.00    -0.275 OA
ATOM      9  N   UNL     1      32.762  -7.297 -23.928  0.00  0.00    -0.303 N 
ATOM     10  C   UNL     1      34.093  -7.319 -24.318  0.00  0.00    +0.223 C 
ATOM     11  C   UNL     1      31.831  -6.286 -24.375  0.00  0.00    +0.111 C 
ATOM     12  H   UNL     1      32.438  -8.000 -23.321  0.00  0.00    +0.149 HD
ENDBRANCH   7  10
ENDBRANCH   6   7
ENDBRANCH   4   6
ENDBRANCH   1   3
BRANCH   1  13
ATOM     13  C   UNL     1      33.756 -13.880 -24.193  0.00  0.00    +0.146 C 
BRANCH  13  14
ATOM     14  O   UNL     1      32.966 -13.564 -25.339  0.00  0.00    -0.381 OA
ATOM     15  H   UNL     1      32.156 -13.111 -25.060  0.00  0.00    +0.210 HD
ENDBRANCH  13  14
BRANCH  13  16
ATOM     16  C   UNL     1      33.343 -15.253 -23.655  0.00  0.00    +0.127 C 
BRANCH  16  17
ATOM     17  N   UNL     1      34.441 -15.823 -22.840  0.00  0.00    -0.150 NA
BRANCH  17  18
ATOM     18  S   UNL     1      34.099 -16.181 -21.186  0.00  0.00    +0.096 S 
ATOM     19  O   UNL     1      32.670 -16.082 -20.953  0.00  0.00    -0.150 OA
ATOM     20  O   UNL     1      35.026 -15.467 -20.329  0.00  0.00    -0.150 OA
BRANCH  18  22
ATOM     21  O   UNL     1      35.782 -18.298 -20.763  0.00  0.00    -0.432 OA
ATOM     22  C   UNL     1      34.490 -17.921 -20.949  0.00  0.00    +0.267 C 
ATOM     23  C   UNL     1      33.658 -19.016 -20.917  0.00  0.00    +0.062 C 
ATOM     24  C   UNL     1      34.492 -20.138 -20.699  0.00  0.00    +0.045 C 
ATOM     25  C   UNL     1      35.775 -19.649 -20.611  0.00  0.00    +0.181 C 
ENDBRANCH  18  22
ENDBRANCH  17  18
BRANCH  17  26
ATOM     26  C   UNL     1      35.240 -16.822 -23.598  0.00  0.00    +0.096 C 
BRANCH  26  27
ATOM     27  C   UNL     1      34.360 -17.894 -24.151  0.00  0.00    +0.018 C 
ATOM     28  C   UNL     1      34.951 -19.235 -24.470  0.00  0.00    +0.001 C 
ATOM     29  C   UNL     1      34.532 -18.317 -25.580  0.00  0.00    +0.001 C 
ENDBRANCH  26  27
ENDBRANCH  17  26
ENDBRANCH  16  17
ENDBRANCH  13  16
ENDBRANCH   1  13
BRANCH   1  30
ATOM     30  C   UNL     1      32.130 -12.317 -22.938  0.00  0.00    +0.048 C 
BRANCH  30  31
ATOM     31  C   UNL     1      31.909 -11.484 -21.699  0.00  0.00    -0.020 C 
ATOM     32  C   UNL     1      31.718 -12.106 -20.465  0.00  0.00    -0.004 C 
ATOM     33  C   UNL     1      31.896 -10.092 -21.788  0.00  0.00    -0.004 C 
ATOM     34  C   UNL     1      31.515 -11.335 -19.320  0.00  0.00    -0.000 C 
ATOM     35  C   UNL     1      31.693  -9.321 -20.643  0.00  0.00    -0.000 C 
ATOM     36  C   UNL     1      31.502  -9.943 -19.409  0.00  0.00    -0.000 C 
ENDBRANCH  30  31
ENDBRANCH   1  30
TORSDOF 14
ENDMDL
MODEL 8
REMARK VINA RESULT:      -8.6      2.337      7.129
REMARK  Name = 15947913
REMARK  14 active torsions:
REMARK  status: ('A' for Active; 'I' for Inactive)
REMARK    1  A    between atoms: C_1  and  N_3
REMARK    2  A    between atoms: C_1  and  C_13
REMARK    3  A    between atoms: C_1  and  C_30
REMARK    4  A    between atoms: C_4  and  C_6
REMARK    5  A    between atoms: C_6  and  C_7
REMARK    6  A    between atoms: C_7  and  C_10
REMARK    7  A    between atoms: C_13  and  O_14
REMARK    8  A    between atoms: C_13  and  C_16
REMARK    9  A    between atoms: C_16  and  N_17
REMARK   10  A    between atoms: N_17  and  S_18
REMARK   11  A    between atoms: N_17  and  C_26
REMARK   12  A    between atoms: S_18  and  C_22
REMARK   13  A    between atoms: C_26  and  C_27
REMARK   14  A    between atoms: C_30  and  C_31
REMARK                            x       y       z     vdW  Elec       q    Type
REMARK                         _______ _______ _______ _____ _____    ______ ____
ROOT
ATOM      1  C   UNL     1      34.197 -22.712 -16.940  0.00  0.00    +0.104 C 
ENDROOT
BRANCH   1   3
ATOM      2  O   UNL     1      32.940 -21.253 -19.090  0.00  0.00    -0.275 OA
ATOM      3  N   UNL     1      34.764 -22.408 -18.234  0.00  0.00    -0.303 N 
ATOM      4  C   UNL     1      34.079 -21.697 -19.208  0.00  0.00    +0.223 C 
ATOM      5  H   UNL     1      35.676 -22.719 -18.433  0.00  0.00    +0.149 HD
BRANCH   4   6
ATOM      6  C   UNL     1      34.915 -21.527 -20.466  0.00  0.00    +0.095 C 
BRANCH   6   7
ATOM      7  C   UNL     1      35.701 -20.219 -20.493  0.00  0.00    +0.095 C 
BRANCH   7  10
ATOM      8  O   UNL     1      34.139 -19.291 -22.097  0.00  0.00    -0.275 OA
ATOM      9  N   UNL     1      35.363 -17.851 -20.746  0.00  0.00    -0.303 N 
ATOM     10  C   UNL     1      34.971 -19.096 -21.214  0.00  0.00    +0.223 C 
ATOM     11  C   UNL     1      34.819 -16.614 -21.258  0.00  0.00    +0.111 C 
ATOM     12  H   UNL     1      36.040 -17.808 -20.033  0.00  0.00    +0.149 HD
ENDBRANCH   7  10
ENDBRANCH   6   7
ENDBRANCH   4   6
ENDBRANCH   1   3
BRANCH   1  13
ATOM     13  C   UNL     1      35.287 -23.227 -15.973  0.00  0.00    +0.146 C 
BRANCH  13  14
ATOM     14  O   UNL     1      36.558 -23.157 -16.620  0.00  0.00    -0.381 OA
ATOM     15  H   UNL     1      37.243 -23.500 -16.026  0.00  0.00    +0.210 HD
ENDBRANCH  13  14
BRANCH  13  16
ATOM     16  C   UNL     1      35.028 -24.664 -15.515  0.00  0.00    +0.127 C 
BRANCH  16  17
ATOM     17  N   UNL     1      35.948 -25.010 -14.406  0.00  0.00    -0.150 NA
BRANCH  17  18
ATOM     18  S   UNL     1      36.912 -26.430 -14.589  0.00  0.00    +0.096 S 
ATOM     19  O   UNL     1      36.677 -27.013 -15.897  0.00  0.00    -0.150 OA
ATOM     20  O   UNL     1      36.805 -27.251 -13.398  0.00  0.00    -0.150 OA
BRANCH  18  22
ATOM     21  O   UNL     1      39.526 -26.442 -13.774  0.00  0.00    -0.432 OA
ATOM     22  C   UNL     1      38.626 -25.883 -14.624  0.00  0.00    +0.267 C 
ATOM     23  C   UNL     1      39.232 -24.935 -15.416  0.00  0.00    +0.062 C 
ATOM     24  C   UNL     1      40.592 -24.909 -15.025  0.00  0.00    +0.045 C 
ATOM     25  C   UNL     1      40.721 -25.844 -14.025  0.00  0.00    +0.181 C 
ENDBRANCH  18  22
ENDBRANCH  17  18
BRANCH  17  26
ATOM     26  C   UNL     1      36.614 -23.809 -13.836  0.00  0.00    +0.096 C 
BRANCH  26  27
ATOM     27  C   UNL     1      36.607 -23.857 -12.345  0.00  0.00    +0.018 C 
ATOM     28  C   UNL     1      37.271 -22.755 -11.573  0.00  0.00    +0.001 C 
ATOM     29  C   UNL     1      37.890 -24.121 -11.614  0.00  0.00    +0.001 C 
ENDBRANCH  26  27
ENDBRANCH  17  26
ENDBRANCH  16  17
ENDBRANCH  13  16
ENDBRANCH   1  13
BRANCH   1  30
ATOM     30  C   UNL     1      33.028 -23.697 -17.130  0.00  0.00    +0.048 C 
BRANCH  30  31
ATOM     31  C   UNL     1      31.793 -23.341 -16.338  0.00  0.00    -0.020 C 
ATOM     32  C   UNL     1      31.760 -23.560 -14.961  0.00  0.00    -0.004 C 
ATOM     33  C   UNL     1      30.685 -22.792 -16.984  0.00  0.00    -0.004 C 
ATOM     34  C   UNL     1      30.619 -23.230 -14.230  0.00  0.00    -0.000 C 
ATOM     35  C   UNL     1      29.544 -22.462 -16.253  0.00  0.00    -0.000 C 
ATOM     36  C   UNL     1      29.511 -22.681 -14.876  0.00  0.00    -0.000 C 
ENDBRANCH  30  31
ENDBRANCH   1  30
TORSDOF 14
ENDMDL
MODEL 9
REMARK VINA RESULT:      -8.6     10.333     14.648
REMARK  Name = 15947913
REMARK  14 active torsions:
REMARK  status: ('A' for Active; 'I' for Inactive)
REMARK    1  A    between atoms: C_1  and  N_3
REMARK    2  A    between atoms: C_1  and  C_13
REMARK    3  A    between atoms: C_1  and  C_30
REMARK    4  A    between atoms: C_4  and  C_6
REMARK    5  A    between atoms: C_6  and  C_7
REMARK    6  A    between atoms: C_7  and  C_10
REMARK    7  A    between atoms: C_13  and  O_14
REMARK    8  A    between atoms: C_13  and  C_16
REMARK    9  A    between atoms: C_16  and  N_17
REMARK   10  A    between atoms: N_17  and  S_18
REMARK   11  A    between atoms: N_17  and  C_26
REMARK   12  A    between atoms: S_18  and  C_22
REMARK   13  A    between atoms: C_26  and  C_27
REMARK   14  A    between atoms: C_30  and  C_31
REMARK                            x       y       z     vdW  Elec       q    Type
REMARK                         _______ _______ _______ _____ _____    ______ ____
ROOT
ATOM      1  C   UNL     1      33.205 -11.402 -23.914  0.00  0.00    +0.104 C 
ENDROOT
BRANCH   1   3
ATOM      2  O   UNL     1      30.674 -10.935 -22.606  0.00  0.00    -0.275 OA
ATOM      3  N   UNL     1      32.830 -11.798 -22.575  0.00  0.00    -0.303 N 
ATOM      4  C   UNL     1      31.583 -11.527 -22.031  0.00  0.00    +0.223 C 
ATOM      5  H   UNL     1      33.489 -12.281 -22.026  0.00  0.00    +0.149 HD
BRANCH   4   6
ATOM      6  C   UNL     1      31.468 -12.057 -20.611  0.00  0.00    +0.095 C 
BRANCH   6   7
ATOM      7  C   UNL     1      30.946 -11.018 -19.623  0.00  0.00    +0.095 C 
BRANCH   7  10
ATOM      8  O   UNL     1      32.715  -9.873 -18.425  0.00  0.00    -0.275 OA
ATOM      9  N   UNL     1      31.821  -8.893 -20.331  0.00  0.00    -0.303 N 
ATOM     10  C   UNL     1      31.929  -9.886 -19.369  0.00  0.00    +0.223 C 
ATOM     11  C   UNL     1      32.644  -7.705 -20.328  0.00  0.00    +0.111 C 
ATOM     12  H   UNL     1      31.156  -9.002 -21.048  0.00  0.00    +0.149 HD
ENDBRANCH   7  10
ENDBRANCH   6   7
ENDBRANCH   4   6
ENDBRANCH   1   3
BRANCH   1  13
ATOM     13  C   UNL     1      33.630 -12.631 -24.748  0.00  0.00    +0.146 C 
BRANCH  13  14
ATOM     14  O   UNL     1      33.717 -12.257 -26.123  0.00  0.00    -0.381 OA
ATOM     15  H   UNL     1      34.564 -12.556 -26.488  0.00  0.00    +0.210 HD
ENDBRANCH  13  14
BRANCH  13  16
ATOM     16  C   UNL     1      32.654 -13.801 -24.601  0.00  0.00    +0.127 C 
BRANCH  16  17
ATOM     17  N   UNL     1      33.394 -15.026 -24.217  0.00  0.00    -0.150 NA
BRANCH  17  18
ATOM     18  S   UNL     1      33.921 -16.067 -25.490  0.00  0.00    +0.096 S 
ATOM     19  O   UNL     1      35.091 -15.497 -26.131  0.00  0.00    -0.150 OA
ATOM     20  O   UNL     1      32.782 -16.477 -26.289  0.00  0.00    -0.150 OA
BRANCH  18  22
ATOM     21  O   UNL     1      35.503 -17.509 -23.784  0.00  0.00    -0.432 OA
ATOM     22  C   UNL     1      34.507 -17.576 -24.705  0.00  0.00    +0.267 C 
ATOM     23  C   UNL     1      34.098 -18.878 -24.882  0.00  0.00    +0.062 C 
ATOM     24  C   UNL     1      34.895 -19.661 -24.013  0.00  0.00    +0.045 C 
ATOM     25  C   UNL     1      35.733 -18.782 -23.367  0.00  0.00    +0.181 C 
ENDBRANCH  18  22
ENDBRANCH  17  18
BRANCH  17  26
ATOM     26  C   UNL     1      34.351 -14.776 -23.107  0.00  0.00    +0.096 C 
BRANCH  26  27
ATOM     27  C   UNL     1      33.785 -15.236 -21.805  0.00  0.00    +0.018 C 
ATOM     28  C   UNL     1      34.354 -14.696 -20.527  0.00  0.00    +0.001 C 
ATOM     29  C   UNL     1      34.612 -16.121 -20.918  0.00  0.00    +0.001 C 
ENDBRANCH  26  27
ENDBRANCH  17  26
ENDBRANCH  16  17
ENDBRANCH  13  16
ENDBRANCH   1  13
BRANCH   1  30
ATOM     30  C   UNL     1      34.292 -10.314 -23.823  0.00  0.00    +0.048 C 
BRANCH  30  31
ATOM     31  C   UNL     1      33.765  -8.908 -23.983  0.00  0.00    -0.020 C 
ATOM     32  C   UNL     1      32.394  -8.663 -23.896  0.00  0.00    -0.004 C 
ATOM     33  C   UNL     1      34.648  -7.855 -24.218  0.00  0.00    -0.004 C 
ATOM     34  C   UNL     1      31.908  -7.364 -24.043  0.00  0.00    -0.000 C 
ATOM     35  C   UNL     1      34.162  -6.556 -24.365  0.00  0.00    -0.000 C 
ATOM     36  C   UNL     1      32.792  -6.311 -24.278  0.00  0.00    -0.000 C 
ENDBRANCH  30  31
ENDBRANCH   1  30
TORSDOF 14
ENDMDL
