MODEL 1
REMARK VINA RESULT:     -12.2      0.000      0.000
REMARK  Name = 11610553
REMARK  5 active torsions:
REMARK  status: ('A' for Active; 'I' for Inactive)
REMARK    1  A    between atoms: C_1  and  C_9
REMARK    2  A    between atoms: C_4  and  O_19
REMARK    3  A    between atoms: C_10  and  C_14
REMARK    4  A    between atoms: O_19  and  C_20
REMARK    5  A    between atoms: C_20  and  C_22
REMARK                            x       y       z     vdW  Elec       q    Type
REMARK                         _______ _______ _______ _____ _____    ______ ____
ROOT
ATOM      1  C   UNL     1      34.710 -18.791 -22.417  0.00  0.00    +0.015 C 
ATOM      2  C   UNL     1      35.955 -19.123 -21.883  0.00  0.00    +0.004 C 
ATOM      3  C   UNL     1      33.547 -19.313 -21.854  0.00  0.00    +0.004 C 
ATOM      4  C   UNL     1      34.871 -20.497 -20.228  0.00  0.00    +0.139 C 
ATOM      5  C   UNL     1      36.035 -19.980 -20.785  0.00  0.00    +0.037 C 
ATOM      6  C   UNL     1      33.627 -20.169 -20.756  0.00  0.00    +0.037 C 
ENDROOT
BRANCH   1   9
ATOM      7  N   UNL     1      34.899 -18.326 -24.823  0.00  0.00    -0.236 N 
ATOM      8  N   UNL     1      34.769 -17.364 -25.753  0.00  0.00    -0.180 NA
ATOM      9  C   UNL     1      34.627 -17.905 -23.553  0.00  0.00    +0.067 C 
ATOM     10  C   UNL     1      34.298 -16.576 -23.661  0.00  0.00    +0.036 C 
ATOM     11  C   UNL     1      34.402 -16.298 -25.037  0.00  0.00    +0.119 C 
ATOM     12  H   UNL     1      35.164 -19.249 -25.037  0.00  0.00    +0.174 HD
BRANCH  10  14
ATOM     13  N   UNL     1      33.233 -14.066 -20.425  0.00  0.00    -0.242 NA
ATOM     14  C   UNL     1      33.938 -15.726 -22.567  0.00  0.00    +0.006 C 
ATOM     15  C   UNL     1      32.846 -14.869 -22.673  0.00  0.00    +0.021 C 
ATOM     16  C   UNL     1      34.676 -15.751 -21.386  0.00  0.00    +0.021 C 
ATOM     17  C   UNL     1      32.538 -14.067 -21.586  0.00  0.00    +0.099 C 
ATOM     18  C   UNL     1      34.287 -14.909 -20.356  0.00  0.00    +0.099 C 
ENDBRANCH  10  14
ENDBRANCH   1   9
BRANCH   4  19
ATOM     19  O   UNL     1      34.950 -21.338 -19.150  0.00  0.00    -0.468 OA
BRANCH  19  20
ATOM     20  C   UNL     1      34.170 -22.525 -19.204  0.00  0.00    +0.264 C 
BRANCH  20  22
ATOM     21  N   UNL     1      32.256 -22.747 -17.738  0.00  0.00    -0.406 NA
ATOM     22  C   UNL     1      33.603 -22.808 -17.853  0.00  0.00    +0.152 C 
ATOM     23  C   UNL     1      32.497 -23.310 -15.408  0.00  0.00    +0.026 C 
ATOM     24  C   UNL     1      31.708 -22.995 -16.534  0.00  0.00    +0.113 C 
ATOM     25  C   UNL     1      34.455 -23.107 -16.810  0.00  0.00    +0.031 C 
ATOM     26  C   UNL     1      33.887 -23.362 -15.570  0.00  0.00    +0.005 C 
ATOM     27  C   UNL     1      31.891 -23.562 -14.165  0.00  0.00    +0.002 C 
ATOM     28  C   UNL     1      30.326 -22.944 -16.372  0.00  0.00    +0.085 C 
ATOM     29  C   UNL     1      30.507 -23.504 -14.031  0.00  0.00    -0.004 C 
ATOM     30  C   UNL     1      29.724 -23.195 -15.136  0.00  0.00    -0.019 C 
ENDBRANCH  20  22
ENDBRANCH  19  20
ENDBRANCH   4  19
TORSDOF 5
ENDMDL
MODEL 2
REMARK VINA RESULT:     -11.9      1.149      2.040
REMARK  Name = 11610553
REMARK  5 active torsions:
REMARK  status: ('A' for Active; 'I' for Inactive)
REMARK    1  A    between atoms: C_1  and  C_9
REMARK    2  A    between atoms: C_4  and  O_19
REMARK    3  A    between atoms: C_10  and  C_14
REMARK    4  A    between atoms: O_19  and  C_20
REMARK    5  A    between atoms: C_20  and  C_22
REMARK                            x       y       z     vdW  Elec       q    Type
REMARK                         _______ _______ _______ _____ _____    ______ ____
ROOT
ATOM      1  C   UNL     1      34.977 -18.293 -22.570  0.00  0.00    +0.015 C 
ATOM      2  C   UNL     1      33.947 -19.041 -21.999  0.00  0.00    +0.004 C 
ATOM      3  C   UNL     1      36.269 -18.375 -22.052  0.00  0.00    +0.004 C 
ATOM      4  C   UNL     1      35.501 -19.946 -20.397  0.00  0.00    +0.139 C 
ATOM      5  C   UNL     1      34.211 -19.870 -20.909  0.00  0.00    +0.037 C 
ATOM      6  C   UNL     1      36.533 -19.204 -20.963  0.00  0.00    +0.037 C 
ENDROOT
BRANCH   1   9
ATOM      7  N   UNL     1      34.970 -17.815 -24.981  0.00  0.00    -0.236 N 
ATOM      8  N   UNL     1      34.651 -16.888 -25.899  0.00  0.00    -0.180 NA
ATOM      9  C   UNL     1      34.704 -17.435 -23.697  0.00  0.00    +0.067 C 
ATOM     10  C   UNL     1      34.174 -16.170 -23.783  0.00  0.00    +0.036 C 
ATOM     11  C   UNL     1      34.165 -15.885 -25.162  0.00  0.00    +0.119 C 
ATOM     12  H   UNL     1      35.359 -18.689 -25.212  0.00  0.00    +0.174 HD
BRANCH  10  14
ATOM     13  N   UNL     1      32.912 -13.834 -20.489  0.00  0.00    -0.242 NA
ATOM     14  C   UNL     1      33.748 -15.379 -22.669  0.00  0.00    +0.006 C 
ATOM     15  C   UNL     1      32.696 -14.477 -22.810  0.00  0.00    +0.021 C 
ATOM     16  C   UNL     1      34.379 -15.507 -21.434  0.00  0.00    +0.021 C 
ATOM     17  C   UNL     1      32.321 -13.735 -21.701  0.00  0.00    +0.099 C 
ATOM     18  C   UNL     1      33.929 -14.719 -20.387  0.00  0.00    +0.099 C 
ENDBRANCH  10  14
ENDBRANCH   1   9
BRANCH   4  19
ATOM     19  O   UNL     1      35.760 -20.761 -19.327  0.00  0.00    -0.468 OA
BRANCH  19  20
ATOM     20  C   UNL     1      35.387 -22.127 -19.455  0.00  0.00    +0.264 C 
BRANCH  20  22
ATOM     21  N   UNL     1      35.254 -22.923 -17.174  0.00  0.00    -0.406 NA
ATOM     22  C   UNL     1      34.571 -22.531 -18.273  0.00  0.00    +0.152 C 
ATOM     23  C   UNL     1      33.142 -23.290 -16.074  0.00  0.00    +0.026 C 
ATOM     24  C   UNL     1      34.552 -23.298 -16.087  0.00  0.00    +0.113 C 
ATOM     25  C   UNL     1      33.194 -22.491 -18.355  0.00  0.00    +0.031 C 
ATOM     26  C   UNL     1      32.473 -22.877 -17.235  0.00  0.00    +0.005 C 
ATOM     27  C   UNL     1      32.440 -23.687 -14.923  0.00  0.00    +0.002 C 
ATOM     28  C   UNL     1      35.215 -23.707 -14.934  0.00  0.00    +0.085 C 
ATOM     29  C   UNL     1      33.129 -24.092 -13.783  0.00  0.00    -0.004 C 
ATOM     30  C   UNL     1      34.518 -24.103 -13.789  0.00  0.00    -0.019 C 
ENDBRANCH  20  22
ENDBRANCH  19  20
ENDBRANCH   4  19
TORSDOF 5
ENDMDL
MODEL 3
REMARK VINA RESULT:     -11.9      2.758      9.991
REMARK  Name = 11610553
REMARK  5 active torsions:
REMARK  status: ('A' for Active; 'I' for Inactive)
REMARK    1  A    between atoms: C_1  and  C_9
REMARK    2  A    between atoms: C_4  and  O_19
REMARK    3  A    between atoms: C_10  and  C_14
REMARK    4  A    between atoms: O_19  and  C_20
REMARK    5  A    between atoms: C_20  and  C_22
REMARK                            x       y       z     vdW  Elec       q    Type
REMARK                         _______ _______ _______ _____ _____    ______ ____
ROOT
ATOM      1  C   UNL     1      34.538 -22.932 -16.451  0.00  0.00    +0.015 C 
ATOM      2  C   UNL     1      35.799 -22.362 -16.630  0.00  0.00    +0.004 C 
ATOM      3  C   UNL     1      33.649 -23.011 -17.523  0.00  0.00    +0.004 C 
ATOM      4  C   UNL     1      35.277 -21.952 -18.945  0.00  0.00    +0.139 C 
ATOM      5  C   UNL     1      36.169 -21.870 -17.882  0.00  0.00    +0.037 C 
ATOM      6  C   UNL     1      34.019 -22.520 -18.774  0.00  0.00    +0.037 C 
ENDROOT
BRANCH   1   9
ATOM      7  N   UNL     1      32.991 -23.071 -14.547  0.00  0.00    -0.236 N 
ATOM      8  N   UNL     1      32.801 -23.645 -13.347  0.00  0.00    -0.180 NA
ATOM      9  C   UNL     1      34.155 -23.440 -15.156  0.00  0.00    +0.067 C 
ATOM     10  C   UNL     1      34.768 -24.317 -14.294  0.00  0.00    +0.036 C 
ATOM     11  C   UNL     1      33.889 -24.404 -13.197  0.00  0.00    +0.119 C 
ATOM     12  H   UNL     1      32.350 -22.443 -14.950  0.00  0.00    +0.174 HD
BRANCH  10  14
ATOM     13  N   UNL     1      38.485 -26.214 -14.994  0.00  0.00    -0.242 NA
ATOM     14  C   UNL     1      36.026 -24.959 -14.530  0.00  0.00    +0.006 C 
ATOM     15  C   UNL     1      36.074 -26.192 -15.174  0.00  0.00    +0.021 C 
ATOM     16  C   UNL     1      37.211 -24.354 -14.119  0.00  0.00    +0.021 C 
ATOM     17  C   UNL     1      37.315 -26.772 -15.380  0.00  0.00    +0.099 C 
ATOM     18  C   UNL     1      38.402 -25.017 -14.371  0.00  0.00    +0.099 C 
ENDBRANCH  10  14
ENDBRANCH   1   9
BRANCH   4  19
ATOM     19  O   UNL     1      35.641 -21.469 -20.175  0.00  0.00    -0.468 OA
BRANCH  19  20
ATOM     20  C   UNL     1      36.475 -20.318 -20.190  0.00  0.00    +0.264 C 
BRANCH  20  22
ATOM     21  N   UNL     1      35.603 -18.086 -20.535  0.00  0.00    -0.406 NA
ATOM     22  C   UNL     1      35.881 -19.287 -21.092  0.00  0.00    +0.152 C 
ATOM     23  C   UNL     1      34.789 -17.356 -22.683  0.00  0.00    +0.026 C 
ATOM     24  C   UNL     1      35.064 -17.132 -21.317  0.00  0.00    +0.113 C 
ATOM     25  C   UNL     1      35.647 -19.599 -22.416  0.00  0.00    +0.031 C 
ATOM     26  C   UNL     1      35.092 -18.614 -23.219  0.00  0.00    +0.005 C 
ATOM     27  C   UNL     1      34.226 -16.337 -23.470  0.00  0.00    +0.002 C 
ATOM     28  C   UNL     1      34.763 -15.881 -20.786  0.00  0.00    +0.085 C 
ATOM     29  C   UNL     1      33.934 -15.096 -22.912  0.00  0.00    -0.004 C 
ATOM     30  C   UNL     1      34.203 -14.868 -21.569  0.00  0.00    -0.019 C 
ENDBRANCH  20  22
ENDBRANCH  19  20
ENDBRANCH   4  19
TORSDOF 5
ENDMDL
MODEL 4
REMARK VINA RESULT:     -11.7      1.693      2.565
REMARK  Name = 11610553
REMARK  5 active torsions:
REMARK  status: ('A' for Active; 'I' for Inactive)
REMARK    1  A    between atoms: C_1  and  C_9
REMARK    2  A    between atoms: C_4  and  O_19
REMARK    3  A    between atoms: C_10  and  C_14
REMARK    4  A    between atoms: O_19  and  C_20
REMARK    5  A    between atoms: C_20  and  C_22
REMARK                            x       y       z     vdW  Elec       q    Type
REMARK                         _______ _______ _______ _____ _____    ______ ____
ROOT
ATOM      1  C   UNL     1      35.146 -18.325 -22.622  0.00  0.00    +0.015 C 
ATOM      2  C   UNL     1      34.225 -19.192 -22.035  0.00  0.00    +0.004 C 
ATOM      3  C   UNL     1      36.457 -18.275 -22.150  0.00  0.00    +0.004 C 
ATOM      4  C   UNL     1      35.924 -19.954 -20.508  0.00  0.00    +0.139 C 
ATOM      5  C   UNL     1      34.616 -20.009 -20.974  0.00  0.00    +0.037 C 
ATOM      6  C   UNL     1      36.848 -19.091 -21.089  0.00  0.00    +0.037 C 
ENDROOT
BRANCH   1   9
ATOM      7  N   UNL     1      34.914 -17.848 -25.022  0.00  0.00    -0.236 N 
ATOM      8  N   UNL     1      34.477 -16.936 -25.907  0.00  0.00    -0.180 NA
ATOM      9  C   UNL     1      34.742 -17.480 -23.719  0.00  0.00    +0.067 C 
ATOM     10  C   UNL     1      34.152 -16.239 -23.755  0.00  0.00    +0.036 C 
ATOM     11  C   UNL     1      34.013 -15.955 -25.127  0.00  0.00    +0.119 C 
ATOM     12  H   UNL     1      35.319 -18.704 -25.288  0.00  0.00    +0.174 HD
BRANCH  10  14
ATOM     13  N   UNL     1      33.079 -13.956 -20.359  0.00  0.00    -0.242 NA
ATOM     14  C   UNL     1      33.788 -15.467 -22.606  0.00  0.00    +0.006 C 
ATOM     15  C   UNL     1      34.521 -15.576 -21.427  0.00  0.00    +0.021 C 
ATOM     16  C   UNL     1      32.700 -14.600 -22.658  0.00  0.00    +0.021 C 
ATOM     17  C   UNL     1      34.130 -14.807 -20.343  0.00  0.00    +0.099 C 
ATOM     18  C   UNL     1      32.390 -13.875 -21.519  0.00  0.00    +0.099 C 
ENDBRANCH  10  14
ENDBRANCH   1   9
BRANCH   4  19
ATOM     19  O   UNL     1      36.308 -20.756 -19.466  0.00  0.00    -0.468 OA
BRANCH  19  20
ATOM     20  C   UNL     1      35.415 -21.799 -19.097  0.00  0.00    +0.264 C 
BRANCH  20  22
ATOM     21  N   UNL     1      34.678 -22.839 -17.039  0.00  0.00    -0.406 NA
ATOM     22  C   UNL     1      35.683 -22.205 -17.686  0.00  0.00    +0.152 C 
ATOM     23  C   UNL     1      36.102 -22.973 -15.100  0.00  0.00    +0.026 C 
ATOM     24  C   UNL     1      34.882 -23.219 -15.764  0.00  0.00    +0.113 C 
ATOM     25  C   UNL     1      36.909 -21.921 -17.120  0.00  0.00    +0.031 C 
ATOM     26  C   UNL     1      37.116 -22.313 -15.806  0.00  0.00    +0.005 C 
ATOM     27  C   UNL     1      36.281 -23.384 -13.768  0.00  0.00    +0.002 C 
ATOM     28  C   UNL     1      33.875 -23.876 -15.061  0.00  0.00    +0.085 C 
ATOM     29  C   UNL     1      35.257 -24.038 -13.089  0.00  0.00    -0.004 C 
ATOM     30  C   UNL     1      34.053 -24.284 -13.737  0.00  0.00    -0.019 C 
ENDBRANCH  20  22
ENDBRANCH  19  20
ENDBRANCH   4  19
TORSDOF 5
ENDMDL
MODEL 5
REMARK VINA RESULT:     -11.5      3.178      5.968
REMARK  Name = 11610553
REMARK  5 active torsions:
REMARK  status: ('A' for Active; 'I' for Inactive)
REMARK    1  A    between atoms: C_1  and  C_9
REMARK    2  A    between atoms: C_4  and  O_19
REMARK    3  A    between atoms: C_10  and  C_14
REMARK    4  A    between atoms: O_19  and  C_20
REMARK    5  A    between atoms: C_20  and  C_22
REMARK                            x       y       z     vdW  Elec       q    Type
REMARK                         _______ _______ _______ _____ _____    ______ ____
ROOT
ATOM      1  C   UNL     1      33.265 -13.876 -22.732  0.00  0.00    +0.015 C 
ATOM      2  C   UNL     1      33.142 -14.567 -23.938  0.00  0.00    +0.004 C 
ATOM      3  C   UNL     1      34.080 -14.380 -21.719  0.00  0.00    +0.004 C 
ATOM      4  C   UNL     1      34.644 -16.259 -23.114  0.00  0.00    +0.139 C 
ATOM      5  C   UNL     1      33.835 -15.763 -24.128  0.00  0.00    +0.037 C 
ATOM      6  C   UNL     1      34.772 -15.575 -21.909  0.00  0.00    +0.037 C 
ENDROOT
BRANCH   1   9
ATOM      7  N   UNL     1      31.523 -12.529 -21.641  0.00  0.00    -0.236 N 
ATOM      8  N   UNL     1      30.974 -11.303 -21.592  0.00  0.00    -0.180 NA
ATOM      9  C   UNL     1      32.548 -12.639 -22.535  0.00  0.00    +0.067 C 
ATOM     10  C   UNL     1      32.679 -11.398 -23.110  0.00  0.00    +0.036 C 
ATOM     11  C   UNL     1      31.685 -10.617 -22.491  0.00  0.00    +0.119 C 
ATOM     12  H   UNL     1      31.214 -13.279 -21.084  0.00  0.00    +0.174 HD
BRANCH  10  14
ATOM     13  N   UNL     1      35.521 -10.379 -26.074  0.00  0.00    -0.242 NA
ATOM     14  C   UNL     1      33.641 -11.054 -24.112  0.00  0.00    +0.006 C 
ATOM     15  C   UNL     1      33.763 -11.828 -25.264  0.00  0.00    +0.021 C 
ATOM     16  C   UNL     1      34.462  -9.941 -23.946  0.00  0.00    +0.021 C 
ATOM     17  C   UNL     1      34.708 -11.452 -26.204  0.00  0.00    +0.099 C 
ATOM     18  C   UNL     1      35.376  -9.650 -24.945  0.00  0.00    +0.099 C 
ENDBRANCH  10  14
ENDBRANCH   1   9
BRANCH   4  19
ATOM     19  O   UNL     1      35.325 -17.434 -23.301  0.00  0.00    -0.468 OA
BRANCH  19  20
ATOM     20  C   UNL     1      36.113 -17.899 -22.214  0.00  0.00    +0.264 C 
BRANCH  20  22
ATOM     21  N   UNL     1      36.048 -19.671 -20.567  0.00  0.00    -0.406 NA
ATOM     22  C   UNL     1      35.344 -18.920 -21.444  0.00  0.00    +0.152 C 
ATOM     23  C   UNL     1      34.000 -20.811 -20.004  0.00  0.00    +0.026 C 
ATOM     24  C   UNL     1      35.388 -20.605 -19.855  0.00  0.00    +0.113 C 
ATOM     25  C   UNL     1      33.987 -19.049 -21.658  0.00  0.00    +0.031 C 
ATOM     26  C   UNL     1      33.309 -20.011 -20.924  0.00  0.00    +0.005 C 
ATOM     27  C   UNL     1      33.343 -21.794 -19.245  0.00  0.00    +0.002 C 
ATOM     28  C   UNL     1      36.073 -21.400 -18.941  0.00  0.00    +0.085 C 
ATOM     29  C   UNL     1      34.054 -22.576 -18.338  0.00  0.00    -0.004 C 
ATOM     30  C   UNL     1      35.420 -22.378 -18.186  0.00  0.00    -0.019 C 
ENDBRANCH  20  22
ENDBRANCH  19  20
ENDBRANCH   4  19
TORSDOF 5
ENDMDL
MODEL 6
REMARK VINA RESULT:     -11.5      3.183      5.898
REMARK  Name = 11610553
REMARK  5 active torsions:
REMARK  status: ('A' for Active; 'I' for Inactive)
REMARK    1  A    between atoms: C_1  and  C_9
REMARK    2  A    between atoms: C_4  and  O_19
REMARK    3  A    between atoms: C_10  and  C_14
REMARK    4  A    between atoms: O_19  and  C_20
REMARK    5  A    between atoms: C_20  and  C_22
REMARK                            x       y       z     vdW  Elec       q    Type
REMARK                         _______ _______ _______ _____ _____    ______ ____
ROOT
ATOM      1  C   UNL     1      33.201 -13.741 -22.609  0.00  0.00    +0.015 C 
ATOM      2  C   UNL     1      33.906 -14.230 -21.509  0.00  0.00    +0.004 C 
ATOM      3  C   UNL     1      33.229 -14.433 -23.819  0.00  0.00    +0.004 C 
ATOM      4  C   UNL     1      34.661 -16.097 -22.831  0.00  0.00    +0.139 C 
ATOM      5  C   UNL     1      34.638 -15.413 -21.621  0.00  0.00    +0.037 C 
ATOM      6  C   UNL     1      33.961 -15.614 -23.931  0.00  0.00    +0.037 C 
ENDROOT
BRANCH   1   9
ATOM      7  N   UNL     1      31.375 -12.403 -21.654  0.00  0.00    -0.236 N 
ATOM      8  N   UNL     1      30.793 -11.192 -21.678  0.00  0.00    -0.180 NA
ATOM      9  C   UNL     1      32.444 -12.518 -22.493  0.00  0.00    +0.067 C 
ATOM     10  C   UNL     1      32.570 -11.297 -23.110  0.00  0.00    +0.036 C 
ATOM     11  C   UNL     1      31.527 -10.521 -22.569  0.00  0.00    +0.119 C 
ATOM     12  H   UNL     1      31.059 -13.140 -21.082  0.00  0.00    +0.174 HD
BRANCH  10  14
ATOM     13  N   UNL     1      35.526 -10.313 -25.973  0.00  0.00    -0.242 NA
ATOM     14  C   UNL     1      33.570 -10.964 -24.079  0.00  0.00    +0.006 C 
ATOM     15  C   UNL     1      34.413  -9.874 -23.872  0.00  0.00    +0.021 C 
ATOM     16  C   UNL     1      33.709 -11.727 -25.235  0.00  0.00    +0.021 C 
ATOM     17  C   UNL     1      35.364  -9.594 -24.839  0.00  0.00    +0.099 C 
ATOM     18  C   UNL     1      34.692 -11.363 -26.142  0.00  0.00    +0.099 C 
ENDBRANCH  10  14
ENDBRANCH   1   9
BRANCH   4  19
ATOM     19  O   UNL     1      35.381 -17.258 -22.940  0.00  0.00    -0.468 OA
BRANCH  19  20
ATOM     20  C   UNL     1      34.642 -18.472 -22.936  0.00  0.00    +0.264 C 
BRANCH  20  22
ATOM     21  N   UNL     1      34.109 -20.080 -21.208  0.00  0.00    -0.406 NA
ATOM     22  C   UNL     1      35.063 -19.304 -21.771  0.00  0.00    +0.152 C 
ATOM     23  C   UNL     1      35.761 -20.850 -19.632  0.00  0.00    +0.026 C 
ATOM     24  C   UNL     1      34.450 -20.844 -20.153  0.00  0.00    +0.113 C 
ATOM     25  C   UNL     1      36.369 -19.244 -21.332  0.00  0.00    +0.031 C 
ATOM     26  C   UNL     1      36.719 -20.031 -20.245  0.00  0.00    +0.005 C 
ATOM     27  C   UNL     1      36.083 -21.660 -18.530  0.00  0.00    +0.002 C 
ATOM     28  C   UNL     1      33.500 -21.659 -19.544  0.00  0.00    +0.085 C 
ATOM     29  C   UNL     1      35.113 -22.465 -17.939  0.00  0.00    -0.004 C 
ATOM     30  C   UNL     1      33.820 -22.464 -18.447  0.00  0.00    -0.019 C 
ENDBRANCH  20  22
ENDBRANCH  19  20
ENDBRANCH   4  19
TORSDOF 5
ENDMDL
MODEL 7
REMARK VINA RESULT:     -11.4      3.019     10.239
REMARK  Name = 11610553
REMARK  5 active torsions:
REMARK  status: ('A' for Active; 'I' for Inactive)
REMARK    1  A    between atoms: C_1  and  C_9
REMARK    2  A    between atoms: C_4  and  O_19
REMARK    3  A    between atoms: C_10  and  C_14
REMARK    4  A    between atoms: O_19  and  C_20
REMARK    5  A    between atoms: C_20  and  C_22
REMARK                            x       y       z     vdW  Elec       q    Type
REMARK                         _______ _______ _______ _____ _____    ______ ____
ROOT
ATOM      1  C   UNL     1      35.117 -22.885 -16.077  0.00  0.00    +0.015 C 
ATOM      2  C   UNL     1      36.376 -22.291 -16.168  0.00  0.00    +0.004 C 
ATOM      3  C   UNL     1      34.280 -22.921 -17.191  0.00  0.00    +0.004 C 
ATOM      4  C   UNL     1      35.956 -21.772 -18.482  0.00  0.00    +0.139 C 
ATOM      5  C   UNL     1      36.796 -21.732 -17.376  0.00  0.00    +0.037 C 
ATOM      6  C   UNL     1      34.700 -22.363 -18.398  0.00  0.00    +0.037 C 
ENDROOT
BRANCH   1   9
ATOM      7  N   UNL     1      33.515 -23.093 -14.226  0.00  0.00    -0.236 N 
ATOM      8  N   UNL     1      33.273 -23.736 -13.071  0.00  0.00    -0.180 NA
ATOM      9  C   UNL     1      34.682 -23.462 -14.828  0.00  0.00    +0.067 C 
ATOM     10  C   UNL     1      35.243 -24.413 -14.009  0.00  0.00    +0.036 C 
ATOM     11  C   UNL     1      34.332 -24.541 -12.944  0.00  0.00    +0.119 C 
ATOM     12  H   UNL     1      32.906 -22.419 -14.603  0.00  0.00    +0.174 HD
BRANCH  10  14
ATOM     13  N   UNL     1      38.914 -26.386 -14.737  0.00  0.00    -0.242 NA
ATOM     14  C   UNL     1      36.485 -25.081 -14.255  0.00  0.00    +0.006 C 
ATOM     15  C   UNL     1      36.515 -26.252 -15.008  0.00  0.00    +0.021 C 
ATOM     16  C   UNL     1      37.673 -24.565 -13.744  0.00  0.00    +0.021 C 
ATOM     17  C   UNL     1      37.742 -26.860 -15.218  0.00  0.00    +0.099 C 
ATOM     18  C   UNL     1      38.848 -25.249 -14.011  0.00  0.00    +0.099 C 
ENDBRANCH  10  14
ENDBRANCH   1   9
BRANCH   4  19
ATOM     19  O   UNL     1      36.369 -21.223 -19.668  0.00  0.00    -0.468 OA
BRANCH  19  20
ATOM     20  C   UNL     1      35.447 -21.263 -20.749  0.00  0.00    +0.264 C 
BRANCH  20  22
ATOM     21  N   UNL     1      34.985 -19.857 -22.664  0.00  0.00    -0.406 NA
ATOM     22  C   UNL     1      35.340 -19.906 -21.360  0.00  0.00    +0.152 C 
ATOM     23  C   UNL     1      35.131 -17.455 -22.545  0.00  0.00    +0.026 C 
ATOM     24  C   UNL     1      34.881 -18.650 -23.251  0.00  0.00    +0.113 C 
ATOM     25  C   UNL     1      35.605 -18.793 -20.588  0.00  0.00    +0.031 C 
ATOM     26  C   UNL     1      35.497 -17.550 -21.196  0.00  0.00    +0.005 C 
ATOM     27  C   UNL     1      35.013 -16.212 -23.189  0.00  0.00    +0.002 C 
ATOM     28  C   UNL     1      34.516 -18.554 -24.591  0.00  0.00    +0.085 C 
ATOM     29  C   UNL     1      34.647 -16.145 -24.530  0.00  0.00    -0.004 C 
ATOM     30  C   UNL     1      34.399 -17.318 -25.232  0.00  0.00    -0.019 C 
ENDBRANCH  20  22
ENDBRANCH  19  20
ENDBRANCH   4  19
TORSDOF 5
ENDMDL
MODEL 8
REMARK VINA RESULT:     -11.2      4.360     10.394
REMARK  Name = 11610553
REMARK  5 active torsions:
REMARK  status: ('A' for Active; 'I' for Inactive)
REMARK    1  A    between atoms: C_1  and  C_9
REMARK    2  A    between atoms: C_4  and  O_19
REMARK    3  A    between atoms: C_10  and  C_14
REMARK    4  A    between atoms: O_19  and  C_20
REMARK    5  A    between atoms: C_20  and  C_22
REMARK                            x       y       z     vdW  Elec       q    Type
REMARK                         _______ _______ _______ _____ _____    ______ ____
ROOT
ATOM      1  C   UNL     1      33.747 -15.484 -22.917  0.00  0.00    +0.015 C 
ATOM      2  C   UNL     1      32.783 -14.538 -23.265  0.00  0.00    +0.004 C 
ATOM      3  C   UNL     1      34.254 -15.518 -21.618  0.00  0.00    +0.004 C 
ATOM      4  C   UNL     1      32.838 -13.664 -21.022  0.00  0.00    +0.139 C 
ATOM      5  C   UNL     1      32.328 -13.625 -22.314  0.00  0.00    +0.037 C 
ATOM      6  C   UNL     1      33.799 -14.605 -20.667  0.00  0.00    +0.037 C 
ENDROOT
BRANCH   1   9
ATOM      7  N   UNL     1      34.211 -16.150 -25.236  0.00  0.00    -0.236 N 
ATOM      8  N   UNL     1      34.687 -17.147 -26.001  0.00  0.00    -0.180 NA
ATOM      9  C   UNL     1      34.218 -16.428 -23.900  0.00  0.00    +0.067 C 
ATOM     10  C   UNL     1      34.736 -17.696 -23.784  0.00  0.00    +0.036 C 
ATOM     11  C   UNL     1      35.006 -18.088 -25.109  0.00  0.00    +0.119 C 
ATOM     12  H   UNL     1      33.887 -15.298 -25.605  0.00  0.00    +0.174 HD
BRANCH  10  14
ATOM     13  N   UNL     1      35.303 -19.770 -20.140  0.00  0.00    -0.242 NA
ATOM     14  C   UNL     1      34.928 -18.397 -22.551  0.00  0.00    +0.006 C 
ATOM     15  C   UNL     1      33.867 -19.077 -21.958  0.00  0.00    +0.021 C 
ATOM     16  C   UNL     1      36.176 -18.406 -21.935  0.00  0.00    +0.021 C 
ATOM     17  C   UNL     1      34.103 -19.741 -20.765  0.00  0.00    +0.099 C 
ATOM     18  C   UNL     1      36.310 -19.099 -20.742  0.00  0.00    +0.099 C 
ENDBRANCH  10  14
ENDBRANCH   1   9
BRANCH   4  19
ATOM     19  O   UNL     1      32.391 -12.767 -20.088  0.00  0.00    -0.468 OA
BRANCH  19  20
ATOM     20  C   UNL     1      31.200 -12.057 -20.400  0.00  0.00    +0.264 C 
BRANCH  20  22
ATOM     21  N   UNL     1      31.413 -10.237 -21.981  0.00  0.00    -0.406 NA
ATOM     22  C   UNL     1      31.534 -10.633 -20.694  0.00  0.00    +0.152 C 
ATOM     23  C   UNL     1      32.133  -8.040 -21.304  0.00  0.00    +0.026 C 
ATOM     24  C   UNL     1      31.708  -8.959 -22.286  0.00  0.00    +0.113 C 
ATOM     25  C   UNL     1      31.942  -9.807 -19.666  0.00  0.00    +0.031 C 
ATOM     26  C   UNL     1      32.245  -8.491 -19.982  0.00  0.00    +0.005 C 
ATOM     27  C   UNL     1      32.433  -6.713 -21.656  0.00  0.00    +0.002 C 
ATOM     28  C   UNL     1      31.596  -8.510 -23.598  0.00  0.00    +0.085 C 
ATOM     29  C   UNL     1      32.313  -6.290 -22.977  0.00  0.00    -0.004 C 
ATOM     30  C   UNL     1      31.895  -7.190 -23.949  0.00  0.00    -0.019 C 
ENDBRANCH  20  22
ENDBRANCH  19  20
ENDBRANCH   4  19
TORSDOF 5
ENDMDL
MODEL 9
REMARK VINA RESULT:     -11.1      6.334     12.941
REMARK  Name = 11610553
REMARK  5 active torsions:
REMARK  status: ('A' for Active; 'I' for Inactive)
REMARK    1  A    between atoms: C_1  and  C_9
REMARK    2  A    between atoms: C_4  and  O_19
REMARK    3  A    between atoms: C_10  and  C_14
REMARK    4  A    between atoms: O_19  and  C_20
REMARK    5  A    between atoms: C_20  and  C_22
REMARK                            x       y       z     vdW  Elec       q    Type
REMARK                         _______ _______ _______ _____ _____    ______ ____
ROOT
ATOM      1  C   UNL     1      33.000 -12.868 -23.883  0.00  0.00    +0.015 C 
ATOM      2  C   UNL     1      32.010 -12.888 -22.901  0.00  0.00    +0.004 C 
ATOM      3  C   UNL     1      33.657 -11.675 -24.187  0.00  0.00    +0.004 C 
ATOM      4  C   UNL     1      32.334 -10.530 -22.533  0.00  0.00    +0.139 C 
ATOM      5  C   UNL     1      31.676 -11.715 -22.224  0.00  0.00    +0.037 C 
ATOM      6  C   UNL     1      33.323 -10.503 -23.511  0.00  0.00    +0.037 C 
ENDROOT
BRANCH   1   9
ATOM      7  N   UNL     1      33.148 -14.225 -25.926  0.00  0.00    -0.236 N 
ATOM      8  N   UNL     1      33.529 -15.422 -26.405  0.00  0.00    -0.180 NA
ATOM      9  C   UNL     1      33.345 -14.081 -24.583  0.00  0.00    +0.067 C 
ATOM     10  C   UNL     1      33.893 -15.266 -24.155  0.00  0.00    +0.036 C 
ATOM     11  C   UNL     1      33.983 -16.053 -25.319  0.00  0.00    +0.119 C 
ATOM     12  H   UNL     1      32.763 -13.518 -26.491  0.00  0.00    +0.174 HD
BRANCH  10  14
ATOM     13  N   UNL     1      34.989 -16.135 -20.162  0.00  0.00    -0.242 NA
ATOM     14  C   UNL     1      34.265 -15.560 -22.804  0.00  0.00    +0.006 C 
ATOM     15  C   UNL     1      34.272 -14.552 -21.843  0.00  0.00    +0.021 C 
ATOM     16  C   UNL     1      34.620 -16.856 -22.439  0.00  0.00    +0.021 C 
ATOM     17  C   UNL     1      34.638 -14.887 -20.550  0.00  0.00    +0.099 C 
ATOM     18  C   UNL     1      34.971 -17.089 -21.119  0.00  0.00    +0.099 C 
ENDBRANCH  10  14
ENDBRANCH   1   9
BRANCH   4  19
ATOM     19  O   UNL     1      32.006  -9.378 -21.868  0.00  0.00    -0.468 OA
BRANCH  19  20
ATOM     20  C   UNL     1      32.987  -8.349 -21.847  0.00  0.00    +0.264 C 
BRANCH  20  22
ATOM     21  N   UNL     1      32.989  -6.866 -23.759  0.00  0.00    -0.406 NA
ATOM     22  C   UNL     1      32.456  -7.143 -22.547  0.00  0.00    +0.152 C 
ATOM     23  C   UNL     1      31.535  -4.948 -23.885  0.00  0.00    +0.026 C 
ATOM     24  C   UNL     1      32.537  -5.784 -24.421  0.00  0.00    +0.113 C 
ATOM     25  C   UNL     1      31.474  -6.385 -21.942  0.00  0.00    +0.031 C 
ATOM     26  C   UNL     1      31.010  -5.271 -22.626  0.00  0.00    +0.005 C 
ATOM     27  C   UNL     1      31.086  -3.827 -24.603  0.00  0.00    +0.002 C 
ATOM     28  C   UNL     1      33.057  -5.462 -25.672  0.00  0.00    +0.085 C 
ATOM     29  C   UNL     1      31.625  -3.528 -25.851  0.00  0.00    -0.004 C 
ATOM     30  C   UNL     1      32.611  -4.347 -26.386  0.00  0.00    -0.019 C 
ENDBRANCH  20  22
ENDBRANCH  19  20
ENDBRANCH   4  19
TORSDOF 5
ENDMDL
