MODEL 1
REMARK VINA RESULT:      -9.8      0.000      0.000
REMARK  Name = 65399
REMARK  5 active torsions:
REMARK  status: ('A' for Active; 'I' for Inactive)
REMARK    1  A    between atoms: N_1  and  C1*_18
REMARK    2  A    between atoms: C2*_19  and  O2*_22
REMARK    3  A    between atoms: C3*_20  and  O3*_24
REMARK    4  A    between atoms: C4*_21  and  C5*_26
REMARK    5  A    between atoms: C5*_26  and  O5*_27
REMARK                            x       y       z     vdW  Elec       q    Type
REMARK                         _______ _______ _______ _____ _____    ______ ____
ROOT
ATOM      1  N   UNL     1      34.286 -23.896 -14.758  0.00  0.00    -0.265 N 
ATOM      2  N   UNL     1      34.195 -22.987 -17.049  0.00  0.00    -0.230 NA
ATOM      3  N   UNL     1      30.056 -23.343 -16.129  0.00  0.00    -0.192 N 
ATOM      4  N   UNL     1      29.748 -23.848 -14.854  0.00  0.00    -0.162 NA
ATOM      5  N   UNL     1      31.836 -22.701 -17.757  0.00  0.00    -0.228 NA
ATOM      6  N   UNL     1      30.507 -24.685 -12.748  0.00  0.00    -0.342 N 
ATOM      7  C   UNL     1      33.667 -23.441 -15.899  0.00  0.00    +0.133 C 
ATOM      8  C   UNL     1      33.325 -24.266 -13.820  0.00  0.00    +0.124 C 
ATOM      9  C   UNL     1      32.328 -23.538 -15.647  0.00  0.00    +0.065 C 
ATOM     10  C   UNL     1      32.088 -24.041 -14.378  0.00  0.00    +0.036 C 
ATOM     11  C   UNL     1      31.374 -23.171 -16.570  0.00  0.00    +0.150 C 
ATOM     12  C   UNL     1      30.697 -24.187 -14.006  0.00  0.00    +0.141 C 
ATOM     13  C   UNL     1      33.196 -22.641 -17.915  0.00  0.00    +0.253 C 
ATOM     14  C   UNL     1      28.964 -22.991 -17.008  0.00  0.00    +0.142 C 
ATOM     15  H   UNL     1      29.595 -24.820 -12.403  0.00  0.00    +0.144 HD
ATOM     16  H   UNL     1      31.284 -24.910 -12.185  0.00  0.00    +0.144 HD
ENDROOT
BRANCH   1  18
ATOM     17  O4* UNL     1      36.321 -24.804 -15.575  0.00  0.00    -0.333 OA
ATOM     18  C1* UNL     1      35.730 -23.983 -14.549  0.00  0.00    +0.224 C 
ATOM     19  C2* UNL     1      36.127 -24.612 -13.222  0.00  0.00    +0.187 C 
ATOM     20  C3* UNL     1      37.513 -25.139 -13.541  0.00  0.00    +0.171 C 
ATOM     21  C4* UNL     1      37.352 -25.625 -14.979  0.00  0.00    +0.175 C 
BRANCH  19  22
ATOM     22  O2* UNL     1      36.124 -23.668 -12.170  0.00  0.00    -0.378 OA
ATOM     23  H2* UNL     1      36.550 -24.054 -11.389  0.00  0.00    +0.211 HD
ENDBRANCH  19  22
BRANCH  20  24
ATOM     24  O3* UNL     1      38.449 -24.061 -13.521  0.00  0.00    -0.379 OA
ATOM     25  H3* UNL     1      38.229 -23.456 -12.795  0.00  0.00    +0.211 HD
ENDBRANCH  20  24
BRANCH  21  26
ATOM     26  C5* UNL     1      36.919 -27.081 -15.069  0.00  0.00    +0.169 C 
BRANCH  26  27
ATOM     27  O5* UNL     1      36.768 -27.425 -16.434  0.00  0.00    -0.379 OA
ATOM     28  H5* UNL     1      35.826 -27.417 -16.668  0.00  0.00    +0.211 HD
ENDBRANCH  26  27
ENDBRANCH  21  26
ENDBRANCH   1  18
TORSDOF 5
ENDMDL
MODEL 2
REMARK VINA RESULT:      -9.7      1.355      2.017
REMARK  Name = 65399
REMARK  5 active torsions:
REMARK  status: ('A' for Active; 'I' for Inactive)
REMARK    1  A    between atoms: N_1  and  C1*_18
REMARK    2  A    between atoms: C2*_19  and  O2*_22
REMARK    3  A    between atoms: C3*_20  and  O3*_24
REMARK    4  A    between atoms: C4*_21  and  C5*_26
REMARK    5  A    between atoms: C5*_26  and  O5*_27
REMARK                            x       y       z     vdW  Elec       q    Type
REMARK                         _______ _______ _______ _____ _____    ______ ____
ROOT
ATOM      1  N   UNL     1      34.198 -24.179 -14.726  0.00  0.00    -0.265 N 
ATOM      2  N   UNL     1      34.202 -23.186 -16.984  0.00  0.00    -0.230 NA
ATOM      3  N   UNL     1      30.041 -23.212 -16.094  0.00  0.00    -0.192 N 
ATOM      4  N   UNL     1      29.682 -23.733 -14.839  0.00  0.00    -0.162 NA
ATOM      5  N   UNL     1      31.882 -22.671 -17.691  0.00  0.00    -0.228 NA
ATOM      6  N   UNL     1      30.350 -24.706 -12.760  0.00  0.00    -0.342 N 
ATOM      7  C   UNL     1      33.629 -23.633 -15.853  0.00  0.00    +0.133 C 
ATOM      8  C   UNL     1      33.201 -24.496 -13.805  0.00  0.00    +0.124 C 
ATOM      9  C   UNL     1      32.285 -23.621 -15.610  0.00  0.00    +0.065 C 
ATOM     10  C   UNL     1      31.992 -24.145 -14.360  0.00  0.00    +0.036 C 
ATOM     11  C   UNL     1      31.372 -23.140 -16.523  0.00  0.00    +0.150 C 
ATOM     12  C   UNL     1      30.592 -24.182 -13.999  0.00  0.00    +0.141 C 
ATOM     13  C   UNL     1      33.243 -22.724 -17.841  0.00  0.00    +0.253 C 
ATOM     14  C   UNL     1      28.990 -22.735 -16.964  0.00  0.00    +0.142 C 
ATOM     15  H   UNL     1      29.428 -24.772 -12.425  0.00  0.00    +0.144 HD
ATOM     16  H   UNL     1      31.100 -25.017 -12.203  0.00  0.00    +0.144 HD
ENDROOT
BRANCH   1  18
ATOM     17  O4* UNL     1      35.825 -25.225 -13.351  0.00  0.00    -0.333 OA
ATOM     18  C1* UNL     1      35.627 -24.399 -14.515  0.00  0.00    +0.224 C 
ATOM     19  C2* UNL     1      36.420 -23.124 -14.269  0.00  0.00    +0.187 C 
ATOM     20  C3* UNL     1      37.608 -23.654 -13.490  0.00  0.00    +0.171 C 
ATOM     21  C4* UNL     1      36.971 -24.733 -12.619  0.00  0.00    +0.175 C 
BRANCH  19  22
ATOM     22  O2* UNL     1      36.789 -22.491 -15.477  0.00  0.00    -0.378 OA
ATOM     23  H2* UNL     1      36.655 -21.534 -15.395  0.00  0.00    +0.211 HD
ENDBRANCH  19  22
BRANCH  20  24
ATOM     24  O3* UNL     1      38.529 -24.272 -14.389  0.00  0.00    -0.379 OA
ATOM     25  H3* UNL     1      39.363 -24.449 -13.925  0.00  0.00    +0.211 HD
ENDBRANCH  20  24
BRANCH  21  26
ATOM     26  C5* UNL     1      36.492 -24.204 -11.275  0.00  0.00    +0.169 C 
BRANCH  26  27
ATOM     27  O5* UNL     1      35.418 -25.012 -10.827  0.00  0.00    -0.379 OA
ATOM     28  H5* UNL     1      35.498 -25.154  -9.870  0.00  0.00    +0.211 HD
ENDBRANCH  26  27
ENDBRANCH  21  26
ENDBRANCH   1  18
TORSDOF 5
ENDMDL
MODEL 3
REMARK VINA RESULT:      -9.6      1.343      3.576
REMARK  Name = 65399
REMARK  5 active torsions:
REMARK  status: ('A' for Active; 'I' for Inactive)
REMARK    1  A    between atoms: N_1  and  C1*_18
REMARK    2  A    between atoms: C2*_19  and  O2*_22
REMARK    3  A    between atoms: C3*_20  and  O3*_24
REMARK    4  A    between atoms: C4*_21  and  C5*_26
REMARK    5  A    between atoms: C5*_26  and  O5*_27
REMARK                            x       y       z     vdW  Elec       q    Type
REMARK                         _______ _______ _______ _____ _____    ______ ____
ROOT
ATOM      1  N   UNL     1      34.091 -24.495 -14.243  0.00  0.00    -0.265 N 
ATOM      2  N   UNL     1      31.964 -24.844 -13.043  0.00  0.00    -0.230 NA
ATOM      3  N   UNL     1      30.610 -22.941 -16.600  0.00  0.00    -0.192 N 
ATOM      4  N   UNL     1      31.604 -22.595 -17.532  0.00  0.00    -0.162 NA
ATOM      5  N   UNL     1      30.075 -23.968 -14.389  0.00  0.00    -0.228 NA
ATOM      6  N   UNL     1      33.916 -22.559 -18.138  0.00  0.00    -0.342 N 
ATOM      7  C   UNL     1      32.728 -24.427 -14.068  0.00  0.00    +0.133 C 
ATOM      8  C   UNL     1      34.433 -23.930 -15.470  0.00  0.00    +0.124 C 
ATOM      9  C   UNL     1      32.249 -23.819 -15.193  0.00  0.00    +0.065 C 
ATOM     10  C   UNL     1      33.273 -23.503 -16.073  0.00  0.00    +0.036 C 
ATOM     11  C   UNL     1      30.907 -23.572 -15.386  0.00  0.00    +0.150 C 
ATOM     12  C   UNL     1      32.876 -22.852 -17.302  0.00  0.00    +0.141 C 
ATOM     13  C   UNL     1      30.651 -24.569 -13.301  0.00  0.00    +0.253 C 
ATOM     14  C   UNL     1      29.235 -22.630 -16.919  0.00  0.00    +0.142 C 
ATOM     15  H   UNL     1      33.746 -22.116 -19.000  0.00  0.00    +0.144 HD
ATOM     16  H   UNL     1      34.837 -22.792 -17.877  0.00  0.00    +0.144 HD
ENDROOT
BRANCH   1  18
ATOM     17  O4* UNL     1      35.242 -24.159 -12.195  0.00  0.00    -0.333 OA
ATOM     18  C1* UNL     1      35.044 -25.068 -13.295  0.00  0.00    +0.224 C 
ATOM     19  C2* UNL     1      36.422 -25.327 -13.883  0.00  0.00    +0.187 C 
ATOM     20  C3* UNL     1      37.293 -25.281 -12.643  0.00  0.00    +0.171 C 
ATOM     21  C4* UNL     1      36.641 -24.166 -11.830  0.00  0.00    +0.175 C 
BRANCH  19  22
ATOM     22  O2* UNL     1      36.483 -26.569 -14.555  0.00  0.00    -0.378 OA
ATOM     23  H2* UNL     1      37.400 -26.750 -14.817  0.00  0.00    +0.211 HD
ENDBRANCH  19  22
BRANCH  20  24
ATOM     24  O3* UNL     1      37.165 -26.509 -11.925  0.00  0.00    -0.379 OA
ATOM     25  H3* UNL     1      36.242 -26.804 -11.953  0.00  0.00    +0.211 HD
ENDBRANCH  20  24
BRANCH  21  26
ATOM     26  C5* UNL     1      37.224 -22.793 -12.132  0.00  0.00    +0.169 C 
BRANCH  26  27
ATOM     27  O5* UNL     1      38.567 -22.761 -11.681  0.00  0.00    -0.379 OA
ATOM     28  H5* UNL     1      38.581 -22.681 -10.713  0.00  0.00    +0.211 HD
ENDBRANCH  26  27
ENDBRANCH  21  26
ENDBRANCH   1  18
TORSDOF 5
ENDMDL
MODEL 4
REMARK VINA RESULT:      -9.6      2.021      3.081
REMARK  Name = 65399
REMARK  5 active torsions:
REMARK  status: ('A' for Active; 'I' for Inactive)
REMARK    1  A    between atoms: N_1  and  C1*_18
REMARK    2  A    between atoms: C2*_19  and  O2*_22
REMARK    3  A    between atoms: C3*_20  and  O3*_24
REMARK    4  A    between atoms: C4*_21  and  C5*_26
REMARK    5  A    between atoms: C5*_26  and  O5*_27
REMARK                            x       y       z     vdW  Elec       q    Type
REMARK                         _______ _______ _______ _____ _____    ______ ____
ROOT
ATOM      1  N   UNL     1      35.482 -23.370 -14.571  0.00  0.00    -0.265 N 
ATOM      2  N   UNL     1      37.144 -22.453 -16.147  0.00  0.00    -0.230 NA
ATOM      3  N   UNL     1      33.607 -22.347 -18.511  0.00  0.00    -0.192 N 
ATOM      4  N   UNL     1      32.436 -22.816 -17.892  0.00  0.00    -0.162 NA
ATOM      5  N   UNL     1      36.056 -21.905 -18.307  0.00  0.00    -0.228 NA
ATOM      6  N   UNL     1      31.372 -23.735 -15.959  0.00  0.00    -0.342 N 
ATOM      7  C   UNL     1      35.916 -22.847 -15.768  0.00  0.00    +0.133 C 
ATOM      8  C   UNL     1      34.115 -23.631 -14.643  0.00  0.00    +0.124 C 
ATOM      9  C   UNL     1      34.806 -22.795 -16.563  0.00  0.00    +0.065 C 
ATOM     10  C   UNL     1      33.685 -23.269 -15.899  0.00  0.00    +0.036 C 
ATOM     11  C   UNL     1      34.845 -22.322 -17.856  0.00  0.00    +0.150 C 
ATOM     12  C   UNL     1      32.450 -23.260 -16.651  0.00  0.00    +0.141 C 
ATOM     13  C   UNL     1      37.108 -21.997 -17.435  0.00  0.00    +0.253 C 
ATOM     14  C   UNL     1      33.518 -21.874 -19.875  0.00  0.00    +0.142 C 
ATOM     15  H   UNL     1      30.487 -23.768 -16.386  0.00  0.00    +0.144 HD
ATOM     16  H   UNL     1      31.482 -24.046 -15.030  0.00  0.00    +0.144 HD
ENDROOT
BRANCH   1  18
ATOM     17  O4* UNL     1      37.708 -23.546 -13.767  0.00  0.00    -0.333 OA
ATOM     18  C1* UNL     1      36.317 -23.617 -13.398  0.00  0.00    +0.224 C 
ATOM     19  C2* UNL     1      36.114 -24.989 -12.772  0.00  0.00    +0.187 C 
ATOM     20  C3* UNL     1      37.445 -25.202 -12.077  0.00  0.00    +0.171 C 
ATOM     21  C4* UNL     1      38.430 -24.584 -13.064  0.00  0.00    +0.175 C 
BRANCH  19  22
ATOM     22  O2* UNL     1      35.017 -25.005 -11.882  0.00  0.00    -0.378 OA
ATOM     23  H2* UNL     1      34.470 -24.218 -12.029  0.00  0.00    +0.211 HD
ENDBRANCH  19  22
BRANCH  20  24
ATOM     24  O3* UNL     1      37.475 -24.450 -10.864  0.00  0.00    -0.379 OA
ATOM     25  H3* UNL     1      38.304 -23.949 -10.816  0.00  0.00    +0.211 HD
ENDBRANCH  20  24
BRANCH  21  26
ATOM     26  C5* UNL     1      38.952 -25.582 -14.087  0.00  0.00    +0.169 C 
BRANCH  26  27
ATOM     27  O5* UNL     1      38.964 -24.962 -15.361  0.00  0.00    -0.379 OA
ATOM     28  H5* UNL     1      39.720 -25.291 -15.873  0.00  0.00    +0.211 HD
ENDBRANCH  26  27
ENDBRANCH  21  26
ENDBRANCH   1  18
TORSDOF 5
ENDMDL
MODEL 5
REMARK VINA RESULT:      -9.5      1.393      2.962
REMARK  Name = 65399
REMARK  5 active torsions:
REMARK  status: ('A' for Active; 'I' for Inactive)
REMARK    1  A    between atoms: N_1  and  C1*_18
REMARK    2  A    between atoms: C2*_19  and  O2*_22
REMARK    3  A    between atoms: C3*_20  and  O3*_24
REMARK    4  A    between atoms: C4*_21  and  C5*_26
REMARK    5  A    between atoms: C5*_26  and  O5*_27
REMARK                            x       y       z     vdW  Elec       q    Type
REMARK                         _______ _______ _______ _____ _____    ______ ____
ROOT
ATOM      1  N   UNL     1      34.905 -23.586 -14.463  0.00  0.00    -0.265 N 
ATOM      2  N   UNL     1      32.982 -23.716 -12.923  0.00  0.00    -0.230 NA
ATOM      3  N   UNL     1      31.036 -22.906 -16.620  0.00  0.00    -0.192 N 
ATOM      4  N   UNL     1      31.872 -22.769 -17.741  0.00  0.00    -0.162 NA
ATOM      5  N   UNL     1      30.871 -23.333 -14.166  0.00  0.00    -0.228 NA
ATOM      6  N   UNL     1      34.079 -22.772 -18.659  0.00  0.00    -0.342 N 
ATOM      7  C   UNL     1      33.574 -23.547 -14.119  0.00  0.00    +0.133 C 
ATOM      8  C   UNL     1      35.042 -23.352 -15.830  0.00  0.00    +0.124 C 
ATOM      9  C   UNL     1      32.907 -23.288 -15.283  0.00  0.00    +0.065 C 
ATOM     10  C   UNL     1      33.782 -23.164 -16.350  0.00  0.00    +0.036 C 
ATOM     11  C   UNL     1      31.535 -23.173 -15.339  0.00  0.00    +0.150 C 
ATOM     12  C   UNL     1      33.180 -22.887 -17.636  0.00  0.00    +0.141 C 
ATOM     13  C   UNL     1      31.628 -23.590 -13.053  0.00  0.00    +0.253 C 
ATOM     14  C   UNL     1      29.610 -22.765 -16.808  0.00  0.00    +0.142 C 
ATOM     15  H   UNL     1      33.766 -22.585 -19.573  0.00  0.00    +0.144 HD
ATOM     16  H   UNL     1      35.043 -22.878 -18.481  0.00  0.00    +0.144 HD
ENDROOT
BRANCH   1  18
ATOM     17  O4* UNL     1      37.254 -23.872 -14.280  0.00  0.00    -0.333 OA
ATOM     18  C1* UNL     1      36.015 -23.833 -13.545  0.00  0.00    +0.224 C 
ATOM     19  C2* UNL     1      35.921 -25.158 -12.803  0.00  0.00    +0.187 C 
ATOM     20  C3* UNL     1      37.378 -25.426 -12.481  0.00  0.00    +0.171 C 
ATOM     21  C4* UNL     1      38.087 -24.921 -13.735  0.00  0.00    +0.175 C 
BRANCH  19  22
ATOM     22  O2* UNL     1      35.110 -25.059 -11.650  0.00  0.00    -0.378 OA
ATOM     23  H2* UNL     1      35.192 -25.872 -11.127  0.00  0.00    +0.211 HD
ENDBRANCH  19  22
BRANCH  20  24
ATOM     24  O3* UNL     1      37.777 -24.621 -11.371  0.00  0.00    -0.379 OA
ATOM     25  H3* UNL     1      37.100 -23.948 -11.201  0.00  0.00    +0.211 HD
ENDBRANCH  20  24
BRANCH  21  26
ATOM     26  C5* UNL     1      38.257 -25.999 -14.795  0.00  0.00    +0.169 C 
BRANCH  26  27
ATOM     27  O5* UNL     1      39.506 -26.637 -14.597  0.00  0.00    -0.379 OA
ATOM     28  H5* UNL     1      40.051 -26.102 -13.997  0.00  0.00    +0.211 HD
ENDBRANCH  26  27
ENDBRANCH  21  26
ENDBRANCH   1  18
TORSDOF 5
ENDMDL
MODEL 6
REMARK VINA RESULT:      -9.0      1.618      3.368
REMARK  Name = 65399
REMARK  5 active torsions:
REMARK  status: ('A' for Active; 'I' for Inactive)
REMARK    1  A    between atoms: N_1  and  C1*_18
REMARK    2  A    between atoms: C2*_19  and  O2*_22
REMARK    3  A    between atoms: C3*_20  and  O3*_24
REMARK    4  A    between atoms: C4*_21  and  C5*_26
REMARK    5  A    between atoms: C5*_26  and  O5*_27
REMARK                            x       y       z     vdW  Elec       q    Type
REMARK                         _______ _______ _______ _____ _____    ______ ____
ROOT
ATOM      1  N   UNL     1      34.803 -23.980 -15.038  0.00  0.00    -0.265 N 
ATOM      2  N   UNL     1      33.273 -24.442 -13.160  0.00  0.00    -0.230 NA
ATOM      3  N   UNL     1      30.570 -22.946 -16.086  0.00  0.00    -0.192 N 
ATOM      4  N   UNL     1      31.136 -22.576 -17.318  0.00  0.00    -0.162 NA
ATOM      5  N   UNL     1      30.949 -23.854 -13.791  0.00  0.00    -0.228 NA
ATOM      6  N   UNL     1      33.079 -22.363 -18.694  0.00  0.00    -0.342 N 
ATOM      7  C   UNL     1      33.585 -24.030 -14.401  0.00  0.00    +0.133 C 
ATOM      8  C   UNL     1      34.636 -23.477 -16.328  0.00  0.00    +0.124 C 
ATOM      9  C   UNL     1      32.682 -23.556 -15.309  0.00  0.00    +0.065 C 
ATOM     10  C   UNL     1      33.298 -23.209 -16.501  0.00  0.00    +0.036 C 
ATOM     11  C   UNL     1      31.336 -23.454 -15.030  0.00  0.00    +0.150 C 
ATOM     12  C   UNL     1      32.430 -22.692 -17.538  0.00  0.00    +0.141 C 
ATOM     13  C   UNL     1      31.929 -24.314 -12.952  0.00  0.00    +0.253 C 
ATOM     14  C   UNL     1      29.143 -22.793 -15.915  0.00  0.00    +0.142 C 
ATOM     15  H   UNL     1      32.574 -22.004 -19.458  0.00  0.00    +0.144 HD
ATOM     16  H   UNL     1      34.054 -22.487 -18.763  0.00  0.00    +0.144 HD
ENDROOT
BRANCH   1  18
ATOM     17  O4* UNL     1      35.855 -25.186 -13.286  0.00  0.00    -0.333 OA
ATOM     18  C1* UNL     1      36.083 -24.387 -14.463  0.00  0.00    +0.224 C 
ATOM     19  C2* UNL     1      36.961 -23.226 -14.022  0.00  0.00    +0.187 C 
ATOM     20  C3* UNL     1      37.821 -23.884 -12.961  0.00  0.00    +0.171 C 
ATOM     21  C4* UNL     1      36.834 -24.829 -12.283  0.00  0.00    +0.175 C 
BRANCH  19  22
ATOM     22  O2* UNL     1      37.715 -22.698 -15.095  0.00  0.00    -0.378 OA
ATOM     23  H2* UNL     1      38.604 -22.468 -14.782  0.00  0.00    +0.211 HD
ENDBRANCH  19  22
BRANCH  20  24
ATOM     24  O3* UNL     1      38.843 -24.659 -13.589  0.00  0.00    -0.379 OA
ATOM     25  H3* UNL     1      39.281 -24.124 -14.269  0.00  0.00    +0.211 HD
ENDBRANCH  20  24
BRANCH  21  26
ATOM     26  C5* UNL     1      36.107 -24.187 -11.110  0.00  0.00    +0.169 C 
BRANCH  26  27
ATOM     27  O5* UNL     1      35.169 -25.115 -10.595  0.00  0.00    -0.379 OA
ATOM     28  H5* UNL     1      34.746 -25.589 -11.329  0.00  0.00    +0.211 HD
ENDBRANCH  26  27
ENDBRANCH  21  26
ENDBRANCH   1  18
TORSDOF 5
ENDMDL
MODEL 7
REMARK VINA RESULT:      -8.9      3.137      6.023
REMARK  Name = 65399
REMARK  5 active torsions:
REMARK  status: ('A' for Active; 'I' for Inactive)
REMARK    1  A    between atoms: N_1  and  C1*_18
REMARK    2  A    between atoms: C2*_19  and  O2*_22
REMARK    3  A    between atoms: C3*_20  and  O3*_24
REMARK    4  A    between atoms: C4*_21  and  C5*_26
REMARK    5  A    between atoms: C5*_26  and  O5*_27
REMARK                            x       y       z     vdW  Elec       q    Type
REMARK                         _______ _______ _______ _____ _____    ______ ____
ROOT
ATOM      1  N   UNL     1      32.894 -23.378 -16.369  0.00  0.00    -0.265 N 
ATOM      2  N   UNL     1      35.154 -23.526 -15.392  0.00  0.00    -0.230 NA
ATOM      3  N   UNL     1      35.957 -21.499 -19.047  0.00  0.00    -0.192 N 
ATOM      4  N   UNL     1      34.847 -21.248 -19.871  0.00  0.00    -0.162 NA
ATOM      5  N   UNL     1      36.807 -22.474 -16.911  0.00  0.00    -0.228 NA
ATOM      6  N   UNL     1      32.492 -21.430 -20.241  0.00  0.00    -0.342 N 
ATOM      7  C   UNL     1      34.255 -23.181 -16.331  0.00  0.00    +0.133 C 
ATOM      8  C   UNL     1      32.377 -22.847 -17.550  0.00  0.00    +0.124 C 
ATOM      9  C   UNL     1      34.559 -22.529 -17.492  0.00  0.00    +0.065 C 
ATOM     10  C   UNL     1      33.426 -22.310 -18.260  0.00  0.00    +0.036 C 
ATOM     11  C   UNL     1      35.845 -22.157 -17.816  0.00  0.00    +0.150 C 
ATOM     12  C   UNL     1      33.634 -21.624 -19.517  0.00  0.00    +0.141 C 
ATOM     13  C   UNL     1      36.403 -23.127 -15.777  0.00  0.00    +0.253 C 
ATOM     14  C   UNL     1      37.258 -21.057 -19.497  0.00  0.00    +0.142 C 
ATOM     15  H   UNL     1      32.531 -20.971 -21.111  0.00  0.00    +0.144 HD
ATOM     16  H   UNL     1      31.628 -21.749 -19.891  0.00  0.00    +0.144 HD
ENDROOT
BRANCH   1  18
ATOM     17  O4* UNL     1      30.829 -24.442 -15.885  0.00  0.00    -0.333 OA
ATOM     18  C1* UNL     1      32.099 -24.042 -15.337  0.00  0.00    +0.224 C 
ATOM     19  C2* UNL     1      31.785 -23.163 -14.137  0.00  0.00    +0.187 C 
ATOM     20  C3* UNL     1      30.521 -23.813 -13.610  0.00  0.00    +0.171 C 
ATOM     21  C4* UNL     1      29.800 -24.211 -14.895  0.00  0.00    +0.175 C 
BRANCH  19  22
ATOM     22  O2* UNL     1      32.839 -23.160 -13.195  0.00  0.00    -0.378 OA
ATOM     23  H2* UNL     1      33.685 -23.052 -13.658  0.00  0.00    +0.211 HD
ENDBRANCH  19  22
BRANCH  20  24
ATOM     24  O3* UNL     1      30.860 -24.997 -12.887  0.00  0.00    -0.379 OA
ATOM     25  H3* UNL     1      30.101 -25.274 -12.349  0.00  0.00    +0.211 HD
ENDBRANCH  20  24
BRANCH  21  26
ATOM     26  C5* UNL     1      28.870 -23.124 -15.414  0.00  0.00    +0.169 C 
BRANCH  26  27
ATOM     27  O5* UNL     1      28.122 -23.647 -16.497  0.00  0.00    -0.379 OA
ATOM     28  H5* UNL     1      27.534 -24.350 -16.175  0.00  0.00    +0.211 HD
ENDBRANCH  26  27
ENDBRANCH  21  26
ENDBRANCH   1  18
TORSDOF 5
ENDMDL
MODEL 8
REMARK VINA RESULT:      -8.8      3.316      5.902
REMARK  Name = 65399
REMARK  5 active torsions:
REMARK  status: ('A' for Active; 'I' for Inactive)
REMARK    1  A    between atoms: N_1  and  C1*_18
REMARK    2  A    between atoms: C2*_19  and  O2*_22
REMARK    3  A    between atoms: C3*_20  and  O3*_24
REMARK    4  A    between atoms: C4*_21  and  C5*_26
REMARK    5  A    between atoms: C5*_26  and  O5*_27
REMARK                            x       y       z     vdW  Elec       q    Type
REMARK                         _______ _______ _______ _____ _____    ______ ____
ROOT
ATOM      1  N   UNL     1      32.548 -24.273 -14.905  0.00  0.00    -0.265 N 
ATOM      2  N   UNL     1      32.745 -23.474 -17.230  0.00  0.00    -0.230 NA
ATOM      3  N   UNL     1      36.608 -22.551 -15.703  0.00  0.00    -0.192 N 
ATOM      4  N   UNL     1      36.837 -22.888 -14.358  0.00  0.00    -0.162 NA
ATOM      5  N   UNL     1      35.006 -22.533 -17.618  0.00  0.00    -0.228 NA
ATOM      6  N   UNL     1      36.019 -23.824 -12.316  0.00  0.00    -0.342 N 
ATOM      7  C   UNL     1      33.188 -23.704 -15.982  0.00  0.00    +0.133 C 
ATOM      8  C   UNL     1      33.411 -24.303 -13.811  0.00  0.00    +0.124 C 
ATOM      9  C   UNL     1      34.440 -23.391 -15.535  0.00  0.00    +0.065 C 
ATOM     10  C   UNL     1      34.606 -23.747 -14.205  0.00  0.00    +0.036 C 
ATOM     11  C   UNL     1      35.385 -22.794 -16.340  0.00  0.00    +0.150 C 
ATOM     12  C   UNL     1      35.900 -23.457 -13.627  0.00  0.00    +0.141 C 
ATOM     13  C   UNL     1      33.730 -22.885 -17.972  0.00  0.00    +0.253 C 
ATOM     14  C   UNL     1      37.682 -21.930 -16.445  0.00  0.00    +0.142 C 
ATOM     15  H   UNL     1      36.863 -23.669 -11.835  0.00  0.00    +0.144 HD
ATOM     16  H   UNL     1      35.259 -24.245 -11.852  0.00  0.00    +0.144 HD
ENDROOT
BRANCH   1  18
ATOM     17  O4* UNL     1      30.552 -24.504 -16.167  0.00  0.00    -0.333 OA
ATOM     18  C1* UNL     1      31.175 -24.773 -14.896  0.00  0.00    +0.224 C 
ATOM     19  C2* UNL     1      30.287 -24.126 -13.845  0.00  0.00    +0.187 C 
ATOM     20  C3* UNL     1      28.911 -24.317 -14.453  0.00  0.00    +0.171 C 
ATOM     21  C4* UNL     1      29.181 -24.104 -15.940  0.00  0.00    +0.175 C 
BRANCH  19  22
ATOM     22  O2* UNL     1      30.425 -24.748 -12.583  0.00  0.00    -0.378 OA
ATOM     23  H2* UNL     1      29.546 -24.954 -12.227  0.00  0.00    +0.211 HD
ENDBRANCH  19  22
BRANCH  20  24
ATOM     24  O3* UNL     1      28.484 -25.664 -14.251  0.00  0.00    -0.379 OA
ATOM     25  H3* UNL     1      29.236 -26.263 -14.376  0.00  0.00    +0.211 HD
ENDBRANCH  20  24
BRANCH  21  26
ATOM     26  C5* UNL     1      29.027 -22.652 -16.369  0.00  0.00    +0.169 C 
BRANCH  26  27
ATOM     27  O5* UNL     1      30.156 -22.286 -17.142  0.00  0.00    -0.379 OA
ATOM     28  H5* UNL     1      30.828 -21.889 -16.565  0.00  0.00    +0.211 HD
ENDBRANCH  26  27
ENDBRANCH  21  26
ENDBRANCH   1  18
TORSDOF 5
ENDMDL
MODEL 9
REMARK VINA RESULT:      -8.6     12.241     14.735
REMARK  Name = 65399
REMARK  5 active torsions:
REMARK  status: ('A' for Active; 'I' for Inactive)
REMARK    1  A    between atoms: N_1  and  C1*_18
REMARK    2  A    between atoms: C2*_19  and  O2*_22
REMARK    3  A    between atoms: C3*_20  and  O3*_24
REMARK    4  A    between atoms: C4*_21  and  C5*_26
REMARK    5  A    between atoms: C5*_26  and  O5*_27
REMARK                            x       y       z     vdW  Elec       q    Type
REMARK                         _______ _______ _______ _____ _____    ______ ____
ROOT
ATOM      1  N   UNL     1      32.982 -12.948 -23.458  0.00  0.00    -0.265 N 
ATOM      2  N   UNL     1      32.838 -13.774 -25.778  0.00  0.00    -0.230 NA
ATOM      3  N   UNL     1      34.644 -17.094 -23.821  0.00  0.00    -0.192 N 
ATOM      4  N   UNL     1      34.874 -16.948 -22.443  0.00  0.00    -0.162 NA
ATOM      5  N   UNL     1      33.769 -16.068 -25.922  0.00  0.00    -0.228 NA
ATOM      6  N   UNL     1      34.724 -15.597 -20.476  0.00  0.00    -0.342 N 
ATOM      7  C   UNL     1      33.150 -13.861 -24.473  0.00  0.00    +0.133 C 
ATOM      8  C   UNL     1      33.459 -13.483 -22.263  0.00  0.00    +0.124 C 
ATOM      9  C   UNL     1      33.730 -14.950 -23.887  0.00  0.00    +0.065 C 
ATOM     10  C   UNL     1      33.932 -14.747 -22.530  0.00  0.00    +0.036 C 
ATOM     11  C   UNL     1      34.057 -16.086 -24.596  0.00  0.00    +0.150 C 
ATOM     12  C   UNL     1      34.544 -15.841 -21.808  0.00  0.00    +0.141 C 
ATOM     13  C   UNL     1      33.188 -14.931 -26.417  0.00  0.00    +0.253 C 
ATOM     14  C   UNL     1      35.030 -18.336 -24.452  0.00  0.00    +0.142 C 
ATOM     15  H   UNL     1      35.133 -16.283 -19.900  0.00  0.00    +0.144 HD
ATOM     16  H   UNL     1      34.443 -14.735 -20.091  0.00  0.00    +0.144 HD
ENDROOT
BRANCH   1  18
ATOM     17  O4* UNL     1      33.169 -10.841 -24.534  0.00  0.00    -0.333 OA
ATOM     18  C1* UNL     1      32.396 -11.616 -23.599  0.00  0.00    +0.224 C 
ATOM     19  C2* UNL     1      32.364 -10.814 -22.307  0.00  0.00    +0.187 C 
ATOM     20  C3* UNL     1      32.340  -9.393 -22.836  0.00  0.00    +0.171 C 
ATOM     21  C4* UNL     1      33.264  -9.482 -24.048  0.00  0.00    +0.175 C 
BRANCH  19  22
ATOM     22  O2* UNL     1      31.234 -11.129 -21.519  0.00  0.00    -0.378 OA
ATOM     23  H2* UNL     1      30.690 -11.785 -21.982  0.00  0.00    +0.211 HD
ENDBRANCH  19  22
BRANCH  20  24
ATOM     24  O3* UNL     1      31.023  -9.073 -23.284  0.00  0.00    -0.379 OA
ATOM     25  H3* UNL     1      30.891  -9.428 -24.176  0.00  0.00    +0.211 HD
ENDBRANCH  20  24
BRANCH  21  26
ATOM     26  C5* UNL     1      34.719  -9.194 -23.708  0.00  0.00    +0.169 C 
BRANCH  26  27
ATOM     27  O5* UNL     1      35.531 -10.185 -24.312  0.00  0.00    -0.379 OA
ATOM     28  H5* UNL     1      34.966 -10.877 -24.694  0.00  0.00    +0.211 HD
ENDBRANCH  26  27
ENDBRANCH  21  26
ENDBRANCH   1  18
TORSDOF 5
ENDMDL
