MODEL 1
REMARK VINA RESULT:      -6.2      0.000      0.000
REMARK  Name = 16750271
REMARK  4 active torsions:
REMARK  status: ('A' for Active; 'I' for Inactive)
REMARK    1  A    between atoms: C_7  and  O_28
REMARK    2  A    between atoms: O_28  and  C_29
REMARK    3  A    between atoms: C_29  and  C_30
REMARK    4  A    between atoms: C_30  and  N_31
REMARK                            x       y       z     vdW  Elec       q    Type
REMARK                         _______ _______ _______ _____ _____    ______ ____
ROOT
ATOM      1  O   UNL     1      33.358  -7.271 -23.294  0.00  0.00    -0.344 OA
ATOM      2  O   UNL     1      33.429 -12.720 -24.331  0.00  0.00    -0.453 OA
ATOM      3  O   UNL     1      35.407 -11.087 -25.672  0.00  0.00    -0.341 OA
ATOM      4  N   UNL     1      31.994 -11.823 -19.808  0.00  0.00    -0.247 N 
ATOM      5  N   UNL     1      32.569 -12.950 -21.855  0.00  0.00    -0.334 NA
ATOM      6  N   UNL     1      31.940 -14.165 -19.916  0.00  0.00    -0.170 NA
ATOM      7  C   UNL     1      32.105  -7.674 -20.626  0.00  0.00    +0.137 C 
ATOM      8  C   UNL     1      32.136  -8.571 -21.700  0.00  0.00    +0.043 C 
ATOM      9  C   UNL     1      32.045  -8.150 -19.320  0.00  0.00    +0.038 C 
ATOM     10  C   UNL     1      32.100  -9.953 -21.443  0.00  0.00    +0.016 C 
ATOM     11  C   UNL     1      32.179  -8.056 -23.114  0.00  0.00    +0.172 C 
ATOM     12  C   UNL     1      32.026 -10.454 -20.134  0.00  0.00    +0.058 C 
ATOM     13  C   UNL     1      32.006  -9.523 -19.079  0.00  0.00    +0.018 C 
ATOM     14  C   UNL     1      33.508  -6.807 -24.635  0.00  0.00    +0.169 C 
ATOM     15  C   UNL     1      32.169 -12.998 -20.563  0.00  0.00    +0.149 C 
ATOM     16  C   UNL     1      32.733 -14.118 -22.521  0.00  0.00    +0.180 C 
ATOM     17  C   UNL     1      33.174 -13.991 -23.900  0.00  0.00    +0.175 C 
ATOM     18  C   UNL     1      33.846 -12.805 -25.625  0.00  0.00    +0.153 C 
ATOM     19  C   UNL     1      34.287  -7.754 -25.503  0.00  0.00    +0.004 C 
ATOM     20  C   UNL     1      34.196 -11.529 -26.281  0.00  0.00    +0.206 C 
ATOM     21  C   UNL     1      33.419 -14.884 -24.926  0.00  0.00    +0.043 C 
ATOM     22  C   UNL     1      33.850 -14.119 -26.037  0.00  0.00    +0.039 C 
ATOM     23  C   UNL     1      35.736  -9.736 -25.994  0.00  0.00    +0.169 C 
ATOM     24  C   UNL     1      32.509 -15.345 -21.932  0.00  0.00    +0.058 C 
ATOM     25  C   UNL     1      35.010  -8.802 -25.076  0.00  0.00    +0.004 C 
ATOM     26  C   UNL     1      32.111 -15.306 -20.616  0.00  0.00    +0.114 C 
ATOM     27  H   UNL     1      31.811 -11.994 -18.855  0.00  0.00    +0.165 HD
ENDROOT
BRANCH   7  28
ATOM     28  O   UNL     1      32.121  -6.327 -20.831  0.00  0.00    -0.478 OA
BRANCH  28  29
ATOM     29  C   UNL     1      30.871  -5.646 -20.753  0.00  0.00    +0.183 C 
BRANCH  29  30
ATOM     30  C   UNL     1      30.324  -5.466 -22.161  0.00  0.00    -0.029 C 
BRANCH  30  31
ATOM     31  N   UNL     1      31.202  -4.614 -22.949  0.00  0.00    +0.389 N 
ATOM     32  C   UNL     1      31.013  -3.194 -22.653  0.00  0.00    -0.077 C 
ATOM     33  C   UNL     1      30.958  -4.738 -24.386  0.00  0.00    -0.077 C 
ATOM     34  C   UNL     1      31.711  -2.508 -23.819  0.00  0.00    -0.025 C 
ATOM     35  C   UNL     1      31.671  -3.522 -24.959  0.00  0.00    -0.025 C 
ATOM     36  H   UNL     1      32.140  -4.927 -22.699  0.00  0.00    -0.080 HD
ENDBRANCH  30  31
ENDBRANCH  29  30
ENDBRANCH  28  29
ENDBRANCH   7  28
TORSDOF 4
ENDMDL
MODEL 2
REMARK VINA RESULT:      -4.8      9.259     14.372
REMARK  Name = 16750271
REMARK  4 active torsions:
REMARK  status: ('A' for Active; 'I' for Inactive)
REMARK    1  A    between atoms: C_7  and  O_28
REMARK    2  A    between atoms: O_28  and  C_29
REMARK    3  A    between atoms: C_29  and  C_30
REMARK    4  A    between atoms: C_30  and  N_31
REMARK                            x       y       z     vdW  Elec       q    Type
REMARK                         _______ _______ _______ _____ _____    ______ ____
ROOT
ATOM      1  O   UNL     1      37.029 -21.758 -17.769  0.00  0.00    -0.344 OA
ATOM      2  O   UNL     1      33.126 -24.076 -14.580  0.00  0.00    -0.453 OA
ATOM      3  O   UNL     1      35.527 -23.132 -13.266  0.00  0.00    -0.341 OA
ATOM      4  N   UNL     1      31.162 -21.747 -18.328  0.00  0.00    -0.247 N 
ATOM      5  N   UNL     1      31.446 -23.072 -16.339  0.00  0.00    -0.334 NA
ATOM      6  N   UNL     1      29.286 -22.575 -17.189  0.00  0.00    -0.170 NA
ATOM      7  C   UNL     1      35.037 -20.946 -19.823  0.00  0.00    +0.137 C 
ATOM      8  C   UNL     1      34.890 -21.918 -18.828  0.00  0.00    +0.043 C 
ATOM      9  C   UNL     1      33.925 -20.259 -20.300  0.00  0.00    +0.038 C 
ATOM     10  C   UNL     1      33.607 -22.195 -18.321  0.00  0.00    +0.016 C 
ATOM     11  C   UNL     1      36.090 -22.677 -18.329  0.00  0.00    +0.172 C 
ATOM     12  C   UNL     1      32.471 -21.523 -18.796  0.00  0.00    +0.058 C 
ATOM     13  C   UNL     1      32.658 -20.546 -19.790  0.00  0.00    +0.018 C 
ATOM     14  C   UNL     1      38.166 -22.411 -17.205  0.00  0.00    +0.169 C 
ATOM     15  C   UNL     1      30.636 -22.494 -17.257  0.00  0.00    +0.149 C 
ATOM     16  C   UNL     1      30.875 -23.765 -15.324  0.00  0.00    +0.180 C 
ATOM     17  C   UNL     1      31.803 -24.350 -14.372  0.00  0.00    +0.175 C 
ATOM     18  C   UNL     1      33.830 -24.684 -13.586  0.00  0.00    +0.153 C 
ATOM     19  C   UNL     1      37.989 -22.754 -15.753  0.00  0.00    +0.004 C 
ATOM     20  C   UNL     1      35.294 -24.495 -13.615  0.00  0.00    +0.206 C 
ATOM     21  C   UNL     1      31.669 -25.144 -13.249  0.00  0.00    +0.043 C 
ATOM     22  C   UNL     1      32.975 -25.361 -12.744  0.00  0.00    +0.039 C 
ATOM     23  C   UNL     1      36.866 -22.710 -13.515  0.00  0.00    +0.169 C 
ATOM     24  C   UNL     1      29.508 -23.900 -15.195  0.00  0.00    +0.058 C 
ATOM     25  C   UNL     1      37.015 -22.302 -14.948  0.00  0.00    +0.004 C 
ATOM     26  C   UNL     1      28.758 -23.277 -16.165  0.00  0.00    +0.114 C 
ATOM     27  H   UNL     1      30.472 -21.286 -18.859  0.00  0.00    +0.165 HD
ENDROOT
BRANCH   7  28
ATOM     28  O   UNL     1      36.259 -20.659 -20.354  0.00  0.00    -0.478 OA
BRANCH  28  29
ATOM     29  C   UNL     1      36.542 -19.288 -20.622  0.00  0.00    +0.183 C 
BRANCH  29  30
ATOM     30  C   UNL     1      36.510 -19.067 -22.127  0.00  0.00    -0.029 C 
BRANCH  30  31
ATOM     31  N   UNL     1      36.044 -17.724 -22.439  0.00  0.00    +0.389 N 
ATOM     32  C   UNL     1      35.244 -17.146 -21.360  0.00  0.00    -0.077 C 
ATOM     33  C   UNL     1      35.173 -17.696 -23.614  0.00  0.00    -0.077 C 
ATOM     34  C   UNL     1      34.565 -15.964 -22.036  0.00  0.00    -0.025 C 
ATOM     35  C   UNL     1      34.514 -16.328 -23.518  0.00  0.00    -0.025 C 
ATOM     36  H   UNL     1      36.902 -17.195 -22.595  0.00  0.00    -0.080 HD
ENDBRANCH  30  31
ENDBRANCH  29  30
ENDBRANCH  28  29
ENDBRANCH   7  28
TORSDOF 4
ENDMDL
MODEL 3
REMARK VINA RESULT:      -4.2     13.988     16.209
REMARK  Name = 16750271
REMARK  4 active torsions:
REMARK  status: ('A' for Active; 'I' for Inactive)
REMARK    1  A    between atoms: C_7  and  O_28
REMARK    2  A    between atoms: O_28  and  C_29
REMARK    3  A    between atoms: C_29  and  C_30
REMARK    4  A    between atoms: C_30  and  N_31
REMARK                            x       y       z     vdW  Elec       q    Type
REMARK                         _______ _______ _______ _____ _____    ______ ____
ROOT
ATOM      1  O   UNL     1      32.994 -22.365 -18.021  0.00  0.00    -0.344 OA
ATOM      2  O   UNL     1      37.423 -23.748 -14.979  0.00  0.00    -0.453 OA
ATOM      3  O   UNL     1      37.802 -21.763 -17.052  0.00  0.00    -0.341 OA
ATOM      4  N   UNL     1      33.366 -23.994 -12.369  0.00  0.00    -0.247 N 
ATOM      5  N   UNL     1      35.672 -24.117 -13.050  0.00  0.00    -0.334 NA
ATOM      6  N   UNL     1      35.020 -24.600 -10.820  0.00  0.00    -0.170 NA
ATOM      7  C   UNL     1      31.115 -23.109 -15.839  0.00  0.00    +0.137 C 
ATOM      8  C   UNL     1      32.449 -23.501 -15.987  0.00  0.00    +0.043 C 
ATOM      9  C   UNL     1      30.552 -23.010 -14.570  0.00  0.00    +0.038 C 
ATOM     10  C   UNL     1      33.211 -23.798 -14.843  0.00  0.00    +0.016 C 
ATOM     11  C   UNL     1      33.051 -23.630 -17.361  0.00  0.00    +0.172 C 
ATOM     12  C   UNL     1      32.659 -23.718 -13.554  0.00  0.00    +0.058 C 
ATOM     13  C   UNL     1      31.317 -23.311 -13.443  0.00  0.00    +0.018 C 
ATOM     14  C   UNL     1      33.615 -22.387 -19.305  0.00  0.00    +0.169 C 
ATOM     15  C   UNL     1      34.724 -24.248 -12.093  0.00  0.00    +0.149 C 
ATOM     16  C   UNL     1      36.961 -24.362 -12.715  0.00  0.00    +0.180 C 
ATOM     17  C   UNL     1      37.925 -24.193 -13.789  0.00  0.00    +0.175 C 
ATOM     18  C   UNL     1      38.467 -23.631 -15.845  0.00  0.00    +0.153 C 
ATOM     19  C   UNL     1      35.075 -22.037 -19.261  0.00  0.00    +0.004 C 
ATOM     20  C   UNL     1      38.140 -23.141 -17.199  0.00  0.00    +0.206 C 
ATOM     21  C   UNL     1      39.291 -24.371 -13.904  0.00  0.00    +0.043 C 
ATOM     22  C   UNL     1      39.639 -24.011 -15.228  0.00  0.00    +0.039 C 
ATOM     23  C   UNL     1      37.195 -21.208 -18.218  0.00  0.00    +0.169 C 
ATOM     24  C   UNL     1      37.338 -24.736 -11.442  0.00  0.00    +0.058 C 
ATOM     25  C   UNL     1      35.727 -21.501 -18.217  0.00  0.00    +0.004 C 
ATOM     26  C   UNL     1      36.315 -24.839 -10.528  0.00  0.00    +0.114 C 
ATOM     27  H   UNL     1      32.794 -24.014 -11.568  0.00  0.00    +0.165 HD
ENDROOT
BRANCH   7  28
ATOM     28  O   UNL     1      30.337 -22.829 -16.922  0.00  0.00    -0.478 OA
BRANCH  28  29
ATOM     29  C   UNL     1      29.344 -23.791 -17.272  0.00  0.00    +0.183 C 
BRANCH  29  30
ATOM     30  C   UNL     1      28.097 -23.530 -16.442  0.00  0.00    -0.029 C 
BRANCH  30  31
ATOM     31  N   UNL     1      27.451 -22.295 -16.858  0.00  0.00    +0.389 N 
ATOM     32  C   UNL     1      26.284 -21.971 -16.038  0.00  0.00    -0.077 C 
ATOM     33  C   UNL     1      26.943 -22.366 -18.229  0.00  0.00    -0.077 C 
ATOM     34  C   UNL     1      25.570 -20.912 -16.864  0.00  0.00    -0.025 C 
ATOM     35  C   UNL     1      26.000 -21.174 -18.305  0.00  0.00    -0.025 C 
ATOM     36  H   UNL     1      28.182 -21.590 -16.765  0.00  0.00    -0.080 HD
ENDBRANCH  30  31
ENDBRANCH  29  30
ENDBRANCH  28  29
ENDBRANCH   7  28
TORSDOF 4
ENDMDL
MODEL 4
REMARK VINA RESULT:      -3.7      2.071      9.091
REMARK  Name = 16750271
REMARK  4 active torsions:
REMARK  status: ('A' for Active; 'I' for Inactive)
REMARK    1  A    between atoms: C_7  and  O_28
REMARK    2  A    between atoms: O_28  and  C_29
REMARK    3  A    between atoms: C_29  and  C_30
REMARK    4  A    between atoms: C_30  and  N_31
REMARK                            x       y       z     vdW  Elec       q    Type
REMARK                         _______ _______ _______ _____ _____    ______ ____
ROOT
ATOM      1  O   UNL     1      32.736 -10.461 -21.786  0.00  0.00    -0.344 OA
ATOM      2  O   UNL     1      31.611  -5.183 -23.071  0.00  0.00    -0.453 OA
ATOM      3  O   UNL     1      31.615  -5.895 -20.265  0.00  0.00    -0.341 OA
ATOM      4  N   UNL     1      34.719  -7.122 -26.219  0.00  0.00    -0.247 N 
ATOM      5  N   UNL     1      33.235  -5.592 -25.100  0.00  0.00    -0.334 NA
ATOM      6  N   UNL     1      34.476  -4.928 -27.011  0.00  0.00    -0.170 NA
ATOM      7  C   UNL     1      34.304 -10.859 -24.281  0.00  0.00    +0.137 C 
ATOM      8  C   UNL     1      33.366  -9.856 -24.013  0.00  0.00    +0.043 C 
ATOM      9  C   UNL     1      35.352 -10.618 -25.165  0.00  0.00    +0.038 C 
ATOM     10  C   UNL     1      33.491  -8.608 -24.649  0.00  0.00    +0.016 C 
ATOM     11  C   UNL     1      32.221 -10.125 -23.074  0.00  0.00    +0.172 C 
ATOM     12  C   UNL     1      34.532  -8.348 -25.554  0.00  0.00    +0.058 C 
ATOM     13  C   UNL     1      35.462  -9.377 -25.792  0.00  0.00    +0.018 C 
ATOM     14  C   UNL     1      31.707 -10.658 -20.817  0.00  0.00    +0.169 C 
ATOM     15  C   UNL     1      34.112  -5.857 -26.097  0.00  0.00    +0.149 C 
ATOM     16  C   UNL     1      32.698  -4.350 -25.031  0.00  0.00    +0.180 C 
ATOM     17  C   UNL     1      31.773  -4.134 -23.931  0.00  0.00    +0.175 C 
ATOM     18  C   UNL     1      30.735  -4.788 -22.106  0.00  0.00    +0.153 C 
ATOM     19  C   UNL     1      31.338  -9.399 -20.084  0.00  0.00    +0.004 C 
ATOM     20  C   UNL     1      30.433  -5.779 -21.054  0.00  0.00    +0.206 C 
ATOM     21  C   UNL     1      30.989  -3.074 -23.517  0.00  0.00    +0.043 C 
ATOM     22  C   UNL     1      30.320  -3.496 -22.343  0.00  0.00    +0.039 C 
ATOM     23  C   UNL     1      31.589  -7.010 -19.376  0.00  0.00    +0.169 C 
ATOM     24  C   UNL     1      33.012  -3.355 -25.933  0.00  0.00    +0.058 C 
ATOM     25  C   UNL     1      32.027  -8.248 -20.097  0.00  0.00    +0.004 C 
ATOM     26  C   UNL     1      33.916  -3.705 -26.909  0.00  0.00    +0.114 C 
ATOM     27  H   UNL     1      35.418  -7.154 -26.911  0.00  0.00    +0.165 HD
ENDROOT
BRANCH   7  28
ATOM     28  O   UNL     1      34.210 -12.088 -23.700  0.00  0.00    -0.478 OA
BRANCH  28  29
ATOM     29  C   UNL     1      33.548 -13.107 -24.444  0.00  0.00    +0.183 C 
BRANCH  29  30
ATOM     30  C   UNL     1      33.965 -14.463 -23.896  0.00  0.00    -0.029 C 
BRANCH  30  31
ATOM     31  N   UNL     1      33.969 -14.450 -22.441  0.00  0.00    +0.389 N 
ATOM     32  C   UNL     1      34.685 -15.592 -21.874  0.00  0.00    -0.077 C 
ATOM     33  C   UNL     1      32.621 -14.529 -21.878  0.00  0.00    -0.077 C 
ATOM     34  C   UNL     1      34.238 -15.586 -20.419  0.00  0.00    -0.025 C 
ATOM     35  C   UNL     1      32.879 -14.891 -20.423  0.00  0.00    -0.025 C 
ATOM     36  H   UNL     1      34.423 -13.567 -22.203  0.00  0.00    -0.080 HD
ENDBRANCH  30  31
ENDBRANCH  29  30
ENDBRANCH  28  29
ENDBRANCH   7  28
TORSDOF 4
ENDMDL
MODEL 5
REMARK VINA RESULT:      -3.6      2.188      9.274
REMARK  Name = 16750271
REMARK  4 active torsions:
REMARK  status: ('A' for Active; 'I' for Inactive)
REMARK    1  A    between atoms: C_7  and  O_28
REMARK    2  A    between atoms: O_28  and  C_29
REMARK    3  A    between atoms: C_29  and  C_30
REMARK    4  A    between atoms: C_30  and  N_31
REMARK                            x       y       z     vdW  Elec       q    Type
REMARK                         _______ _______ _______ _____ _____    ______ ____
ROOT
ATOM      1  O   UNL     1      32.779 -10.257 -21.733  0.00  0.00    -0.344 OA
ATOM      2  O   UNL     1      31.610  -5.024 -23.157  0.00  0.00    -0.453 OA
ATOM      3  O   UNL     1      31.623  -5.661 -20.333  0.00  0.00    -0.341 OA
ATOM      4  N   UNL     1      34.729  -7.022 -26.257  0.00  0.00    -0.247 N 
ATOM      5  N   UNL     1      33.235  -5.475 -25.177  0.00  0.00    -0.334 NA
ATOM      6  N   UNL     1      34.468  -4.852 -27.107  0.00  0.00    -0.170 NA
ATOM      7  C   UNL     1      34.347 -10.709 -24.219  0.00  0.00    +0.137 C 
ATOM      8  C   UNL     1      33.401  -9.707 -23.977  0.00  0.00    +0.043 C 
ATOM      9  C   UNL     1      35.391 -10.484 -25.111  0.00  0.00    +0.038 C 
ATOM     10  C   UNL     1      33.515  -8.476 -24.646  0.00  0.00    +0.016 C 
ATOM     11  C   UNL     1      32.259  -9.960 -23.029  0.00  0.00    +0.172 C 
ATOM     12  C   UNL     1      34.553  -8.232 -25.559  0.00  0.00    +0.058 C 
ATOM     13  C   UNL     1      35.491  -9.259 -25.771  0.00  0.00    +0.018 C 
ATOM     14  C   UNL     1      31.753 -10.436 -20.758  0.00  0.00    +0.169 C 
ATOM     15  C   UNL     1      34.113  -5.759 -26.168  0.00  0.00    +0.149 C 
ATOM     16  C   UNL     1      32.688  -4.236 -25.140  0.00  0.00    +0.180 C 
ATOM     17  C   UNL     1      31.762  -3.997 -24.045  0.00  0.00    +0.175 C 
ATOM     18  C   UNL     1      30.732  -4.610 -22.202  0.00  0.00    +0.153 C 
ATOM     19  C   UNL     1      31.374  -9.161 -20.058  0.00  0.00    +0.004 C 
ATOM     20  C   UNL     1      30.439  -5.576 -21.124  0.00  0.00    +0.206 C 
ATOM     21  C   UNL     1      30.971  -2.933 -23.659  0.00  0.00    +0.043 C 
ATOM     22  C   UNL     1      30.306  -3.329 -22.473  0.00  0.00    +0.039 C 
ATOM     23  C   UNL     1      31.606  -6.753 -19.415  0.00  0.00    +0.169 C 
ATOM     24  C   UNL     1      32.993  -3.262 -26.069  0.00  0.00    +0.058 C 
ATOM     25  C   UNL     1      32.054  -8.005 -20.104  0.00  0.00    +0.004 C 
ATOM     26  C   UNL     1      33.898  -3.631 -27.037  0.00  0.00    +0.114 C 
ATOM     27  H   UNL     1      35.428  -7.068 -26.949  0.00  0.00    +0.165 HD
ENDROOT
BRANCH   7  28
ATOM     28  O   UNL     1      34.263 -11.923 -23.605  0.00  0.00    -0.478 OA
BRANCH  28  29
ATOM     29  C   UNL     1      33.714 -12.997 -24.365  0.00  0.00    +0.183 C 
BRANCH  29  30
ATOM     30  C   UNL     1      33.028 -13.967 -23.416  0.00  0.00    -0.029 C 
BRANCH  30  31
ATOM     31  N   UNL     1      33.467 -15.331 -23.670  0.00  0.00    +0.389 N 
ATOM     32  C   UNL     1      34.720 -15.650 -22.988  0.00  0.00    -0.077 C 
ATOM     33  C   UNL     1      33.732 -15.577 -25.087  0.00  0.00    -0.077 C 
ATOM     34  C   UNL     1      35.171 -16.926 -23.684  0.00  0.00    -0.025 C 
ATOM     35  C   UNL     1      34.524 -16.876 -25.065  0.00  0.00    -0.025 C 
ATOM     36  H   UNL     1      32.697 -15.906 -23.327  0.00  0.00    -0.080 HD
ENDBRANCH  30  31
ENDBRANCH  29  30
ENDBRANCH  28  29
ENDBRANCH   7  28
TORSDOF 4
ENDMDL
