MODEL 1
REMARK VINA RESULT:     -10.7      0.000      0.000
REMARK  Name = 53340666
REMARK  11 active torsions:
REMARK  status: ('A' for Active; 'I' for Inactive)
REMARK    1  A    between atoms: N_1  and  C_8
REMARK    2  A    between atoms: N_1  and  C_14
REMARK    3  A    between atoms: C_4  and  C_22
REMARK    4  A    between atoms: N_21  and  C_24
REMARK    5  A    between atoms: C_24  and  C_25
REMARK    6  A    between atoms: C_25  and  C_26
REMARK    7  A    between atoms: C_26  and  C_27
REMARK    8  A    between atoms: C_27  and  C_28
REMARK    9  A    between atoms: C_28  and  C_29
REMARK   10  A    between atoms: C_29  and  C_32
REMARK   11  A    between atoms: N_31  and  O_34
REMARK                            x       y       z     vdW  Elec       q    Type
REMARK                         _______ _______ _______ _____ _____    ______ ____
ROOT
ATOM      1  N   UNL     1      34.412 -23.906 -15.240  0.00  0.00    -0.211 N 
ATOM      2  N   UNL     1      36.058 -22.691 -16.389  0.00  0.00    -0.202 NA
ATOM      3  N   UNL     1      33.896 -23.089 -17.378  0.00  0.00    -0.180 NA
ATOM      4  C   UNL     1      35.561 -21.838 -18.585  0.00  0.00    +0.076 C 
ATOM      5  C   UNL     1      34.808 -23.193 -16.393  0.00  0.00    +0.098 C 
ATOM      6  C   UNL     1      36.403 -22.016 -17.506  0.00  0.00    +0.170 C 
ATOM      7  C   UNL     1      34.308 -22.402 -18.464  0.00  0.00    +0.113 C 
ENDROOT
BRANCH   1   8
ATOM      8  C   UNL     1      35.386 -24.640 -14.432  0.00  0.00    +0.065 C 
ATOM      9  C   UNL     1      35.622 -24.261 -13.110  0.00  0.00    +0.016 C 
ATOM     10  C   UNL     1      36.079 -25.716 -14.983  0.00  0.00    +0.016 C 
ATOM     11  C   UNL     1      36.550 -24.961 -12.340  0.00  0.00    +0.001 C 
ATOM     12  C   UNL     1      37.007 -26.416 -14.213  0.00  0.00    +0.001 C 
ATOM     13  C   UNL     1      37.244 -26.038 -12.891  0.00  0.00    +0.000 C 
ENDBRANCH   1   8
BRANCH   1  14
ATOM     14  C   UNL     1      33.012 -23.936 -14.812  0.00  0.00    +0.065 C 
ATOM     15  C   UNL     1      32.493 -25.080 -14.207  0.00  0.00    +0.016 C 
ATOM     16  C   UNL     1      32.199 -22.820 -15.010  0.00  0.00    +0.016 C 
ATOM     17  C   UNL     1      31.159 -25.108 -13.800  0.00  0.00    +0.001 C 
ATOM     18  C   UNL     1      30.865 -22.849 -14.603  0.00  0.00    +0.001 C 
ATOM     19  C   UNL     1      30.345 -23.992 -13.997  0.00  0.00    +0.000 C 
ENDBRANCH   1  14
BRANCH   4  22
ATOM     20  O   UNL     1      37.066 -21.335 -20.312  0.00  0.00    -0.270 OA
ATOM     21  N   UNL     1      35.068 -20.158 -20.284  0.00  0.00    -0.301 N 
ATOM     22  C   UNL     1      35.977 -21.089 -19.798  0.00  0.00    +0.245 C 
ATOM     23  H   UNL     1      34.219 -20.030 -19.803  0.00  0.00    +0.150 HD
BRANCH  21  24
ATOM     24  C   UNL     1      35.316 -19.372 -21.463  0.00  0.00    +0.090 C 
BRANCH  24  25
ATOM     25  C   UNL     1      34.356 -18.192 -21.562  0.00  0.00    +0.021 C 
BRANCH  25  26
ATOM     26  C   UNL     1      34.973 -16.921 -20.980  0.00  0.00    +0.002 C 
BRANCH  26  27
ATOM     27  C   UNL     1      34.038 -15.721 -21.146  0.00  0.00    +0.001 C 
BRANCH  27  28
ATOM     28  C   UNL     1      34.471 -14.840 -22.323  0.00  0.00    +0.010 C 
BRANCH  28  29
ATOM     29  C   UNL     1      33.332 -14.586 -23.309  0.00  0.00    +0.087 C 
BRANCH  29  32
ATOM     30  O   UNL     1      32.983 -14.808 -25.695  0.00  0.00    -0.273 OA
ATOM     31  N   UNL     1      34.476 -16.218 -24.637  0.00  0.00    -0.197 N 
ATOM     32  C   UNL     1      33.567 -15.189 -24.683  0.00  0.00    +0.244 C 
ATOM     33  H   UNL     1      34.918 -16.488 -23.800  0.00  0.00    +0.182 HD
BRANCH  31  34
ATOM     34  O   UNL     1      34.733 -16.859 -25.856  0.00  0.00    -0.295 OA
ATOM     35  H   UNL     1      34.340 -16.346 -26.580  0.00  0.00    +0.241 HD
ENDBRANCH  31  34
ENDBRANCH  29  32
ENDBRANCH  28  29
ENDBRANCH  27  28
ENDBRANCH  26  27
ENDBRANCH  25  26
ENDBRANCH  24  25
ENDBRANCH  21  24
ENDBRANCH   4  22
TORSDOF 11
ENDMDL
MODEL 2
REMARK VINA RESULT:     -10.6      1.597      2.002
REMARK  Name = 53340666
REMARK  11 active torsions:
REMARK  status: ('A' for Active; 'I' for Inactive)
REMARK    1  A    between atoms: N_1  and  C_8
REMARK    2  A    between atoms: N_1  and  C_14
REMARK    3  A    between atoms: C_4  and  C_22
REMARK    4  A    between atoms: N_21  and  C_24
REMARK    5  A    between atoms: C_24  and  C_25
REMARK    6  A    between atoms: C_25  and  C_26
REMARK    7  A    between atoms: C_26  and  C_27
REMARK    8  A    between atoms: C_27  and  C_28
REMARK    9  A    between atoms: C_28  and  C_29
REMARK   10  A    between atoms: C_29  and  C_32
REMARK   11  A    between atoms: N_31  and  O_34
REMARK                            x       y       z     vdW  Elec       q    Type
REMARK                         _______ _______ _______ _____ _____    ______ ____
ROOT
ATOM      1  N   UNL     1      34.441 -23.837 -15.249  0.00  0.00    -0.211 N 
ATOM      2  N   UNL     1      36.095 -22.621 -16.386  0.00  0.00    -0.202 NA
ATOM      3  N   UNL     1      33.966 -23.082 -17.419  0.00  0.00    -0.180 NA
ATOM      4  C   UNL     1      35.640 -21.831 -18.614  0.00  0.00    +0.076 C 
ATOM      5  C   UNL     1      34.855 -23.146 -16.408  0.00  0.00    +0.098 C 
ATOM      6  C   UNL     1      36.457 -21.967 -17.510  0.00  0.00    +0.170 C 
ATOM      7  C   UNL     1      34.394 -22.415 -18.510  0.00  0.00    +0.113 C 
ENDROOT
BRANCH   1   8
ATOM      8  C   UNL     1      35.407 -24.533 -14.398  0.00  0.00    +0.065 C 
ATOM      9  C   UNL     1      36.125 -25.618 -14.902  0.00  0.00    +0.016 C 
ATOM     10  C   UNL     1      35.608 -24.113 -13.084  0.00  0.00    +0.016 C 
ATOM     11  C   UNL     1      37.045 -26.282 -14.091  0.00  0.00    +0.001 C 
ATOM     12  C   UNL     1      36.529 -24.776 -12.273  0.00  0.00    +0.001 C 
ATOM     13  C   UNL     1      37.248 -25.861 -12.776  0.00  0.00    +0.000 C 
ENDBRANCH   1   8
BRANCH   1  14
ATOM     14  C   UNL     1      33.032 -23.882 -14.856  0.00  0.00    +0.065 C 
ATOM     15  C   UNL     1      32.503 -25.042 -14.289  0.00  0.00    +0.016 C 
ATOM     16  C   UNL     1      32.219 -22.765 -15.048  0.00  0.00    +0.016 C 
ATOM     17  C   UNL     1      31.160 -25.084 -13.916  0.00  0.00    +0.001 C 
ATOM     18  C   UNL     1      30.876 -22.808 -14.674  0.00  0.00    +0.001 C 
ATOM     19  C   UNL     1      30.346 -23.967 -14.107  0.00  0.00    +0.000 C 
ENDBRANCH   1  14
BRANCH   4  22
ATOM     20  O   UNL     1      36.962 -21.584 -20.535  0.00  0.00    -0.270 OA
ATOM     21  N   UNL     1      35.408 -19.916 -20.108  0.00  0.00    -0.301 N 
ATOM     22  C   UNL     1      36.074 -21.105 -19.834  0.00  0.00    +0.245 C 
ATOM     23  H   UNL     1      34.710 -19.611 -19.485  0.00  0.00    +0.150 HD
BRANCH  21  24
ATOM     24  C   UNL     1      35.699 -19.112 -21.265  0.00  0.00    +0.090 C 
BRANCH  24  25
ATOM     25  C   UNL     1      34.625 -19.263 -22.336  0.00  0.00    +0.021 C 
BRANCH  25  26
ATOM     26  C   UNL     1      35.200 -19.049 -23.735  0.00  0.00    +0.002 C 
BRANCH  26  27
ATOM     27  C   UNL     1      34.422 -17.974 -24.499  0.00  0.00    +0.001 C 
BRANCH  27  28
ATOM     28  C   UNL     1      34.954 -16.573 -24.178  0.00  0.00    +0.010 C 
BRANCH  28  29
ATOM     29  C   UNL     1      33.842 -15.612 -23.761  0.00  0.00    +0.087 C 
BRANCH  29  32
ATOM     30  O   UNL     1      32.611 -15.199 -21.717  0.00  0.00    -0.273 OA
ATOM     31  N   UNL     1      34.864 -15.691 -21.597  0.00  0.00    -0.197 N 
ATOM     32  C   UNL     1      33.677 -15.483 -22.256  0.00  0.00    +0.244 C 
ATOM     33  H   UNL     1      35.695 -15.916 -22.073  0.00  0.00    +0.182 HD
BRANCH  31  34
ATOM     34  O   UNL     1      34.817 -15.561 -20.202  0.00  0.00    -0.295 OA
ATOM     35  H   UNL     1      35.710 -15.664 -19.837  0.00  0.00    +0.241 HD
ENDBRANCH  31  34
ENDBRANCH  29  32
ENDBRANCH  28  29
ENDBRANCH  27  28
ENDBRANCH  26  27
ENDBRANCH  25  26
ENDBRANCH  24  25
ENDBRANCH  21  24
ENDBRANCH   4  22
TORSDOF 11
ENDMDL
MODEL 3
REMARK VINA RESULT:     -10.5      1.357      1.679
REMARK  Name = 53340666
REMARK  11 active torsions:
REMARK  status: ('A' for Active; 'I' for Inactive)
REMARK    1  A    between atoms: N_1  and  C_8
REMARK    2  A    between atoms: N_1  and  C_14
REMARK    3  A    between atoms: C_4  and  C_22
REMARK    4  A    between atoms: N_21  and  C_24
REMARK    5  A    between atoms: C_24  and  C_25
REMARK    6  A    between atoms: C_25  and  C_26
REMARK    7  A    between atoms: C_26  and  C_27
REMARK    8  A    between atoms: C_27  and  C_28
REMARK    9  A    between atoms: C_28  and  C_29
REMARK   10  A    between atoms: C_29  and  C_32
REMARK   11  A    between atoms: N_31  and  O_34
REMARK                            x       y       z     vdW  Elec       q    Type
REMARK                         _______ _______ _______ _____ _____    ______ ____
ROOT
ATOM      1  N   UNL     1      34.495 -23.880 -15.183  0.00  0.00    -0.211 N 
ATOM      2  N   UNL     1      36.157 -22.679 -16.324  0.00  0.00    -0.202 NA
ATOM      3  N   UNL     1      33.999 -23.065 -17.326  0.00  0.00    -0.180 NA
ATOM      4  C   UNL     1      35.681 -21.828 -18.525  0.00  0.00    +0.076 C 
ATOM      5  C   UNL     1      34.904 -23.173 -16.334  0.00  0.00    +0.098 C 
ATOM      6  C   UNL     1      36.514 -22.009 -17.440  0.00  0.00    +0.170 C 
ATOM      7  C   UNL     1      34.423 -22.384 -18.411  0.00  0.00    +0.113 C 
ENDROOT
BRANCH   1   8
ATOM      8  C   UNL     1      35.460 -24.618 -14.366  0.00  0.00    +0.065 C 
ATOM      9  C   UNL     1      35.676 -24.249 -13.038  0.00  0.00    +0.016 C 
ATOM     10  C   UNL     1      36.162 -25.689 -14.915  0.00  0.00    +0.016 C 
ATOM     11  C   UNL     1      36.595 -24.952 -12.260  0.00  0.00    +0.001 C 
ATOM     12  C   UNL     1      37.081 -26.393 -14.137  0.00  0.00    +0.001 C 
ATOM     13  C   UNL     1      37.298 -26.024 -12.809  0.00  0.00    +0.000 C 
ENDBRANCH   1   8
BRANCH   1  14
ATOM     14  C   UNL     1      33.093 -23.900 -14.764  0.00  0.00    +0.065 C 
ATOM     15  C   UNL     1      32.283 -22.787 -14.989  0.00  0.00    +0.016 C 
ATOM     16  C   UNL     1      32.567 -25.032 -14.142  0.00  0.00    +0.016 C 
ATOM     17  C   UNL     1      30.947 -22.805 -14.590  0.00  0.00    +0.001 C 
ATOM     18  C   UNL     1      31.231 -25.050 -13.743  0.00  0.00    +0.001 C 
ATOM     19  C   UNL     1      30.420 -23.938 -13.968  0.00  0.00    +0.000 C 
ENDBRANCH   1  14
BRANCH   4  22
ATOM     20  O   UNL     1      37.190 -21.355 -20.256  0.00  0.00    -0.270 OA
ATOM     21  N   UNL     1      35.221 -20.130 -20.216  0.00  0.00    -0.301 N 
ATOM     22  C   UNL     1      36.110 -21.085 -19.737  0.00  0.00    +0.245 C 
ATOM     23  H   UNL     1      34.378 -19.983 -19.730  0.00  0.00    +0.150 HD
BRANCH  21  24
ATOM     24  C   UNL     1      35.484 -19.346 -21.393  0.00  0.00    +0.090 C 
BRANCH  24  25
ATOM     25  C   UNL     1      34.240 -18.594 -21.853  0.00  0.00    +0.021 C 
BRANCH  25  26
ATOM     26  C   UNL     1      34.561 -17.137 -22.185  0.00  0.00    +0.002 C 
BRANCH  26  27
ATOM     27  C   UNL     1      34.918 -16.345 -20.926  0.00  0.00    +0.001 C 
BRANCH  27  28
ATOM     28  C   UNL     1      33.890 -15.241 -20.655  0.00  0.00    +0.010 C 
BRANCH  28  29
ATOM     29  C   UNL     1      32.895 -15.080 -21.804  0.00  0.00    +0.087 C 
BRANCH  29  32
ATOM     30  O   UNL     1      32.030 -12.894 -22.387  0.00  0.00    -0.273 OA
ATOM     31  N   UNL     1      34.103 -13.536 -23.178  0.00  0.00    -0.197 N 
ATOM     32  C   UNL     1      32.942 -13.714 -22.467  0.00  0.00    +0.244 C 
ATOM     33  H   UNL     1      34.807 -14.223 -23.213  0.00  0.00    +0.182 HD
BRANCH  31  34
ATOM     34  O   UNL     1      34.222 -12.313 -23.853  0.00  0.00    -0.295 OA
ATOM     35  H   UNL     1      34.937 -11.792 -23.454  0.00  0.00    +0.241 HD
ENDBRANCH  31  34
ENDBRANCH  29  32
ENDBRANCH  28  29
ENDBRANCH  27  28
ENDBRANCH  26  27
ENDBRANCH  25  26
ENDBRANCH  24  25
ENDBRANCH  21  24
ENDBRANCH   4  22
TORSDOF 11
ENDMDL
MODEL 4
REMARK VINA RESULT:     -10.5      0.631      3.514
REMARK  Name = 53340666
REMARK  11 active torsions:
REMARK  status: ('A' for Active; 'I' for Inactive)
REMARK    1  A    between atoms: N_1  and  C_8
REMARK    2  A    between atoms: N_1  and  C_14
REMARK    3  A    between atoms: C_4  and  C_22
REMARK    4  A    between atoms: N_21  and  C_24
REMARK    5  A    between atoms: C_24  and  C_25
REMARK    6  A    between atoms: C_25  and  C_26
REMARK    7  A    between atoms: C_26  and  C_27
REMARK    8  A    between atoms: C_27  and  C_28
REMARK    9  A    between atoms: C_28  and  C_29
REMARK   10  A    between atoms: C_29  and  C_32
REMARK   11  A    between atoms: N_31  and  O_34
REMARK                            x       y       z     vdW  Elec       q    Type
REMARK                         _______ _______ _______ _____ _____    ______ ____
ROOT
ATOM      1  N   UNL     1      34.486 -23.887 -15.222  0.00  0.00    -0.211 N 
ATOM      2  N   UNL     1      33.925 -23.107 -17.363  0.00  0.00    -0.202 NA
ATOM      3  N   UNL     1      36.099 -22.674 -16.418  0.00  0.00    -0.180 NA
ATOM      4  C   UNL     1      35.558 -21.858 -18.617  0.00  0.00    +0.076 C 
ATOM      5  C   UNL     1      34.855 -23.188 -16.392  0.00  0.00    +0.098 C 
ATOM      6  C   UNL     1      34.312 -22.432 -18.466  0.00  0.00    +0.170 C 
ATOM      7  C   UNL     1      36.418 -22.013 -17.549  0.00  0.00    +0.113 C 
ENDROOT
BRANCH   1   8
ATOM      8  C   UNL     1      33.095 -23.924 -14.770  0.00  0.00    +0.065 C 
ATOM      9  C   UNL     1      32.599 -25.062 -14.133  0.00  0.00    +0.016 C 
ATOM     10  C   UNL     1      32.265 -22.823 -14.978  0.00  0.00    +0.016 C 
ATOM     11  C   UNL     1      31.273 -25.097 -13.702  0.00  0.00    +0.001 C 
ATOM     12  C   UNL     1      30.939 -22.859 -14.547  0.00  0.00    +0.001 C 
ATOM     13  C   UNL     1      30.442 -23.996 -13.909  0.00  0.00    +0.000 C 
ENDBRANCH   1   8
BRANCH   1  14
ATOM     14  C   UNL     1      35.481 -24.600 -14.420  0.00  0.00    +0.065 C 
ATOM     15  C   UNL     1      35.775 -24.165 -13.127  0.00  0.00    +0.016 C 
ATOM     16  C   UNL     1      36.135 -25.712 -14.948  0.00  0.00    +0.016 C 
ATOM     17  C   UNL     1      36.724 -24.844 -12.363  0.00  0.00    +0.001 C 
ATOM     18  C   UNL     1      37.084 -26.391 -14.183  0.00  0.00    +0.001 C 
ATOM     19  C   UNL     1      37.378 -25.958 -12.891  0.00  0.00    +0.000 C 
ENDBRANCH   1  14
BRANCH   4  22
ATOM     20  O   UNL     1      37.018 -21.383 -20.389  0.00  0.00    -0.270 OA
ATOM     21  N   UNL     1      35.033 -20.186 -20.314  0.00  0.00    -0.301 N 
ATOM     22  C   UNL     1      35.947 -21.123 -19.847  0.00  0.00    +0.245 C 
ATOM     23  H   UNL     1      34.200 -20.046 -19.810  0.00  0.00    +0.150 HD
BRANCH  21  24
ATOM     24  C   UNL     1      35.255 -19.412 -21.506  0.00  0.00    +0.090 C 
BRANCH  24  25
ATOM     25  C   UNL     1      35.408 -17.928 -21.189  0.00  0.00    +0.021 C 
BRANCH  25  26
ATOM     26  C   UNL     1      34.048 -17.244 -21.058  0.00  0.00    +0.002 C 
BRANCH  26  27
ATOM     27  C   UNL     1      34.194 -15.721 -21.007  0.00  0.00    +0.001 C 
BRANCH  27  28
ATOM     28  C   UNL     1      33.253 -15.041 -22.008  0.00  0.00    +0.010 C 
BRANCH  28  29
ATOM     29  C   UNL     1      33.995 -14.510 -23.234  0.00  0.00    +0.087 C 
BRANCH  29  32
ATOM     30  O   UNL     1      34.385 -16.574 -24.439  0.00  0.00    -0.273 OA
ATOM     31  N   UNL     1      33.324 -14.824 -25.511  0.00  0.00    -0.197 N 
ATOM     32  C   UNL     1      33.926 -15.435 -24.438  0.00  0.00    +0.244 C 
ATOM     33  H   UNL     1      32.972 -13.907 -25.462  0.00  0.00    +0.182 HD
BRANCH  31  34
ATOM     34  O   UNL     1      33.245 -15.592 -26.682  0.00  0.00    -0.295 OA
ATOM     35  H   UNL     1      33.916 -16.292 -26.655  0.00  0.00    +0.241 HD
ENDBRANCH  31  34
ENDBRANCH  29  32
ENDBRANCH  28  29
ENDBRANCH  27  28
ENDBRANCH  26  27
ENDBRANCH  25  26
ENDBRANCH  24  25
ENDBRANCH  21  24
ENDBRANCH   4  22
TORSDOF 11
ENDMDL
MODEL 5
REMARK VINA RESULT:     -10.3      4.841     13.355
REMARK  Name = 53340666
REMARK  11 active torsions:
REMARK  status: ('A' for Active; 'I' for Inactive)
REMARK    1  A    between atoms: N_1  and  C_8
REMARK    2  A    between atoms: N_1  and  C_14
REMARK    3  A    between atoms: C_4  and  C_22
REMARK    4  A    between atoms: N_21  and  C_24
REMARK    5  A    between atoms: C_24  and  C_25
REMARK    6  A    between atoms: C_25  and  C_26
REMARK    7  A    between atoms: C_26  and  C_27
REMARK    8  A    between atoms: C_27  and  C_28
REMARK    9  A    between atoms: C_28  and  C_29
REMARK   10  A    between atoms: C_29  and  C_32
REMARK   11  A    between atoms: N_31  and  O_34
REMARK                            x       y       z     vdW  Elec       q    Type
REMARK                         _______ _______ _______ _____ _____    ______ ____
ROOT
ATOM      1  N   UNL     1      32.768 -10.270 -22.878  0.00  0.00    -0.211 N 
ATOM      2  N   UNL     1      33.239 -12.565 -22.734  0.00  0.00    -0.202 NA
ATOM      3  N   UNL     1      33.033 -11.475 -24.874  0.00  0.00    -0.180 NA
ATOM      4  C   UNL     1      33.516 -13.830 -24.764  0.00  0.00    +0.076 C 
ATOM      5  C   UNL     1      33.026 -11.498 -23.527  0.00  0.00    +0.098 C 
ATOM      6  C   UNL     1      33.482 -13.720 -23.389  0.00  0.00    +0.170 C 
ATOM      7  C   UNL     1      33.282 -12.663 -25.461  0.00  0.00    +0.113 C 
ENDROOT
BRANCH   1   8
ATOM      8  C   UNL     1      32.109 -10.229 -21.572  0.00  0.00    +0.065 C 
ATOM      9  C   UNL     1      32.447  -9.237 -20.652  0.00  0.00    +0.016 C 
ATOM     10  C   UNL     1      31.146 -11.183 -21.248  0.00  0.00    +0.016 C 
ATOM     11  C   UNL     1      31.818  -9.198 -19.407  0.00  0.00    +0.001 C 
ATOM     12  C   UNL     1      30.517 -11.144 -20.003  0.00  0.00    +0.001 C 
ATOM     13  C   UNL     1      30.854 -10.152 -19.082  0.00  0.00    +0.000 C 
ENDBRANCH   1   8
BRANCH   1  14
ATOM     14  C   UNL     1      33.151  -8.996 -23.487  0.00  0.00    +0.065 C 
ATOM     15  C   UNL     1      32.173  -8.055 -23.807  0.00  0.00    +0.016 C 
ATOM     16  C   UNL     1      34.494  -8.723 -23.747  0.00  0.00    +0.016 C 
ATOM     17  C   UNL     1      32.538  -6.841 -24.389  0.00  0.00    +0.001 C 
ATOM     18  C   UNL     1      34.858  -7.509 -24.328  0.00  0.00    +0.001 C 
ATOM     19  C   UNL     1      33.881  -6.567 -24.648  0.00  0.00    +0.000 C 
ENDBRANCH   1  14
BRANCH   4  22
ATOM     20  O   UNL     1      33.565 -15.220 -26.652  0.00  0.00    -0.270 OA
ATOM     21  N   UNL     1      34.305 -16.137 -24.654  0.00  0.00    -0.301 N 
ATOM     22  C   UNL     1      33.787 -15.120 -25.448  0.00  0.00    +0.245 C 
ATOM     23  H   UNL     1      34.448 -15.962 -23.696  0.00  0.00    +0.150 HD
BRANCH  21  24
ATOM     24  C   UNL     1      34.641 -17.434 -25.176  0.00  0.00    +0.090 C 
BRANCH  24  25
ATOM     25  C   UNL     1      34.904 -18.436 -24.057  0.00  0.00    +0.021 C 
BRANCH  25  26
ATOM     26  C   UNL     1      35.448 -17.746 -22.807  0.00  0.00    +0.002 C 
BRANCH  26  27
ATOM     27  C   UNL     1      34.665 -18.158 -21.558  0.00  0.00    +0.001 C 
BRANCH  27  28
ATOM     28  C   UNL     1      34.319 -19.650 -21.588  0.00  0.00    +0.010 C 
BRANCH  28  29
ATOM     29  C   UNL     1      33.207 -20.009 -20.604  0.00  0.00    +0.087 C 
BRANCH  29  32
ATOM     30  O   UNL     1      32.693 -21.859 -19.128  0.00  0.00    -0.273 OA
ATOM     31  N   UNL     1      34.901 -21.363 -19.590  0.00  0.00    -0.197 N 
ATOM     32  C   UNL     1      33.544 -21.184 -19.702  0.00  0.00    +0.244 C 
ATOM     33  H   UNL     1      35.546 -20.795 -20.069  0.00  0.00    +0.182 HD
BRANCH  31  34
ATOM     34  O   UNL     1      35.310 -22.408 -18.749  0.00  0.00    -0.295 OA
ATOM     35  H   UNL     1      34.672 -23.136 -18.805  0.00  0.00    +0.241 HD
ENDBRANCH  31  34
ENDBRANCH  29  32
ENDBRANCH  28  29
ENDBRANCH  27  28
ENDBRANCH  26  27
ENDBRANCH  25  26
ENDBRANCH  24  25
ENDBRANCH  21  24
ENDBRANCH   4  22
TORSDOF 11
ENDMDL
MODEL 6
REMARK VINA RESULT:     -10.3      4.858     13.315
REMARK  Name = 53340666
REMARK  11 active torsions:
REMARK  status: ('A' for Active; 'I' for Inactive)
REMARK    1  A    between atoms: N_1  and  C_8
REMARK    2  A    between atoms: N_1  and  C_14
REMARK    3  A    between atoms: C_4  and  C_22
REMARK    4  A    between atoms: N_21  and  C_24
REMARK    5  A    between atoms: C_24  and  C_25
REMARK    6  A    between atoms: C_25  and  C_26
REMARK    7  A    between atoms: C_26  and  C_27
REMARK    8  A    between atoms: C_27  and  C_28
REMARK    9  A    between atoms: C_28  and  C_29
REMARK   10  A    between atoms: C_29  and  C_32
REMARK   11  A    between atoms: N_31  and  O_34
REMARK                            x       y       z     vdW  Elec       q    Type
REMARK                         _______ _______ _______ _____ _____    ______ ____
ROOT
ATOM      1  N   UNL     1      32.762 -10.275 -22.886  0.00  0.00    -0.211 N 
ATOM      2  N   UNL     1      33.034 -11.476 -24.883  0.00  0.00    -0.202 NA
ATOM      3  N   UNL     1      33.234 -12.569 -22.745  0.00  0.00    -0.180 NA
ATOM      4  C   UNL     1      33.519 -13.832 -24.774  0.00  0.00    +0.076 C 
ATOM      5  C   UNL     1      33.023 -11.500 -23.537  0.00  0.00    +0.098 C 
ATOM      6  C   UNL     1      33.287 -12.664 -25.472  0.00  0.00    +0.170 C 
ATOM      7  C   UNL     1      33.480 -13.722 -23.399  0.00  0.00    +0.113 C 
ENDROOT
BRANCH   1   8
ATOM      8  C   UNL     1      33.146  -9.000 -23.492  0.00  0.00    +0.065 C 
ATOM      9  C   UNL     1      32.166  -8.070 -23.838  0.00  0.00    +0.016 C 
ATOM     10  C   UNL     1      34.491  -8.715 -23.724  0.00  0.00    +0.016 C 
ATOM     11  C   UNL     1      32.532  -6.854 -24.416  0.00  0.00    +0.001 C 
ATOM     12  C   UNL     1      34.857  -7.499 -24.301  0.00  0.00    +0.001 C 
ATOM     13  C   UNL     1      33.877  -6.569 -24.648  0.00  0.00    +0.000 C 
ENDBRANCH   1   8
BRANCH   1  14
ATOM     14  C   UNL     1      32.098 -10.237 -21.582  0.00  0.00    +0.065 C 
ATOM     15  C   UNL     1      32.429  -9.242 -20.661  0.00  0.00    +0.016 C 
ATOM     16  C   UNL     1      31.136 -11.193 -21.262  0.00  0.00    +0.016 C 
ATOM     17  C   UNL     1      31.797  -9.207 -19.418  0.00  0.00    +0.001 C 
ATOM     18  C   UNL     1      30.504 -11.157 -20.018  0.00  0.00    +0.001 C 
ATOM     19  C   UNL     1      30.833 -10.163 -19.097  0.00  0.00    +0.000 C 
ENDBRANCH   1  14
BRANCH   4  22
ATOM     20  O   UNL     1      33.624 -15.205 -26.671  0.00  0.00    -0.270 OA
ATOM     21  N   UNL     1      34.257 -16.155 -24.652  0.00  0.00    -0.301 N 
ATOM     22  C   UNL     1      33.794 -15.121 -25.458  0.00  0.00    +0.245 C 
ATOM     23  H   UNL     1      34.361 -15.991 -23.687  0.00  0.00    +0.150 HD
BRANCH  21  24
ATOM     24  C   UNL     1      34.590 -17.454 -25.171  0.00  0.00    +0.090 C 
BRANCH  24  25
ATOM     25  C   UNL     1      34.882 -18.446 -24.051  0.00  0.00    +0.021 C 
BRANCH  25  26
ATOM     26  C   UNL     1      35.411 -17.738 -22.804  0.00  0.00    +0.002 C 
BRANCH  26  27
ATOM     27  C   UNL     1      34.637 -18.160 -21.553  0.00  0.00    +0.001 C 
BRANCH  27  28
ATOM     28  C   UNL     1      34.197 -19.625 -21.642  0.00  0.00    +0.010 C 
BRANCH  28  29
ATOM     29  C   UNL     1      33.154 -19.984 -20.585  0.00  0.00    +0.087 C 
BRANCH  29  32
ATOM     30  O   UNL     1      32.714 -21.934 -19.218  0.00  0.00    -0.273 OA
ATOM     31  N   UNL     1      34.899 -21.280 -19.580  0.00  0.00    -0.197 N 
ATOM     32  C   UNL     1      33.537 -21.180 -19.729  0.00  0.00    +0.244 C 
ATOM     33  H   UNL     1      35.521 -20.649 -20.009  0.00  0.00    +0.182 HD
BRANCH  31  34
ATOM     34  O   UNL     1      35.348 -22.337 -18.776  0.00  0.00    -0.295 OA
ATOM     35  H   UNL     1      34.584 -22.796 -18.390  0.00  0.00    +0.241 HD
ENDBRANCH  31  34
ENDBRANCH  29  32
ENDBRANCH  28  29
ENDBRANCH  27  28
ENDBRANCH  26  27
ENDBRANCH  25  26
ENDBRANCH  24  25
ENDBRANCH  21  24
ENDBRANCH   4  22
TORSDOF 11
ENDMDL
MODEL 7
REMARK VINA RESULT:     -10.1      7.167     13.135
REMARK  Name = 53340666
REMARK  11 active torsions:
REMARK  status: ('A' for Active; 'I' for Inactive)
REMARK    1  A    between atoms: N_1  and  C_8
REMARK    2  A    between atoms: N_1  and  C_14
REMARK    3  A    between atoms: C_4  and  C_22
REMARK    4  A    between atoms: N_21  and  C_24
REMARK    5  A    between atoms: C_24  and  C_25
REMARK    6  A    between atoms: C_25  and  C_26
REMARK    7  A    between atoms: C_26  and  C_27
REMARK    8  A    between atoms: C_27  and  C_28
REMARK    9  A    between atoms: C_28  and  C_29
REMARK   10  A    between atoms: C_29  and  C_32
REMARK   11  A    between atoms: N_31  and  O_34
REMARK                            x       y       z     vdW  Elec       q    Type
REMARK                         _______ _______ _______ _____ _____    ______ ____
ROOT
ATOM      1  N   UNL     1      32.757 -10.238 -22.958  0.00  0.00    -0.211 N 
ATOM      2  N   UNL     1      33.024 -11.369 -24.997  0.00  0.00    -0.202 NA
ATOM      3  N   UNL     1      33.261 -12.529 -22.898  0.00  0.00    -0.180 NA
ATOM      4  C   UNL     1      33.541 -13.720 -24.971  0.00  0.00    +0.076 C 
ATOM      5  C   UNL     1      33.027 -11.438 -23.652  0.00  0.00    +0.098 C 
ATOM      6  C   UNL     1      33.286 -12.533 -25.628  0.00  0.00    +0.170 C 
ATOM      7  C   UNL     1      33.515 -13.657 -23.593  0.00  0.00    +0.113 C 
ENDROOT
BRANCH   1   8
ATOM      8  C   UNL     1      33.118  -8.939 -23.525  0.00  0.00    +0.065 C 
ATOM      9  C   UNL     1      34.460  -8.617 -23.733  0.00  0.00    +0.016 C 
ATOM     10  C   UNL     1      32.121  -8.022 -23.855  0.00  0.00    +0.016 C 
ATOM     11  C   UNL     1      34.803  -7.378 -24.274  0.00  0.00    +0.001 C 
ATOM     12  C   UNL     1      32.465  -6.783 -24.396  0.00  0.00    +0.001 C 
ATOM     13  C   UNL     1      33.806  -6.460 -24.605  0.00  0.00    +0.000 C 
ENDBRANCH   1   8
BRANCH   1  14
ATOM     14  C   UNL     1      32.107 -10.252 -21.647  0.00  0.00    +0.065 C 
ATOM     15  C   UNL     1      31.130 -11.207 -21.364  0.00  0.00    +0.016 C 
ATOM     16  C   UNL     1      32.465  -9.312 -20.681  0.00  0.00    +0.016 C 
ATOM     17  C   UNL     1      30.510 -11.220 -20.115  0.00  0.00    +0.001 C 
ATOM     18  C   UNL     1      31.844  -9.325 -19.432  0.00  0.00    +0.001 C 
ATOM     19  C   UNL     1      30.868 -10.279 -19.148  0.00  0.00    +0.000 C 
ENDBRANCH   1  14
BRANCH   4  22
ATOM     20  O   UNL     1      33.671 -15.020 -26.918  0.00  0.00    -0.270 OA
ATOM     21  N   UNL     1      34.279 -16.046 -24.929  0.00  0.00    -0.301 N 
ATOM     22  C   UNL     1      33.826 -14.982 -25.701  0.00  0.00    +0.245 C 
ATOM     23  H   UNL     1      34.371 -15.919 -23.958  0.00  0.00    +0.150 HD
BRANCH  21  24
ATOM     24  C   UNL     1      34.620 -17.324 -25.493  0.00  0.00    +0.090 C 
BRANCH  24  25
ATOM     25  C   UNL     1      34.240 -18.467 -24.559  0.00  0.00    +0.021 C 
BRANCH  25  26
ATOM     26  C   UNL     1      35.330 -18.722 -23.518  0.00  0.00    +0.002 C 
BRANCH  26  27
ATOM     27  C   UNL     1      34.764 -19.413 -22.276  0.00  0.00    +0.001 C 
BRANCH  27  28
ATOM     28  C   UNL     1      34.232 -18.390 -21.267  0.00  0.00    +0.010 C 
BRANCH  28  29
ATOM     29  C   UNL     1      35.153 -17.178 -21.128  0.00  0.00    +0.087 C 
BRANCH  29  32
ATOM     30  O   UNL     1      34.980 -14.929 -20.247  0.00  0.00    -0.273 OA
ATOM     31  N   UNL     1      33.083 -15.976 -21.046  0.00  0.00    -0.197 N 
ATOM     32  C   UNL     1      34.424 -15.896 -20.761  0.00  0.00    +0.244 C 
ATOM     33  H   UNL     1      32.682 -16.775 -21.458  0.00  0.00    +0.182 HD
BRANCH  31  34
ATOM     34  O   UNL     1      32.321 -14.849 -20.710  0.00  0.00    -0.295 OA
ATOM     35  H   UNL     1      31.385 -15.024 -20.899  0.00  0.00    +0.241 HD
ENDBRANCH  31  34
ENDBRANCH  29  32
ENDBRANCH  28  29
ENDBRANCH  27  28
ENDBRANCH  26  27
ENDBRANCH  25  26
ENDBRANCH  24  25
ENDBRANCH  21  24
ENDBRANCH   4  22
TORSDOF 11
ENDMDL
MODEL 8
REMARK VINA RESULT:     -10.0      6.989     13.158
REMARK  Name = 53340666
REMARK  11 active torsions:
REMARK  status: ('A' for Active; 'I' for Inactive)
REMARK    1  A    between atoms: N_1  and  C_8
REMARK    2  A    between atoms: N_1  and  C_14
REMARK    3  A    between atoms: C_4  and  C_22
REMARK    4  A    between atoms: N_21  and  C_24
REMARK    5  A    between atoms: C_24  and  C_25
REMARK    6  A    between atoms: C_25  and  C_26
REMARK    7  A    between atoms: C_26  and  C_27
REMARK    8  A    between atoms: C_27  and  C_28
REMARK    9  A    between atoms: C_28  and  C_29
REMARK   10  A    between atoms: C_29  and  C_32
REMARK   11  A    between atoms: N_31  and  O_34
REMARK                            x       y       z     vdW  Elec       q    Type
REMARK                         _______ _______ _______ _____ _____    ______ ____
ROOT
ATOM      1  N   UNL     1      32.743 -10.242 -22.951  0.00  0.00    -0.211 N 
ATOM      2  N   UNL     1      33.250 -12.532 -22.890  0.00  0.00    -0.202 NA
ATOM      3  N   UNL     1      33.026 -11.369 -24.989  0.00  0.00    -0.180 NA
ATOM      4  C   UNL     1      33.546 -13.719 -24.964  0.00  0.00    +0.076 C 
ATOM      5  C   UNL     1      33.020 -11.440 -23.644  0.00  0.00    +0.098 C 
ATOM      6  C   UNL     1      33.511 -13.659 -23.585  0.00  0.00    +0.170 C 
ATOM      7  C   UNL     1      33.293 -12.531 -25.619  0.00  0.00    +0.113 C 
ENDROOT
BRANCH   1   8
ATOM      8  C   UNL     1      32.084 -10.258 -21.644  0.00  0.00    +0.065 C 
ATOM      9  C   UNL     1      32.421  -9.306 -20.681  0.00  0.00    +0.016 C 
ATOM     10  C   UNL     1      31.121 -11.226 -21.362  0.00  0.00    +0.016 C 
ATOM     11  C   UNL     1      31.793  -9.322 -19.436  0.00  0.00    +0.001 C 
ATOM     12  C   UNL     1      30.493 -11.242 -20.117  0.00  0.00    +0.001 C 
ATOM     13  C   UNL     1      30.829 -10.290 -19.153  0.00  0.00    +0.000 C 
ENDBRANCH   1   8
BRANCH   1  14
ATOM     14  C   UNL     1      33.106  -8.940 -23.514  0.00  0.00    +0.065 C 
ATOM     15  C   UNL     1      34.448  -8.614 -23.706  0.00  0.00    +0.016 C 
ATOM     16  C   UNL     1      32.109  -8.028 -23.858  0.00  0.00    +0.016 C 
ATOM     17  C   UNL     1      34.793  -7.373 -24.242  0.00  0.00    +0.001 C 
ATOM     18  C   UNL     1      32.455  -6.787 -24.394  0.00  0.00    +0.001 C 
ATOM     19  C   UNL     1      33.796  -6.460 -24.587  0.00  0.00    +0.000 C 
ENDBRANCH   1  14
BRANCH   4  22
ATOM     20  O   UNL     1      33.605 -15.043 -26.898  0.00  0.00    -0.270 OA
ATOM     21  N   UNL     1      34.386 -16.010 -24.940  0.00  0.00    -0.301 N 
ATOM     22  C   UNL     1      33.837 -14.979 -25.694  0.00  0.00    +0.245 C 
ATOM     23  H   UNL     1      34.535 -15.864 -23.978  0.00  0.00    +0.150 HD
BRANCH  21  24
ATOM     24  C   UNL     1      34.744 -17.282 -25.509  0.00  0.00    +0.090 C 
BRANCH  24  25
ATOM     25  C   UNL     1      34.248 -18.439 -24.649  0.00  0.00    +0.021 C 
BRANCH  25  26
ATOM     26  C   UNL     1      35.200 -18.718 -23.487  0.00  0.00    +0.002 C 
BRANCH  26  27
ATOM     27  C   UNL     1      34.484 -19.431 -22.339  0.00  0.00    +0.001 C 
BRANCH  27  28
ATOM     28  C   UNL     1      34.534 -18.599 -21.053  0.00  0.00    +0.010 C 
BRANCH  28  29
ATOM     29  C   UNL     1      35.291 -17.285 -21.240  0.00  0.00    +0.087 C 
BRANCH  29  32
ATOM     30  O   UNL     1      34.974 -15.104 -20.236  0.00  0.00    -0.273 OA
ATOM     31  N   UNL     1      33.173 -16.167 -21.218  0.00  0.00    -0.197 N 
ATOM     32  C   UNL     1      34.490 -16.056 -20.843  0.00  0.00    +0.244 C 
ATOM     33  H   UNL     1      32.831 -16.951 -21.704  0.00  0.00    +0.182 HD
BRANCH  31  34
ATOM     34  O   UNL     1      32.347 -15.091 -20.864  0.00  0.00    -0.295 OA
ATOM     35  H   UNL     1      32.867 -14.272 -20.861  0.00  0.00    +0.241 HD
ENDBRANCH  31  34
ENDBRANCH  29  32
ENDBRANCH  28  29
ENDBRANCH  27  28
ENDBRANCH  26  27
ENDBRANCH  25  26
ENDBRANCH  24  25
ENDBRANCH  21  24
ENDBRANCH   4  22
TORSDOF 11
ENDMDL
MODEL 9
REMARK VINA RESULT:      -9.9      2.841     12.086
REMARK  Name = 53340666
REMARK  11 active torsions:
REMARK  status: ('A' for Active; 'I' for Inactive)
REMARK    1  A    between atoms: N_1  and  C_8
REMARK    2  A    between atoms: N_1  and  C_14
REMARK    3  A    between atoms: C_4  and  C_22
REMARK    4  A    between atoms: N_21  and  C_24
REMARK    5  A    between atoms: C_24  and  C_25
REMARK    6  A    between atoms: C_25  and  C_26
REMARK    7  A    between atoms: C_26  and  C_27
REMARK    8  A    between atoms: C_27  and  C_28
REMARK    9  A    between atoms: C_28  and  C_29
REMARK   10  A    between atoms: C_29  and  C_32
REMARK   11  A    between atoms: N_31  and  O_34
REMARK                            x       y       z     vdW  Elec       q    Type
REMARK                         _______ _______ _______ _____ _____    ______ ____
ROOT
ATOM      1  N   UNL     1      33.237 -13.741 -23.020  0.00  0.00    -0.211 N 
ATOM      2  N   UNL     1      33.963 -15.917 -23.515  0.00  0.00    -0.202 NA
ATOM      3  N   UNL     1      34.214 -15.003 -21.299  0.00  0.00    -0.180 NA
ATOM      4  C   UNL     1      34.970 -17.238 -21.773  0.00  0.00    +0.076 C 
ATOM      5  C   UNL     1      33.834 -14.947 -22.590  0.00  0.00    +0.098 C 
ATOM      6  C   UNL     1      34.537 -17.054 -23.070  0.00  0.00    +0.170 C 
ATOM      7  C   UNL     1      34.780 -16.167 -20.923  0.00  0.00    +0.113 C 
ENDROOT
BRANCH   1   8
ATOM      8  C   UNL     1      33.369 -13.282 -24.403  0.00  0.00    +0.065 C 
ATOM      9  C   UNL     1      32.866 -14.061 -25.446  0.00  0.00    +0.016 C 
ATOM     10  C   UNL     1      33.996 -12.069 -24.678  0.00  0.00    +0.016 C 
ATOM     11  C   UNL     1      32.991 -13.624 -26.764  0.00  0.00    +0.001 C 
ATOM     12  C   UNL     1      34.121 -11.632 -25.997  0.00  0.00    +0.001 C 
ATOM     13  C   UNL     1      33.619 -12.409 -27.040  0.00  0.00    +0.000 C 
ENDBRANCH   1   8
BRANCH   1  14
ATOM     14  C   UNL     1      32.466 -12.907 -22.096  0.00  0.00    +0.065 C 
ATOM     15  C   UNL     1      32.527 -13.148 -20.724  0.00  0.00    +0.016 C 
ATOM     16  C   UNL     1      31.672 -11.873 -22.589  0.00  0.00    +0.016 C 
ATOM     17  C   UNL     1      31.791 -12.353 -19.844  0.00  0.00    +0.001 C 
ATOM     18  C   UNL     1      30.936 -11.079 -21.709  0.00  0.00    +0.001 C 
ATOM     19  C   UNL     1      30.997 -11.318 -20.337  0.00  0.00    +0.000 C 
ENDBRANCH   1  14
BRANCH   4  22
ATOM     20  O   UNL     1      36.797 -18.686 -21.518  0.00  0.00    -0.270 OA
ATOM     21  N   UNL     1      34.761 -19.406 -20.671  0.00  0.00    -0.301 N 
ATOM     22  C   UNL     1      35.598 -18.506 -21.320  0.00  0.00    +0.245 C 
ATOM     23  H   UNL     1      33.812 -19.172 -20.560  0.00  0.00    +0.150 HD
BRANCH  21  24
ATOM     24  C   UNL     1      35.227 -20.664 -20.153  0.00  0.00    +0.090 C 
BRANCH  24  25
ATOM     25  C   UNL     1      34.105 -21.439 -19.472  0.00  0.00    +0.021 C 
BRANCH  25  26
ATOM     26  C   UNL     1      34.652 -22.397 -18.414  0.00  0.00    +0.002 C 
BRANCH  26  27
ATOM     27  C   UNL     1      33.521 -23.059 -17.624  0.00  0.00    +0.001 C 
BRANCH  27  28
ATOM     28  C   UNL     1      33.977 -23.431 -16.209  0.00  0.00    +0.010 C 
BRANCH  28  29
ATOM     29  C   UNL     1      35.289 -22.748 -15.824  0.00  0.00    +0.087 C 
BRANCH  29  32
ATOM     30  O   UNL     1      36.323 -24.896 -15.394  0.00  0.00    -0.273 OA
ATOM     31  N   UNL     1      37.662 -23.075 -15.868  0.00  0.00    -0.197 N 
ATOM     32  C   UNL     1      36.458 -23.709 -15.677  0.00  0.00    +0.244 C 
ATOM     33  H   UNL     1      37.720 -22.119 -16.093  0.00  0.00    +0.182 HD
BRANCH  31  34
ATOM     34  O   UNL     1      38.802 -23.877 -15.720  0.00  0.00    -0.295 OA
ATOM     35  H   UNL     1      38.563 -24.807 -15.856  0.00  0.00    +0.241 HD
ENDBRANCH  31  34
ENDBRANCH  29  32
ENDBRANCH  28  29
ENDBRANCH  27  28
ENDBRANCH  26  27
ENDBRANCH  25  26
ENDBRANCH  24  25
ENDBRANCH  21  24
ENDBRANCH   4  22
TORSDOF 11
ENDMDL
