MODEL 1
REMARK VINA RESULT:      -9.0      0.000      0.000
REMARK  Name = 3878
REMARK  1 active torsions:
REMARK  status: ('A' for Active; 'I' for Inactive)
REMARK    1  A    between atoms: C_5  and  C_12
REMARK                            x       y       z     vdW  Elec       q    Type
REMARK                         _______ _______ _______ _____ _____    ______ ____
ROOT
ATOM      1  N   UNL     1      32.999 -19.761 -20.871  0.00  0.00    -0.133 NA
ATOM      2  N   UNL     1      35.094 -21.171 -19.735  0.00  0.00    -0.320 NA
ATOM      3  N   UNL     1      32.759 -20.916 -20.216  0.00  0.00    -0.068 NA
ATOM      4  N   UNL     1      33.539 -22.771 -19.001  0.00  0.00    -0.292 N 
ATOM      5  C   UNL     1      34.265 -19.324 -20.954  0.00  0.00    +0.149 C 
ATOM      6  C   UNL     1      35.298 -20.020 -20.393  0.00  0.00    +0.209 C 
ATOM      7  C   UNL     1      33.812 -21.565 -19.681  0.00  0.00    +0.161 C 
ATOM      8  H   UNL     1      34.274 -23.282 -18.592  0.00  0.00    +0.155 HD
ATOM      9  H   UNL     1      32.614 -23.100 -18.935  0.00  0.00    +0.155 HD
ATOM     10  N   UNL     1      36.619 -19.529 -20.498  0.00  0.00    -0.331 N 
ATOM     11  H   UNL     1      37.364 -20.030 -20.095  0.00  0.00    +0.145 HD
ATOM     12  H   UNL     1      36.794 -18.687 -20.977  0.00  0.00    +0.145 HD
ENDROOT
BRANCH   5  15
ATOM     13 CL   UNL     1      34.688 -19.515 -23.964  0.00  0.00    -0.081 Cl
ATOM     14 CL   UNL     1      35.029 -16.678 -25.410  0.00  0.00    -0.081 Cl
ATOM     15  C   UNL     1      34.429 -18.075 -21.676  0.00  0.00    +0.035 C 
ATOM     16  C   UNL     1      34.629 -18.034 -23.055  0.00  0.00    +0.070 C 
ATOM     17  C   UNL     1      34.381 -16.890 -20.942  0.00  0.00    +0.003 C 
ATOM     18  C   UNL     1      34.779 -16.808 -23.702  0.00  0.00    +0.068 C 
ATOM     19  C   UNL     1      34.532 -15.663 -21.588  0.00  0.00    +0.001 C 
ATOM     20  C   UNL     1      34.732 -15.622 -22.969  0.00  0.00    +0.012 C 
ENDBRANCH   5  15
TORSDOF 1
ENDMDL
MODEL 2
REMARK VINA RESULT:      -8.9      3.102      5.453
REMARK  Name = 3878
REMARK  1 active torsions:
REMARK  status: ('A' for Active; 'I' for Inactive)
REMARK    1  A    between atoms: C_5  and  C_12
REMARK                            x       y       z     vdW  Elec       q    Type
REMARK                         _______ _______ _______ _____ _____    ______ ____
ROOT
ATOM      1  N   UNL     1      35.045 -17.094 -20.806  0.00  0.00    -0.133 NA
ATOM      2  N   UNL     1      34.666 -17.034 -23.549  0.00  0.00    -0.320 NA
ATOM      3  N   UNL     1      34.830 -15.919 -21.433  0.00  0.00    -0.068 NA
ATOM      4  N   UNL     1      34.429 -14.703 -23.404  0.00  0.00    -0.292 N 
ATOM      5  C   UNL     1      35.069 -18.216 -21.542  0.00  0.00    +0.149 C 
ATOM      6  C   UNL     1      34.882 -18.185 -22.895  0.00  0.00    +0.209 C 
ATOM      7  C   UNL     1      34.651 -15.942 -22.769  0.00  0.00    +0.161 C 
ATOM      8  H   UNL     1      34.292 -14.667 -24.378  0.00  0.00    +0.155 HD
ATOM      9  H   UNL     1      34.409 -13.874 -22.874  0.00  0.00    +0.155 HD
ATOM     10  N   UNL     1      34.913 -19.387 -23.638  0.00  0.00    -0.331 N 
ATOM     11  H   UNL     1      34.778 -19.367 -24.613  0.00  0.00    +0.145 HD
ATOM     12  H   UNL     1      35.070 -20.245 -23.181  0.00  0.00    +0.145 HD
ENDROOT
BRANCH   5  15
ATOM     13 CL   UNL     1      32.615 -19.747 -20.588  0.00  0.00    -0.081 Cl
ATOM     14 CL   UNL     1      33.303 -22.404 -18.938  0.00  0.00    -0.081 Cl
ATOM     15  C   UNL     1      35.306 -19.432 -20.785  0.00  0.00    +0.035 C 
ATOM     16  C   UNL     1      34.263 -20.218 -20.296  0.00  0.00    +0.070 C 
ATOM     17  C   UNL     1      36.629 -19.805 -20.553  0.00  0.00    +0.003 C 
ATOM     18  C   UNL     1      34.544 -21.379 -19.575  0.00  0.00    +0.068 C 
ATOM     19  C   UNL     1      36.910 -20.965 -19.831  0.00  0.00    +0.001 C 
ATOM     20  C   UNL     1      35.867 -21.752 -19.341  0.00  0.00    +0.012 C 
ENDBRANCH   5  15
TORSDOF 1
ENDMDL
MODEL 3
REMARK VINA RESULT:      -8.7      1.874      2.895
REMARK  Name = 3878
REMARK  1 active torsions:
REMARK  status: ('A' for Active; 'I' for Inactive)
REMARK    1  A    between atoms: C_5  and  C_12
REMARK                            x       y       z     vdW  Elec       q    Type
REMARK                         _______ _______ _______ _____ _____    ______ ____
ROOT
ATOM      1  N   UNL     1      36.672 -19.129 -21.074  0.00  0.00    -0.133 NA
ATOM      2  N   UNL     1      34.786 -20.716 -19.811  0.00  0.00    -0.320 NA
ATOM      3  N   UNL     1      37.048 -19.971 -20.088  0.00  0.00    -0.068 NA
ATOM      4  N   UNL     1      36.507 -21.595 -18.477  0.00  0.00    -0.292 N 
ATOM      5  C   UNL     1      35.376 -19.086 -21.417  0.00  0.00    +0.149 C 
ATOM      6  C   UNL     1      34.446 -19.869 -20.794  0.00  0.00    +0.209 C 
ATOM      7  C   UNL     1      36.093 -20.722 -19.505  0.00  0.00    +0.161 C 
ATOM      8  H   UNL     1      35.847 -22.165 -18.020  0.00  0.00    +0.155 HD
ATOM      9  H   UNL     1      37.455 -21.634 -18.217  0.00  0.00    +0.155 HD
ATOM     10  N   UNL     1      33.089 -19.797 -21.182  0.00  0.00    -0.331 N 
ATOM     11  H   UNL     1      32.418 -20.360 -20.734  0.00  0.00    +0.145 HD
ATOM     12  H   UNL     1      32.815 -19.182 -21.901  0.00  0.00    +0.145 HD
ENDROOT
BRANCH   5  15
ATOM     13 CL   UNL     1      34.852 -16.194 -20.615  0.00  0.00    -0.081 Cl
ATOM     14 CL   UNL     1      34.182 -14.264 -23.081  0.00  0.00    -0.081 Cl
ATOM     15  C   UNL     1      35.063 -18.153 -22.485  0.00  0.00    +0.035 C 
ATOM     16  C   UNL     1      34.805 -16.804 -22.243  0.00  0.00    +0.070 C 
ATOM     17  C   UNL     1      35.026 -18.647 -23.789  0.00  0.00    +0.003 C 
ATOM     18  C   UNL     1      34.511 -15.948 -23.304  0.00  0.00    +0.068 C 
ATOM     19  C   UNL     1      34.731 -17.792 -24.850  0.00  0.00    +0.001 C 
ATOM     20  C   UNL     1      34.473 -16.442 -24.608  0.00  0.00    +0.012 C 
ENDBRANCH   5  15
TORSDOF 1
ENDMDL
MODEL 4
REMARK VINA RESULT:      -8.6      3.084      5.382
REMARK  Name = 3878
REMARK  1 active torsions:
REMARK  status: ('A' for Active; 'I' for Inactive)
REMARK    1  A    between atoms: C_5  and  C_12
REMARK                            x       y       z     vdW  Elec       q    Type
REMARK                         _______ _______ _______ _____ _____    ______ ____
ROOT
ATOM      1  N   UNL     1      34.060 -16.947 -21.207  0.00  0.00    -0.133 NA
ATOM      2  N   UNL     1      34.675 -16.947 -23.906  0.00  0.00    -0.320 NA
ATOM      3  N   UNL     1      34.071 -15.788 -21.897  0.00  0.00    -0.068 NA
ATOM      4  N   UNL     1      34.382 -14.617 -23.911  0.00  0.00    -0.292 N 
ATOM      5  C   UNL     1      34.352 -18.083 -21.860  0.00  0.00    +0.149 C 
ATOM      6  C   UNL     1      34.656 -18.082 -23.192  0.00  0.00    +0.209 C 
ATOM      7  C   UNL     1      34.376 -15.840 -23.208  0.00  0.00    +0.161 C 
ATOM      8  H   UNL     1      34.599 -14.602 -24.871  0.00  0.00    +0.155 HD
ATOM      9  H   UNL     1      34.170 -13.779 -23.441  0.00  0.00    +0.155 HD
ATOM     10  N   UNL     1      34.958 -19.297 -23.847  0.00  0.00    -0.331 N 
ATOM     11  H   UNL     1      35.177 -19.298 -24.807  0.00  0.00    +0.145 HD
ATOM     12  H   UNL     1      34.950 -20.142 -23.343  0.00  0.00    +0.145 HD
ENDROOT
BRANCH   5  15
ATOM     13 CL   UNL     1      37.024 -19.151 -20.859  0.00  0.00    -0.081 Cl
ATOM     14 CL   UNL     1      36.776 -21.790 -19.062  0.00  0.00    -0.081 Cl
ATOM     15  C   UNL     1      34.316 -19.280 -21.039  0.00  0.00    +0.035 C 
ATOM     16  C   UNL     1      35.474 -19.863 -20.522  0.00  0.00    +0.070 C 
ATOM     17  C   UNL     1      33.071 -19.847 -20.772  0.00  0.00    +0.003 C 
ATOM     18  C   UNL     1      35.385 -21.013 -19.738  0.00  0.00    +0.068 C 
ATOM     19  C   UNL     1      32.982 -20.998 -19.989  0.00  0.00    +0.001 C 
ATOM     20  C   UNL     1      34.139 -21.581 -19.472  0.00  0.00    +0.012 C 
ENDBRANCH   5  15
TORSDOF 1
ENDMDL
MODEL 5
REMARK VINA RESULT:      -8.5      1.019      1.907
REMARK  Name = 3878
REMARK  1 active torsions:
REMARK  status: ('A' for Active; 'I' for Inactive)
REMARK    1  A    between atoms: C_5  and  C_12
REMARK                            x       y       z     vdW  Elec       q    Type
REMARK                         _______ _______ _______ _____ _____    ______ ____
ROOT
ATOM      1  N   UNL     1      36.340 -19.031 -20.578  0.00  0.00    -0.133 NA
ATOM      2  N   UNL     1      34.363 -20.855 -19.920  0.00  0.00    -0.320 NA
ATOM      3  N   UNL     1      36.645 -20.123 -19.847  0.00  0.00    -0.068 NA
ATOM      4  N   UNL     1      35.988 -22.115 -18.786  0.00  0.00    -0.292 N 
ATOM      5  C   UNL     1      35.068 -18.859 -20.971  0.00  0.00    +0.149 C 
ATOM      6  C   UNL     1      34.094 -19.760 -20.645  0.00  0.00    +0.209 C 
ATOM      7  C   UNL     1      35.648 -20.981 -19.552  0.00  0.00    +0.161 C 
ATOM      8  H   UNL     1      35.295 -22.772 -18.545  0.00  0.00    +0.155 HD
ATOM      9  H   UNL     1      36.917 -22.251 -18.493  0.00  0.00    +0.155 HD
ATOM     10  N   UNL     1      32.765 -19.546 -21.077  0.00  0.00    -0.331 N 
ATOM     11  H   UNL     1      32.061 -20.194 -20.843  0.00  0.00    +0.145 HD
ATOM     12  H   UNL     1      32.542 -18.750 -21.610  0.00  0.00    +0.145 HD
ENDROOT
BRANCH   5  15
ATOM     13 CL   UNL     1      34.968 -19.182 -23.998  0.00  0.00    -0.081 Cl
ATOM     14 CL   UNL     1      34.438 -16.448 -25.578  0.00  0.00    -0.081 Cl
ATOM     15  C   UNL     1      34.832 -17.659 -21.753  0.00  0.00    +0.035 C 
ATOM     16  C   UNL     1      34.765 -17.680 -23.146  0.00  0.00    +0.070 C 
ATOM     17  C   UNL     1      34.671 -16.457 -21.064  0.00  0.00    +0.003 C 
ATOM     18  C   UNL     1      34.535 -16.499 -23.851  0.00  0.00    +0.068 C 
ATOM     19  C   UNL     1      34.442 -15.275 -21.770  0.00  0.00    +0.001 C 
ATOM     20  C   UNL     1      34.375 -15.296 -23.163  0.00  0.00    +0.012 C 
ENDBRANCH   5  15
TORSDOF 1
ENDMDL
MODEL 6
REMARK VINA RESULT:      -8.2      3.191      5.386
REMARK  Name = 3878
REMARK  1 active torsions:
REMARK  status: ('A' for Active; 'I' for Inactive)
REMARK    1  A    between atoms: C_5  and  C_12
REMARK                            x       y       z     vdW  Elec       q    Type
REMARK                         _______ _______ _______ _____ _____    ______ ____
ROOT
ATOM      1  N   UNL     1      35.247 -18.901 -23.592  0.00  0.00    -0.133 NA
ATOM      2  N   UNL     1      34.633 -16.235 -23.165  0.00  0.00    -0.320 NA
ATOM      3  N   UNL     1      34.984 -18.092 -24.639  0.00  0.00    -0.068 NA
ATOM      4  N   UNL     1      34.419 -15.974 -25.488  0.00  0.00    -0.292 N 
ATOM      5  C   UNL     1      35.202 -18.381 -22.356  0.00  0.00    +0.149 C 
ATOM      6  C   UNL     1      34.899 -17.066 -22.146  0.00  0.00    +0.209 C 
ATOM      7  C   UNL     1      34.691 -16.803 -24.379  0.00  0.00    +0.161 C 
ATOM      8  H   UNL     1      34.200 -15.025 -25.351  0.00  0.00    +0.155 HD
ATOM      9  H   UNL     1      34.449 -16.346 -26.399  0.00  0.00    +0.155 HD
ATOM     10  N   UNL     1      34.861 -16.552 -20.830  0.00  0.00    -0.331 N 
ATOM     11  H   UNL     1      34.643 -15.604 -20.677  0.00  0.00    +0.145 HD
ATOM     12  H   UNL     1      35.053 -17.143 -20.065  0.00  0.00    +0.145 HD
ENDROOT
BRANCH   5  15
ATOM     13 CL   UNL     1      32.865 -19.994 -21.251  0.00  0.00    -0.081 Cl
ATOM     14 CL   UNL     1      33.680 -22.027 -18.915  0.00  0.00    -0.081 Cl
ATOM     15  C   UNL     1      35.497 -19.323 -21.291  0.00  0.00    +0.035 C 
ATOM     16  C   UNL     1      34.512 -20.118 -20.706  0.00  0.00    +0.070 C 
ATOM     17  C   UNL     1      36.819 -19.418 -20.857  0.00  0.00    +0.003 C 
ATOM     18  C   UNL     1      34.848 -21.009 -19.687  0.00  0.00    +0.068 C 
ATOM     19  C   UNL     1      37.156 -20.309 -19.837  0.00  0.00    +0.001 C 
ATOM     20  C   UNL     1      36.170 -21.104 -19.252  0.00  0.00    +0.012 C 
ENDBRANCH   5  15
TORSDOF 1
ENDMDL
MODEL 7
REMARK VINA RESULT:      -8.0      8.454      9.925
REMARK  Name = 3878
REMARK  1 active torsions:
REMARK  status: ('A' for Active; 'I' for Inactive)
REMARK    1  A    between atoms: C_5  and  C_12
REMARK                            x       y       z     vdW  Elec       q    Type
REMARK                         _______ _______ _______ _____ _____    ______ ____
ROOT
ATOM      1  N   UNL     1      37.726 -23.910 -14.429  0.00  0.00    -0.133 NA
ATOM      2  N   UNL     1      38.304 -26.607 -14.674  0.00  0.00    -0.320 NA
ATOM      3  N   UNL     1      38.968 -24.362 -14.157  0.00  0.00    -0.068 NA
ATOM      4  N   UNL     1      40.504 -26.135 -14.003  0.00  0.00    -0.292 N 
ATOM      5  C   UNL     1      36.794 -24.796 -14.815  0.00  0.00    +0.149 C 
ATOM      6  C   UNL     1      37.080 -26.126 -14.936  0.00  0.00    +0.209 C 
ATOM      7  C   UNL     1      39.199 -25.683 -14.291  0.00  0.00    +0.161 C 
ATOM      8  H   UNL     1      40.724 -27.090 -14.086  0.00  0.00    +0.155 HD
ATOM      9  H   UNL     1      41.195 -25.494 -13.718  0.00  0.00    +0.155 HD
ATOM     10  N   UNL     1      36.074 -27.029 -15.346  0.00  0.00    -0.331 N 
ATOM     11  H   UNL     1      36.278 -27.988 -15.433  0.00  0.00    +0.145 HD
ATOM     12  H   UNL     1      35.167 -26.699 -15.543  0.00  0.00    +0.145 HD
ENDROOT
BRANCH   5  15
ATOM     13 CL   UNL     1      34.846 -24.635 -12.478  0.00  0.00    -0.081 Cl
ATOM     14 CL   UNL     1      32.016 -23.342 -13.234  0.00  0.00    -0.081 Cl
ATOM     15  C   UNL     1      35.488 -24.221 -15.085  0.00  0.00    +0.035 C 
ATOM     16  C   UNL     1      34.512 -24.094 -14.097  0.00  0.00    +0.070 C 
ATOM     17  C   UNL     1      35.225 -23.789 -16.385  0.00  0.00    +0.003 C 
ATOM     18  C   UNL     1      33.274 -23.533 -14.408  0.00  0.00    +0.068 C 
ATOM     19  C   UNL     1      33.986 -23.229 -16.696  0.00  0.00    +0.001 C 
ATOM     20  C   UNL     1      33.010 -23.101 -15.708  0.00  0.00    +0.012 C 
ENDBRANCH   5  15
TORSDOF 1
ENDMDL
MODEL 8
REMARK VINA RESULT:      -8.0      5.017      6.694
REMARK  Name = 3878
REMARK  1 active torsions:
REMARK  status: ('A' for Active; 'I' for Inactive)
REMARK    1  A    between atoms: C_5  and  C_12
REMARK                            x       y       z     vdW  Elec       q    Type
REMARK                         _______ _______ _______ _____ _____    ______ ____
ROOT
ATOM      1  N   UNL     1      34.788 -14.688 -23.073  0.00  0.00    -0.133 NA
ATOM      2  N   UNL     1      33.872 -16.219 -25.191  0.00  0.00    -0.320 NA
ATOM      3  N   UNL     1      35.244 -15.947 -23.244  0.00  0.00    -0.068 NA
ATOM      4  N   UNL     1      35.256 -17.965 -24.449  0.00  0.00    -0.292 N 
ATOM      5  C   UNL     1      33.891 -14.209 -23.949  0.00  0.00    +0.149 C 
ATOM      6  C   UNL     1      33.440 -14.965 -24.993  0.00  0.00    +0.209 C 
ATOM      7  C   UNL     1      34.767 -16.651 -24.289  0.00  0.00    +0.161 C 
ATOM      8  H   UNL     1      34.940 -18.520 -25.198  0.00  0.00    +0.155 HD
ATOM      9  H   UNL     1      35.914 -18.326 -23.813  0.00  0.00    +0.155 HD
ATOM     10  N   UNL     1      32.495 -14.427 -25.896  0.00  0.00    -0.331 N 
ATOM     11  H   UNL     1      32.168 -14.971 -26.649  0.00  0.00    +0.145 HD
ATOM     12  H   UNL     1      32.162 -13.509 -25.772  0.00  0.00    +0.145 HD
ENDROOT
BRANCH   5  15
ATOM     13 CL   UNL     1      31.986 -13.792 -21.608  0.00  0.00    -0.081 Cl
ATOM     14 CL   UNL     1      31.127 -10.740 -21.162  0.00  0.00    -0.081 Cl
ATOM     15  C   UNL     1      33.457 -12.848 -23.688  0.00  0.00    +0.035 C 
ATOM     16  C   UNL     1      32.587 -12.532 -22.645  0.00  0.00    +0.070 C 
ATOM     17  C   UNL     1      33.941 -11.841 -24.522  0.00  0.00    +0.003 C 
ATOM     18  C   UNL     1      32.201 -11.208 -22.435  0.00  0.00    +0.068 C 
ATOM     19  C   UNL     1      33.555 -10.517 -24.313  0.00  0.00    +0.001 C 
ATOM     20  C   UNL     1      32.685 -10.200 -23.270  0.00  0.00    +0.012 C 
ENDBRANCH   5  15
TORSDOF 1
ENDMDL
MODEL 9
REMARK VINA RESULT:      -8.0      9.937     11.295
REMARK  Name = 3878
REMARK  1 active torsions:
REMARK  status: ('A' for Active; 'I' for Inactive)
REMARK    1  A    between atoms: C_5  and  C_12
REMARK                            x       y       z     vdW  Elec       q    Type
REMARK                         _______ _______ _______ _____ _____    ______ ____
ROOT
ATOM      1  N   UNL     1      31.978  -9.768 -21.972  0.00  0.00    -0.133 NA
ATOM      2  N   UNL     1      32.184  -8.999 -19.320  0.00  0.00    -0.320 NA
ATOM      3  N   UNL     1      31.542 -10.589 -20.995  0.00  0.00    -0.068 NA
ATOM      4  N   UNL     1      31.201 -11.044 -18.714  0.00  0.00    -0.292 N 
ATOM      5  C   UNL     1      32.508  -8.585 -21.624  0.00  0.00    +0.149 C 
ATOM      6  C   UNL     1      32.609  -8.207 -20.315  0.00  0.00    +0.209 C 
ATOM      7  C   UNL     1      31.664 -10.170 -19.720  0.00  0.00    +0.161 C 
ATOM      8  H   UNL     1      31.268 -10.783 -17.767  0.00  0.00    +0.155 HD
ATOM      9  H   UNL     1      30.812 -11.914 -18.958  0.00  0.00    +0.155 HD
ATOM     10  N   UNL     1      33.171  -6.953 -19.985  0.00  0.00    -0.331 N 
ATOM     11  H   UNL     1      33.245  -6.679 -19.042  0.00  0.00    +0.145 HD
ATOM     12  H   UNL     1      33.490  -6.354 -20.698  0.00  0.00    +0.145 HD
ENDROOT
BRANCH   5  15
ATOM     13 CL   UNL     1      30.547  -6.503 -22.672  0.00  0.00    -0.081 Cl
ATOM     14 CL   UNL     1      31.671  -4.781 -25.127  0.00  0.00    -0.081 Cl
ATOM     15  C   UNL     1      32.950  -7.767 -22.739  0.00  0.00    +0.035 C 
ATOM     16  C   UNL     1      32.142  -6.782 -23.305  0.00  0.00    +0.070 C 
ATOM     17  C   UNL     1      34.231  -7.995 -23.243  0.00  0.00    +0.003 C 
ATOM     18  C   UNL     1      32.615  -6.022 -24.375  0.00  0.00    +0.068 C 
ATOM     19  C   UNL     1      34.703  -7.236 -24.314  0.00  0.00    +0.001 C 
ATOM     20  C   UNL     1      33.895  -6.250 -24.880  0.00  0.00    +0.012 C 
ENDBRANCH   5  15
TORSDOF 1
ENDMDL
