MODEL 1
REMARK VINA RESULT:      -9.8      0.000      0.000
REMARK  Name = 97576
REMARK  7 active torsions:
REMARK  status: ('A' for Active; 'I' for Inactive)
REMARK    1  A    between atoms: C_2  and  O_18
REMARK    2  A    between atoms: C_3  and  O_20
REMARK    3  A    between atoms: C_4  and  N_6
REMARK    4  A    between atoms: C_5  and  C_22
REMARK    5  A    between atoms: C_22  and  O_23
REMARK    6  A    between atoms: O_23  and  S_24
REMARK    7  A    between atoms: S_24  and  N_27
REMARK                            x       y       z     vdW  Elec       q    Type
REMARK                         _______ _______ _______ _____ _____    ______ ____
ROOT
ATOM      1  O   UNL     1      31.836 -25.425 -14.673  0.00  0.00    -0.333 OA
ATOM      2  C   UNL     1      31.662 -23.321 -13.599  0.00  0.00    +0.187 C 
ATOM      3  C   UNL     1      30.343 -24.048 -13.431  0.00  0.00    +0.171 C 
ATOM      4  C   UNL     1      32.605 -24.473 -13.911  0.00  0.00    +0.225 C 
ATOM      5  C   UNL     1      30.430 -25.132 -14.501  0.00  0.00    +0.178 C 
ENDROOT
BRANCH   4   6
ATOM      6  N   UNL     1      33.792 -24.083 -14.668  0.00  0.00    -0.247 N 
ATOM      7  N   UNL     1      35.041 -23.408 -16.389  0.00  0.00    -0.242 NA
ATOM      8  N   UNL     1      35.517 -24.313 -12.972  0.00  0.00    -0.228 NA
ATOM      9  N   UNL     1      37.716 -23.736 -13.857  0.00  0.00    -0.229 NA
ATOM     10  C   UNL     1      35.078 -24.025 -14.206  0.00  0.00    +0.152 C 
ATOM     11  C   UNL     1      33.824 -23.703 -15.985  0.00  0.00    +0.223 C 
ATOM     12  C   UNL     1      35.835 -23.605 -15.288  0.00  0.00    +0.140 C 
ATOM     13  C   UNL     1      37.204 -23.462 -15.081  0.00  0.00    +0.143 C 
ATOM     14  C   UNL     1      36.854 -24.139 -12.892  0.00  0.00    +0.253 C 
ATOM     15  N   UNL     1      38.047 -23.038 -16.122  0.00  0.00    -0.342 N 
ATOM     16  H   UNL     1      39.014 -22.942 -15.964  0.00  0.00    +0.144 HD
ATOM     17  H   UNL     1      37.671 -22.839 -17.010  0.00  0.00    +0.144 HD
ENDBRANCH   4   6
BRANCH   2  18
ATOM     18  O   UNL     1      32.058 -22.615 -12.441  0.00  0.00    -0.378 OA
ATOM     19  H   UNL     1      32.931 -22.928 -12.155  0.00  0.00    +0.211 HD
ENDBRANCH   2  18
BRANCH   3  20
ATOM     20  O   UNL     1      30.302 -24.670 -12.147  0.00  0.00    -0.379 OA
ATOM     21  H   UNL     1      30.787 -24.124 -11.508  0.00  0.00    +0.211 HD
ENDBRANCH   3  20
BRANCH   5  22
ATOM     22  C   UNL     1      29.865 -24.689 -15.842  0.00  0.00    +0.206 C 
BRANCH  22  23
ATOM     23  O   UNL     1      28.605 -24.078 -15.625  0.00  0.00    -0.227 OA
BRANCH  23  24
ATOM     24  S   UNL     1      28.035 -22.979 -16.697  0.00  0.00    +0.045 S 
ATOM     25  O   UNL     1      29.060 -21.974 -16.915  0.00  0.00    -0.056 OA
ATOM     26  O   UNL     1      27.488 -23.714 -17.822  0.00  0.00    -0.056 OA
BRANCH  24  27
ATOM     27  N   UNL     1      26.726 -22.237 -15.874  0.00  0.00    -0.204 NA
ATOM     28  H   UNL     1      26.263 -21.576 -16.497  0.00  0.00    +0.144 HD
ATOM     29  H   UNL     1      27.076 -21.743 -15.053  0.00  0.00    +0.144 HD
ENDBRANCH  24  27
ENDBRANCH  23  24
ENDBRANCH  22  23
ENDBRANCH   5  22
TORSDOF 7
ENDMDL
MODEL 2
REMARK VINA RESULT:      -9.6      4.761      7.520
REMARK  Name = 97576
REMARK  7 active torsions:
REMARK  status: ('A' for Active; 'I' for Inactive)
REMARK    1  A    between atoms: C_2  and  O_18
REMARK    2  A    between atoms: C_3  and  O_20
REMARK    3  A    between atoms: C_4  and  N_6
REMARK    4  A    between atoms: C_5  and  C_22
REMARK    5  A    between atoms: C_22  and  O_23
REMARK    6  A    between atoms: O_23  and  S_24
REMARK    7  A    between atoms: S_24  and  N_27
REMARK                            x       y       z     vdW  Elec       q    Type
REMARK                         _______ _______ _______ _____ _____    ______ ____
ROOT
ATOM      1  O   UNL     1      37.457 -23.368 -13.106  0.00  0.00    -0.333 OA
ATOM      2  C   UNL     1      35.574 -24.724 -12.630  0.00  0.00    +0.187 C 
ATOM      3  C   UNL     1      36.569 -24.884 -11.499  0.00  0.00    +0.171 C 
ATOM      4  C   UNL     1      36.022 -23.407 -13.244  0.00  0.00    +0.225 C 
ATOM      5  C   UNL     1      37.855 -24.348 -12.119  0.00  0.00    +0.178 C 
ENDROOT
BRANCH   4   6
ATOM      6  N   UNL     1      35.660 -23.251 -14.651  0.00  0.00    -0.247 N 
ATOM      7  N   UNL     1      35.906 -22.950 -16.848  0.00  0.00    -0.242 NA
ATOM      8  N   UNL     1      33.240 -23.439 -14.528  0.00  0.00    -0.228 NA
ATOM      9  N   UNL     1      32.219 -23.228 -16.733  0.00  0.00    -0.229 NA
ATOM     10  C   UNL     1      34.400 -23.272 -15.181  0.00  0.00    +0.152 C 
ATOM     11  C   UNL     1      36.529 -23.054 -15.693  0.00  0.00    +0.223 C 
ATOM     12  C   UNL     1      34.575 -23.085 -16.543  0.00  0.00    +0.140 C 
ATOM     13  C   UNL     1      33.426 -23.066 -17.328  0.00  0.00    +0.143 C 
ATOM     14  C   UNL     1      32.201 -23.402 -15.390  0.00  0.00    +0.253 C 
ATOM     15  N   UNL     1      33.510 -22.883 -18.719  0.00  0.00    -0.342 N 
ATOM     16  H   UNL     1      32.691 -22.871 -19.264  0.00  0.00    +0.144 HD
ATOM     17  H   UNL     1      34.388 -22.766 -19.148  0.00  0.00    +0.144 HD
ENDBRANCH   4   6
BRANCH   2  18
ATOM     18  O   UNL     1      34.234 -24.668 -12.185  0.00  0.00    -0.378 OA
ATOM     19  H   UNL     1      34.218 -24.553 -11.222  0.00  0.00    +0.211 HD
ENDBRANCH   2  18
BRANCH   3  20
ATOM     20  O   UNL     1      36.195 -24.039 -10.411  0.00  0.00    -0.379 OA
ATOM     21  H   UNL     1      35.750 -24.567  -9.730  0.00  0.00    +0.211 HD
ENDBRANCH   3  20
BRANCH   5  22
ATOM     22  C   UNL     1      38.673 -25.426 -12.817  0.00  0.00    +0.206 C 
BRANCH  22  23
ATOM     23  O   UNL     1      39.158 -24.906 -14.043  0.00  0.00    -0.227 OA
BRANCH  23  24
ATOM     24  S   UNL     1      40.608 -25.398 -14.622  0.00  0.00    +0.045 S 
ATOM     25  O   UNL     1      41.476 -24.239 -14.734  0.00  0.00    -0.056 OA
ATOM     26  O   UNL     1      41.024 -26.542 -13.832  0.00  0.00    -0.056 OA
BRANCH  24  27
ATOM     27  N   UNL     1      40.256 -25.958 -16.204  0.00  0.00    -0.204 NA
ATOM     28  H   UNL     1      41.125 -26.082 -16.722  0.00  0.00    +0.144 HD
ATOM     29  H   UNL     1      39.667 -25.277 -16.683  0.00  0.00    +0.144 HD
ENDBRANCH  24  27
ENDBRANCH  23  24
ENDBRANCH  22  23
ENDBRANCH   5  22
TORSDOF 7
ENDMDL
MODEL 3
REMARK VINA RESULT:      -9.5      4.830      7.695
REMARK  Name = 97576
REMARK  7 active torsions:
REMARK  status: ('A' for Active; 'I' for Inactive)
REMARK    1  A    between atoms: C_2  and  O_18
REMARK    2  A    between atoms: C_3  and  O_20
REMARK    3  A    between atoms: C_4  and  N_6
REMARK    4  A    between atoms: C_5  and  C_22
REMARK    5  A    between atoms: C_22  and  O_23
REMARK    6  A    between atoms: O_23  and  S_24
REMARK    7  A    between atoms: S_24  and  N_27
REMARK                            x       y       z     vdW  Elec       q    Type
REMARK                         _______ _______ _______ _____ _____    ______ ____
ROOT
ATOM      1  O   UNL     1      36.663 -23.416 -14.105  0.00  0.00    -0.333 OA
ATOM      2  C   UNL     1      35.380 -24.920 -12.800  0.00  0.00    +0.187 C 
ATOM      3  C   UNL     1      36.819 -24.998 -12.332  0.00  0.00    +0.171 C 
ATOM      4  C   UNL     1      35.362 -23.571 -13.503  0.00  0.00    +0.225 C 
ATOM      5  C   UNL     1      37.574 -24.360 -13.495  0.00  0.00    +0.178 C 
ENDROOT
BRANCH   4   6
ATOM      6  N   UNL     1      34.328 -23.447 -14.528  0.00  0.00    -0.247 N 
ATOM      7  N   UNL     1      33.409 -23.233 -16.549  0.00  0.00    -0.242 NA
ATOM      8  N   UNL     1      32.318 -23.515 -13.165  0.00  0.00    -0.228 NA
ATOM      9  N   UNL     1      30.308 -23.332 -14.536  0.00  0.00    -0.229 NA
ATOM     10  C   UNL     1      32.975 -23.427 -14.331  0.00  0.00    +0.152 C 
ATOM     11  C   UNL     1      34.537 -23.327 -15.877  0.00  0.00    +0.223 C 
ATOM     12  C   UNL     1      32.425 -23.294 -15.595  0.00  0.00    +0.140 C 
ATOM     13  C   UNL     1      31.037 -23.247 -15.676  0.00  0.00    +0.143 C 
ATOM     14  C   UNL     1      30.984 -23.458 -13.369  0.00  0.00    +0.253 C 
ATOM     15  N   UNL     1      30.394 -23.116 -16.919  0.00  0.00    -0.342 N 
ATOM     16  H   UNL     1      29.411 -23.084 -16.963  0.00  0.00    +0.144 HD
ATOM     17  H   UNL     1      30.926 -23.056 -17.744  0.00  0.00    +0.144 HD
ENDBRANCH   4   6
BRANCH   2  18
ATOM     18  O   UNL     1      34.449 -24.972 -11.738  0.00  0.00    -0.378 OA
ATOM     19  H   UNL     1      34.222 -25.898 -11.552  0.00  0.00    +0.211 HD
ENDBRANCH   2  18
BRANCH   3  20
ATOM     20  O   UNL     1      36.988 -24.185 -11.171  0.00  0.00    -0.379 OA
ATOM     21  H   UNL     1      37.716 -24.535 -10.635  0.00  0.00    +0.211 HD
ENDBRANCH   3  20
BRANCH   5  22
ATOM     22  C   UNL     1      38.000 -25.368 -14.551  0.00  0.00    +0.206 C 
BRANCH  22  23
ATOM     23  O   UNL     1      39.043 -26.168 -14.022  0.00  0.00    -0.227 OA
BRANCH  23  24
ATOM     24  S   UNL     1      40.592 -25.900 -14.482  0.00  0.00    +0.045 S 
ATOM     25  O   UNL     1      40.965 -24.556 -14.079  0.00  0.00    -0.056 OA
ATOM     26  O   UNL     1      41.378 -27.036 -14.039  0.00  0.00    -0.056 OA
BRANCH  24  27
ATOM     27  N   UNL     1      40.530 -25.947 -16.195  0.00  0.00    -0.204 NA
ATOM     28  H   UNL     1      41.446 -26.202 -16.562  0.00  0.00    +0.144 HD
ATOM     29  H   UNL     1      40.264 -25.029 -16.552  0.00  0.00    +0.144 HD
ENDBRANCH  24  27
ENDBRANCH  23  24
ENDBRANCH  22  23
ENDBRANCH   5  22
TORSDOF 7
ENDMDL
MODEL 4
REMARK VINA RESULT:      -9.4      4.845      7.240
REMARK  Name = 97576
REMARK  7 active torsions:
REMARK  status: ('A' for Active; 'I' for Inactive)
REMARK    1  A    between atoms: C_2  and  O_18
REMARK    2  A    between atoms: C_3  and  O_20
REMARK    3  A    between atoms: C_4  and  N_6
REMARK    4  A    between atoms: C_5  and  C_22
REMARK    5  A    between atoms: C_22  and  O_23
REMARK    6  A    between atoms: O_23  and  S_24
REMARK    7  A    between atoms: S_24  and  N_27
REMARK                            x       y       z     vdW  Elec       q    Type
REMARK                         _______ _______ _______ _____ _____    ______ ____
ROOT
ATOM      1  O   UNL     1      36.683 -22.841 -13.130  0.00  0.00    -0.333 OA
ATOM      2  C   UNL     1      35.912 -24.869 -14.080  0.00  0.00    +0.187 C 
ATOM      3  C   UNL     1      36.162 -25.104 -12.604  0.00  0.00    +0.171 C 
ATOM      4  C   UNL     1      35.778 -23.354 -14.128  0.00  0.00    +0.225 C 
ATOM      5  C   UNL     1      37.042 -23.915 -12.231  0.00  0.00    +0.178 C 
ENDROOT
BRANCH   4   6
ATOM      6  N   UNL     1      36.096 -22.768 -15.428  0.00  0.00    -0.247 N 
ATOM      7  N   UNL     1      37.237 -21.667 -16.997  0.00  0.00    -0.242 NA
ATOM      8  N   UNL     1      34.124 -23.385 -16.707  0.00  0.00    -0.228 NA
ATOM      9  N   UNL     1      34.264 -22.572 -19.003  0.00  0.00    -0.229 NA
ATOM     10  C   UNL     1      35.325 -22.807 -16.557  0.00  0.00    +0.152 C 
ATOM     11  C   UNL     1      37.234 -22.071 -15.745  0.00  0.00    +0.223 C 
ATOM     12  C   UNL     1      36.050 -22.119 -17.517  0.00  0.00    +0.140 C 
ATOM     13  C   UNL     1      35.477 -22.011 -18.780  0.00  0.00    +0.143 C 
ATOM     14  C   UNL     1      33.671 -23.215 -17.967  0.00  0.00    +0.253 C 
ATOM     15  N   UNL     1      36.143 -21.332 -19.815  0.00  0.00    -0.342 N 
ATOM     16  H   UNL     1      35.728 -21.262 -20.704  0.00  0.00    +0.144 HD
ATOM     17  H   UNL     1      37.025 -20.927 -19.649  0.00  0.00    +0.144 HD
ENDBRANCH   4   6
BRANCH   2  18
ATOM     18  O   UNL     1      34.748 -25.515 -14.555  0.00  0.00    -0.378 OA
ATOM     19  H   UNL     1      34.217 -25.818 -13.801  0.00  0.00    +0.211 HD
ENDBRANCH   2  18
BRANCH   3  20
ATOM     20  O   UNL     1      34.929 -25.006 -11.891  0.00  0.00    -0.379 OA
ATOM     21  H   UNL     1      34.410 -25.813 -12.033  0.00  0.00    +0.211 HD
ENDBRANCH   3  20
BRANCH   5  22
ATOM     22  C   UNL     1      38.528 -24.202 -12.394  0.00  0.00    +0.206 C 
BRANCH  22  23
ATOM     23  O   UNL     1      38.687 -25.541 -12.832  0.00  0.00    -0.227 OA
BRANCH  23  24
ATOM     24  S   UNL     1      39.353 -25.847 -14.296  0.00  0.00    +0.045 S 
ATOM     25  O   UNL     1      38.611 -26.925 -14.923  0.00  0.00    -0.056 OA
ATOM     26  O   UNL     1      39.502 -24.575 -14.979  0.00  0.00    -0.056 OA
BRANCH  24  27
ATOM     27  N   UNL     1      40.924 -26.425 -13.924  0.00  0.00    -0.204 NA
ATOM     28  H   UNL     1      41.568 -26.165 -14.671  0.00  0.00    +0.144 HD
ATOM     29  H   UNL     1      40.901 -27.440 -13.832  0.00  0.00    +0.144 HD
ENDBRANCH  24  27
ENDBRANCH  23  24
ENDBRANCH  22  23
ENDBRANCH   5  22
TORSDOF 7
ENDMDL
MODEL 5
REMARK VINA RESULT:      -9.3      4.731      7.042
REMARK  Name = 97576
REMARK  7 active torsions:
REMARK  status: ('A' for Active; 'I' for Inactive)
REMARK    1  A    between atoms: C_2  and  O_18
REMARK    2  A    between atoms: C_3  and  O_20
REMARK    3  A    between atoms: C_4  and  N_6
REMARK    4  A    between atoms: C_5  and  C_22
REMARK    5  A    between atoms: C_22  and  O_23
REMARK    6  A    between atoms: O_23  and  S_24
REMARK    7  A    between atoms: S_24  and  N_27
REMARK                            x       y       z     vdW  Elec       q    Type
REMARK                         _______ _______ _______ _____ _____    ______ ____
ROOT
ATOM      1  O   UNL     1      36.295 -25.727 -14.812  0.00  0.00    -0.333 OA
ATOM      2  C   UNL     1      37.003 -23.472 -14.658  0.00  0.00    +0.187 C 
ATOM      3  C   UNL     1      38.136 -24.358 -14.178  0.00  0.00    +0.171 C 
ATOM      4  C   UNL     1      36.178 -24.453 -15.476  0.00  0.00    +0.225 C 
ATOM      5  C   UNL     1      37.424 -25.680 -13.909  0.00  0.00    +0.178 C 
ENDROOT
BRANCH   4   6
ATOM      6  N   UNL     1      34.768 -24.089 -15.598  0.00  0.00    -0.247 N 
ATOM      7  N   UNL     1      32.614 -23.876 -15.059  0.00  0.00    -0.242 NA
ATOM      8  N   UNL     1      34.750 -23.045 -17.793  0.00  0.00    -0.228 NA
ATOM      9  N   UNL     1      32.514 -22.274 -18.391  0.00  0.00    -0.229 NA
ATOM     10  C   UNL     1      34.172 -23.458 -16.655  0.00  0.00    +0.152 C 
ATOM     11  C   UNL     1      33.790 -24.319 -14.666  0.00  0.00    +0.223 C 
ATOM     12  C   UNL     1      32.838 -23.336 -16.300  0.00  0.00    +0.140 C 
ATOM     13  C   UNL     1      31.996 -22.717 -17.219  0.00  0.00    +0.143 C 
ATOM     14  C   UNL     1      33.839 -22.463 -18.602  0.00  0.00    +0.253 C 
ATOM     15  N   UNL     1      30.629 -22.549 -16.941  0.00  0.00    -0.342 N 
ATOM     16  H   UNL     1      30.044 -22.110 -17.599  0.00  0.00    +0.144 HD
ATOM     17  H   UNL     1      30.257 -22.871 -16.088  0.00  0.00    +0.144 HD
ENDBRANCH   4   6
BRANCH   2  18
ATOM     18  O   UNL     1      37.447 -22.379 -15.436  0.00  0.00    -0.378 OA
ATOM     19  H   UNL     1      36.964 -21.579 -15.173  0.00  0.00    +0.211 HD
ENDBRANCH   2  18
BRANCH   3  20
ATOM     20  O   UNL     1      39.074 -24.547 -15.237  0.00  0.00    -0.379 OA
ATOM     21  H   UNL     1      39.213 -23.705 -15.699  0.00  0.00    +0.211 HD
ENDBRANCH   3  20
BRANCH   5  22
ATOM     22  C   UNL     1      36.904 -25.796 -12.484  0.00  0.00    +0.206 C 
BRANCH  22  23
ATOM     23  O   UNL     1      37.505 -24.781 -11.697  0.00  0.00    -0.227 OA
BRANCH  23  24
ATOM     24  S   UNL     1      36.568 -23.669 -10.945  0.00  0.00    +0.045 S 
ATOM     25  O   UNL     1      36.235 -24.165  -9.623  0.00  0.00    -0.056 OA
ATOM     26  O   UNL     1      37.221 -22.381 -11.094  0.00  0.00    -0.056 OA
BRANCH  24  27
ATOM     27  N   UNL     1      35.131 -23.635 -11.881  0.00  0.00    -0.204 NA
ATOM     28  H   UNL     1      35.328 -23.983 -12.819  0.00  0.00    +0.144 HD
ATOM     29  H   UNL     1      34.784 -22.678 -11.938  0.00  0.00    +0.144 HD
ENDBRANCH  24  27
ENDBRANCH  23  24
ENDBRANCH  22  23
ENDBRANCH   5  22
TORSDOF 7
ENDMDL
MODEL 6
REMARK VINA RESULT:      -9.3      4.958      7.537
REMARK  Name = 97576
REMARK  7 active torsions:
REMARK  status: ('A' for Active; 'I' for Inactive)
REMARK    1  A    between atoms: C_2  and  O_18
REMARK    2  A    between atoms: C_3  and  O_20
REMARK    3  A    between atoms: C_4  and  N_6
REMARK    4  A    between atoms: C_5  and  C_22
REMARK    5  A    between atoms: C_22  and  O_23
REMARK    6  A    between atoms: O_23  and  S_24
REMARK    7  A    between atoms: S_24  and  N_27
REMARK                            x       y       z     vdW  Elec       q    Type
REMARK                         _______ _______ _______ _____ _____    ______ ____
ROOT
ATOM      1  O   UNL     1      37.601 -23.522 -13.788  0.00  0.00    -0.333 OA
ATOM      2  C   UNL     1      35.772 -24.066 -12.385  0.00  0.00    +0.187 C 
ATOM      3  C   UNL     1      37.049 -24.243 -11.587  0.00  0.00    +0.171 C 
ATOM      4  C   UNL     1      36.239 -23.147 -13.503  0.00  0.00    +0.225 C 
ATOM      5  C   UNL     1      38.110 -24.302 -12.681  0.00  0.00    +0.178 C 
ENDROOT
BRANCH   4   6
ATOM      6  N   UNL     1      35.439 -23.238 -14.722  0.00  0.00    -0.247 N 
ATOM      7  N   UNL     1      33.745 -23.775 -16.071  0.00  0.00    -0.242 NA
ATOM      8  N   UNL     1      36.852 -22.036 -16.292  0.00  0.00    -0.228 NA
ATOM      9  N   UNL     1      35.845 -21.957 -18.513  0.00  0.00    -0.229 NA
ATOM     10  C   UNL     1      35.753 -22.725 -15.950  0.00  0.00    +0.152 C 
ATOM     11  C   UNL     1      34.224 -23.860 -14.848  0.00  0.00    +0.223 C 
ATOM     12  C   UNL     1      34.690 -23.068 -16.771  0.00  0.00    +0.140 C 
ATOM     13  C   UNL     1      34.762 -22.658 -18.099  0.00  0.00    +0.143 C 
ATOM     14  C   UNL     1      36.809 -21.694 -17.598  0.00  0.00    +0.253 C 
ATOM     15  N   UNL     1      33.728 -22.961 -19.001  0.00  0.00    -0.342 N 
ATOM     16  H   UNL     1      33.790 -22.665 -19.937  0.00  0.00    +0.144 HD
ATOM     17  H   UNL     1      32.942 -23.469 -18.696  0.00  0.00    +0.144 HD
ENDBRANCH   4   6
BRANCH   2  18
ATOM     18  O   UNL     1      34.724 -23.490 -11.632  0.00  0.00    -0.378 OA
ATOM     19  H   UNL     1      34.962 -23.492 -10.692  0.00  0.00    +0.211 HD
ENDBRANCH   2  18
BRANCH   3  20
ATOM     20  O   UNL     1      37.275 -23.083 -10.787  0.00  0.00    -0.379 OA
ATOM     21  H   UNL     1      36.941 -23.239  -9.890  0.00  0.00    +0.211 HD
ENDBRANCH   3  20
BRANCH   5  22
ATOM     22  C   UNL     1      38.377 -25.717 -13.174  0.00  0.00    +0.206 C 
BRANCH  22  23
ATOM     23  O   UNL     1      38.828 -25.653 -14.516  0.00  0.00    -0.227 OA
BRANCH  23  24
ATOM     24  S   UNL     1      40.433 -25.644 -14.839  0.00  0.00    +0.045 S 
ATOM     25  O   UNL     1      40.628 -26.070 -16.213  0.00  0.00    -0.056 OA
ATOM     26  O   UNL     1      40.957 -24.366 -14.394  0.00  0.00    -0.056 OA
BRANCH  24  27
ATOM     27  N   UNL     1      41.071 -26.856 -13.808  0.00  0.00    -0.204 NA
ATOM     28  H   UNL     1      40.340 -27.184 -13.176  0.00  0.00    +0.144 HD
ATOM     29  H   UNL     1      41.843 -26.470 -13.265  0.00  0.00    +0.144 HD
ENDBRANCH  24  27
ENDBRANCH  23  24
ENDBRANCH  22  23
ENDBRANCH   5  22
TORSDOF 7
ENDMDL
MODEL 7
REMARK VINA RESULT:      -9.0      8.375     10.158
REMARK  Name = 97576
REMARK  7 active torsions:
REMARK  status: ('A' for Active; 'I' for Inactive)
REMARK    1  A    between atoms: C_2  and  O_18
REMARK    2  A    between atoms: C_3  and  O_20
REMARK    3  A    between atoms: C_4  and  N_6
REMARK    4  A    between atoms: C_5  and  C_22
REMARK    5  A    between atoms: C_22  and  O_23
REMARK    6  A    between atoms: O_23  and  S_24
REMARK    7  A    between atoms: S_24  and  N_27
REMARK                            x       y       z     vdW  Elec       q    Type
REMARK                         _______ _______ _______ _____ _____    ______ ____
ROOT
ATOM      1  O   UNL     1      34.803 -17.118 -20.863  0.00  0.00    -0.333 OA
ATOM      2  C   UNL     1      34.242 -17.982 -22.996  0.00  0.00    +0.187 C 
ATOM      3  C   UNL     1      34.603 -16.519 -23.159  0.00  0.00    +0.171 C 
ATOM      4  C   UNL     1      34.903 -18.311 -21.667  0.00  0.00    +0.225 C 
ATOM      5  C   UNL     1      34.502 -15.999 -21.728  0.00  0.00    +0.178 C 
ENDROOT
BRANCH   4   6
ATOM      6  N   UNL     1      34.291 -19.433 -20.959  0.00  0.00    -0.247 N 
ATOM      7  N   UNL     1      32.714 -20.842 -20.248  0.00  0.00    -0.242 NA
ATOM      8  N   UNL     1      36.226 -20.375 -19.828  0.00  0.00    -0.228 NA
ATOM      9  N   UNL     1      35.615 -22.328 -18.500  0.00  0.00    -0.229 NA
ATOM     10  C   UNL     1      34.923 -20.333 -20.146  0.00  0.00    +0.152 C 
ATOM     11  C   UNL     1      32.966 -19.782 -20.987  0.00  0.00    +0.223 C 
ATOM     12  C   UNL     1      33.928 -21.197 -19.717  0.00  0.00    +0.140 C 
ATOM     13  C   UNL     1      34.313 -22.225 -18.862  0.00  0.00    +0.143 C 
ATOM     14  C   UNL     1      36.478 -21.410 -18.998  0.00  0.00    +0.253 C 
ATOM     15  N   UNL     1      33.369 -23.149 -18.379  0.00  0.00    -0.342 N 
ATOM     16  H   UNL     1      33.653 -23.872 -17.775  0.00  0.00    +0.144 HD
ATOM     17  H   UNL     1      32.425 -23.072 -18.645  0.00  0.00    +0.144 HD
ENDBRANCH   4   6
BRANCH   2  18
ATOM     18  O   UNL     1      34.734 -18.793 -24.044  0.00  0.00    -0.378 OA
ATOM     19  H   UNL     1      34.869 -19.696 -23.716  0.00  0.00    +0.211 HD
ENDBRANCH   2  18
BRANCH   3  20
ATOM     20  O   UNL     1      35.957 -16.407 -23.595  0.00  0.00    -0.379 OA
ATOM     21  H   UNL     1      36.378 -17.281 -23.568  0.00  0.00    +0.211 HD
ENDBRANCH   3  20
BRANCH   5  22
ATOM     22  C   UNL     1      33.114 -15.482 -21.380  0.00  0.00    +0.206 C 
BRANCH  22  23
ATOM     23  O   UNL     1      33.142 -14.065 -21.382  0.00  0.00    -0.227 OA
BRANCH  23  24
ATOM     24  S   UNL     1      32.684 -13.242 -22.721  0.00  0.00    +0.045 S 
ATOM     25  O   UNL     1      32.007 -14.161 -23.618  0.00  0.00    -0.056 OA
ATOM     26  O   UNL     1      32.014 -12.033 -22.278  0.00  0.00    -0.056 OA
BRANCH  24  27
ATOM     27  N   UNL     1      34.166 -12.778 -23.450  0.00  0.00    -0.204 NA
ATOM     28  H   UNL     1      34.160 -13.047 -24.433  0.00  0.00    +0.144 HD
ATOM     29  H   UNL     1      34.939 -13.242 -22.974  0.00  0.00    +0.144 HD
ENDBRANCH  24  27
ENDBRANCH  23  24
ENDBRANCH  22  23
ENDBRANCH   5  22
TORSDOF 7
ENDMDL
MODEL 8
REMARK VINA RESULT:      -9.0      4.545      7.143
REMARK  Name = 97576
REMARK  7 active torsions:
REMARK  status: ('A' for Active; 'I' for Inactive)
REMARK    1  A    between atoms: C_2  and  O_18
REMARK    2  A    between atoms: C_3  and  O_20
REMARK    3  A    between atoms: C_4  and  N_6
REMARK    4  A    between atoms: C_5  and  C_22
REMARK    5  A    between atoms: C_22  and  O_23
REMARK    6  A    between atoms: O_23  and  S_24
REMARK    7  A    between atoms: S_24  and  N_27
REMARK                            x       y       z     vdW  Elec       q    Type
REMARK                         _______ _______ _______ _____ _____    ______ ____
ROOT
ATOM      1  O   UNL     1      35.423 -24.136 -16.150  0.00  0.00    -0.333 OA
ATOM      2  C   UNL     1      36.549 -22.056 -16.017  0.00  0.00    +0.187 C 
ATOM      3  C   UNL     1      37.085 -22.955 -14.920  0.00  0.00    +0.171 C 
ATOM      4  C   UNL     1      35.944 -23.073 -16.973  0.00  0.00    +0.225 C 
ATOM      5  C   UNL     1      36.012 -24.035 -14.832  0.00  0.00    +0.178 C 
ENDROOT
BRANCH   4   6
ATOM      6  N   UNL     1      34.879 -22.537 -17.817  0.00  0.00    -0.247 N 
ATOM      7  N   UNL     1      32.826 -22.200 -18.623  0.00  0.00    -0.242 NA
ATOM      8  N   UNL     1      36.145 -21.075 -19.287  0.00  0.00    -0.228 NA
ATOM      9  N   UNL     1      34.691 -19.954 -20.893  0.00  0.00    -0.229 NA
ATOM     10  C   UNL     1      35.014 -21.643 -18.842  0.00  0.00    +0.152 C 
ATOM     11  C   UNL     1      33.545 -22.841 -17.726  0.00  0.00    +0.223 C 
ATOM     12  C   UNL     1      33.731 -21.448 -19.327  0.00  0.00    +0.140 C 
ATOM     13  C   UNL     1      33.590 -20.565 -20.394  0.00  0.00    +0.143 C 
ATOM     14  C   UNL     1      35.883 -20.243 -20.318  0.00  0.00    +0.253 C 
ATOM     15  N   UNL     1      32.324 -20.306 -20.948  0.00  0.00    -0.342 N 
ATOM     16  H   UNL     1      32.236 -19.680 -21.702  0.00  0.00    +0.144 HD
ATOM     17  H   UNL     1      31.526 -20.751 -20.581  0.00  0.00    +0.144 HD
ENDBRANCH   4   6
BRANCH   2  18
ATOM     18  O   UNL     1      37.555 -21.282 -16.639  0.00  0.00    -0.378 OA
ATOM     19  H   UNL     1      37.680 -21.588 -17.552  0.00  0.00    +0.211 HD
ENDBRANCH   2  18
BRANCH   3  20
ATOM     20  O   UNL     1      38.308 -23.553 -15.348  0.00  0.00    -0.379 OA
ATOM     21  H   UNL     1      38.276 -24.508 -15.181  0.00  0.00    +0.211 HD
ENDBRANCH   3  20
BRANCH   5  22
ATOM     22  C   UNL     1      34.909 -23.699 -13.839  0.00  0.00    +0.206 C 
BRANCH  22  23
ATOM     23  O   UNL     1      34.878 -24.702 -12.838  0.00  0.00    -0.227 OA
BRANCH  23  24
ATOM     24  S   UNL     1      35.899 -24.613 -11.561  0.00  0.00    +0.045 S 
ATOM     25  O   UNL     1      36.533 -23.307 -11.568  0.00  0.00    -0.056 OA
ATOM     26  O   UNL     1      35.166 -25.058 -10.389  0.00  0.00    -0.056 OA
BRANCH  24  27
ATOM     27  N   UNL     1      37.097 -25.791 -11.904  0.00  0.00    -0.204 NA
ATOM     28  H   UNL     1      36.826 -26.320 -12.733  0.00  0.00    +0.144 HD
ATOM     29  H   UNL     1      37.189 -26.425 -11.111  0.00  0.00    +0.144 HD
ENDBRANCH  24  27
ENDBRANCH  23  24
ENDBRANCH  22  23
ENDBRANCH   5  22
TORSDOF 7
ENDMDL
MODEL 9
REMARK VINA RESULT:      -8.9      4.287      6.720
REMARK  Name = 97576
REMARK  7 active torsions:
REMARK  status: ('A' for Active; 'I' for Inactive)
REMARK    1  A    between atoms: C_2  and  O_18
REMARK    2  A    between atoms: C_3  and  O_20
REMARK    3  A    between atoms: C_4  and  N_6
REMARK    4  A    between atoms: C_5  and  C_22
REMARK    5  A    between atoms: C_22  and  O_23
REMARK    6  A    between atoms: O_23  and  S_24
REMARK    7  A    between atoms: S_24  and  N_27
REMARK                            x       y       z     vdW  Elec       q    Type
REMARK                         _______ _______ _______ _____ _____    ______ ____
ROOT
ATOM      1  O   UNL     1      35.787 -24.984 -15.780  0.00  0.00    -0.333 OA
ATOM      2  C   UNL     1      36.331 -22.723 -15.331  0.00  0.00    +0.187 C 
ATOM      3  C   UNL     1      37.434 -23.595 -14.766  0.00  0.00    +0.171 C 
ATOM      4  C   UNL     1      35.692 -23.661 -16.343  0.00  0.00    +0.225 C 
ATOM      5  C   UNL     1      36.771 -24.968 -14.719  0.00  0.00    +0.178 C 
ENDROOT
BRANCH   4   6
ATOM      6  N   UNL     1      34.295 -23.354 -16.642  0.00  0.00    -0.247 N 
ATOM      7  N   UNL     1      32.500 -22.722 -17.808  0.00  0.00    -0.242 NA
ATOM      8  N   UNL     1      33.248 -23.840 -14.503  0.00  0.00    -0.228 NA
ATOM      9  N   UNL     1      30.842 -23.445 -14.582  0.00  0.00    -0.229 NA
ATOM     10  C   UNL     1      33.232 -23.449 -15.786  0.00  0.00    +0.152 C 
ATOM     11  C   UNL     1      33.803 -22.912 -17.843  0.00  0.00    +0.223 C 
ATOM     12  C   UNL     1      32.131 -23.054 -16.528  0.00  0.00    +0.140 C 
ATOM     13  C   UNL     1      30.900 -23.060 -15.879  0.00  0.00    +0.143 C 
ATOM     14  C   UNL     1      32.003 -23.805 -13.983  0.00  0.00    +0.253 C 
ATOM     15  N   UNL     1      29.729 -22.676 -16.557  0.00  0.00    -0.342 N 
ATOM     16  H   UNL     1      28.865 -22.684 -16.087  0.00  0.00    +0.144 HD
ATOM     17  H   UNL     1      29.776 -22.398 -17.500  0.00  0.00    +0.144 HD
ENDBRANCH   4   6
BRANCH   2  18
ATOM     18  O   UNL     1      36.815 -21.543 -15.939  0.00  0.00    -0.378 OA
ATOM     19  H   UNL     1      36.374 -20.773 -15.546  0.00  0.00    +0.211 HD
ENDBRANCH   2  18
BRANCH   3  20
ATOM     20  O   UNL     1      38.524 -23.641 -15.686  0.00  0.00    -0.379 OA
ATOM     21  H   UNL     1      39.041 -22.823 -15.615  0.00  0.00    +0.211 HD
ENDBRANCH   3  20
BRANCH   5  22
ATOM     22  C   UNL     1      36.060 -25.240 -13.401  0.00  0.00    +0.206 C 
BRANCH  22  23
ATOM     23  O   UNL     1      36.873 -24.768 -12.341  0.00  0.00    -0.227 OA
BRANCH  23  24
ATOM     24  S   UNL     1      36.279 -23.667 -11.284  0.00  0.00    +0.045 S 
ATOM     25  O   UNL     1      36.149 -24.299  -9.984  0.00  0.00    -0.056 OA
ATOM     26  O   UNL     1      37.070 -22.459 -11.428  0.00  0.00    -0.056 OA
BRANCH  24  27
ATOM     27  N   UNL     1      34.704 -23.332 -11.875  0.00  0.00    -0.204 NA
ATOM     28  H   UNL     1      34.714 -22.452 -12.391  0.00  0.00    +0.144 HD
ATOM     29  H   UNL     1      34.054 -23.261 -11.093  0.00  0.00    +0.144 HD
ENDBRANCH  24  27
ENDBRANCH  23  24
ENDBRANCH  22  23
ENDBRANCH   5  22
TORSDOF 7
ENDMDL
