MODEL 1
REMARK VINA RESULT:      -7.0      0.000      0.000
REMARK  Name = 7464
REMARK  2 active torsions:
REMARK  status: ('A' for Active; 'I' for Inactive)
REMARK    1  A    between atoms: C_1  and  C_10
REMARK    2  A    between atoms: C_6  and  N_7
REMARK                            x       y       z     vdW  Elec       q    Type
REMARK                         _______ _______ _______ _____ _____    ______ ____
ROOT
ATOM      1  C   UNL     1      34.856 -19.467 -21.084  0.00  0.00    -0.022 C 
ATOM      2  C   UNL     1      33.467 -19.483 -20.963  0.00  0.00    -0.003 C 
ATOM      3  C   UNL     1      35.625 -20.429 -20.429  0.00  0.00    -0.003 C 
ATOM      4  C   UNL     1      32.847 -20.462 -20.186  0.00  0.00    +0.014 C 
ATOM      5  C   UNL     1      35.005 -21.407 -19.653  0.00  0.00    +0.014 C 
ATOM      6  C   UNL     1      33.616 -21.424 -19.531  0.00  0.00    +0.042 C 
ENDROOT
BRANCH   6   7
ATOM      7  N   UNL     1      32.988 -22.413 -18.746  0.00  0.00    -0.357 N 
ATOM      8  H   UNL     1      32.005 -22.477 -18.728  0.00  0.00    +0.142 HD
ATOM      9  H   UNL     1      33.532 -23.040 -18.217  0.00  0.00    +0.142 HD
ENDBRANCH   6   7
BRANCH   1  10
ATOM     10  C   UNL     1      35.521 -18.421 -21.914  0.00  0.00    +0.022 C 
ATOM     11  C   UNL     1      35.074 -16.997 -21.537  0.00  0.00    +0.005 C 
ATOM     12  C   UNL     1      35.319 -18.650 -23.424  0.00  0.00    +0.005 C 
ENDBRANCH   1  10
TORSDOF 2
ENDMDL
MODEL 2
REMARK VINA RESULT:      -7.0      0.008      1.528
REMARK  Name = 7464
REMARK  2 active torsions:
REMARK  status: ('A' for Active; 'I' for Inactive)
REMARK    1  A    between atoms: C_1  and  C_10
REMARK    2  A    between atoms: C_6  and  N_7
REMARK                            x       y       z     vdW  Elec       q    Type
REMARK                         _______ _______ _______ _____ _____    ______ ____
ROOT
ATOM      1  C   UNL     1      34.861 -19.473 -21.079  0.00  0.00    -0.022 C 
ATOM      2  C   UNL     1      35.628 -20.436 -20.424  0.00  0.00    -0.003 C 
ATOM      3  C   UNL     1      33.471 -19.489 -20.959  0.00  0.00    -0.003 C 
ATOM      4  C   UNL     1      35.006 -21.413 -19.648  0.00  0.00    +0.014 C 
ATOM      5  C   UNL     1      32.849 -20.467 -20.183  0.00  0.00    +0.014 C 
ATOM      6  C   UNL     1      33.616 -21.429 -19.528  0.00  0.00    +0.042 C 
ENDROOT
BRANCH   6   7
ATOM      7  N   UNL     1      32.988 -22.418 -18.743  0.00  0.00    -0.357 N 
ATOM      8  H   UNL     1      32.959 -23.351 -19.057  0.00  0.00    +0.142 HD
ATOM      9  H   UNL     1      32.578 -22.176 -17.882  0.00  0.00    +0.142 HD
ENDBRANCH   6   7
BRANCH   1  10
ATOM     10  C   UNL     1      35.525 -18.427 -21.909  0.00  0.00    +0.022 C 
ATOM     11  C   UNL     1      35.077 -17.003 -21.531  0.00  0.00    +0.005 C 
ATOM     12  C   UNL     1      35.321 -18.655 -23.419  0.00  0.00    +0.005 C 
ENDBRANCH   1  10
TORSDOF 2
ENDMDL
MODEL 3
REMARK VINA RESULT:      -6.4      2.363      4.202
REMARK  Name = 7464
REMARK  2 active torsions:
REMARK  status: ('A' for Active; 'I' for Inactive)
REMARK    1  A    between atoms: C_1  and  C_10
REMARK    2  A    between atoms: C_6  and  N_7
REMARK                            x       y       z     vdW  Elec       q    Type
REMARK                         _______ _______ _______ _____ _____    ______ ____
ROOT
ATOM      1  C   UNL     1      35.261 -20.679 -20.089  0.00  0.00    -0.022 C 
ATOM      2  C   UNL     1      34.006 -20.211 -20.476  0.00  0.00    -0.003 C 
ATOM      3  C   UNL     1      36.410 -19.972 -20.445  0.00  0.00    -0.003 C 
ATOM      4  C   UNL     1      33.900 -19.035 -21.219  0.00  0.00    +0.014 C 
ATOM      5  C   UNL     1      36.303 -18.797 -21.188  0.00  0.00    +0.014 C 
ATOM      6  C   UNL     1      35.049 -18.328 -21.575  0.00  0.00    +0.042 C 
ENDROOT
BRANCH   6   7
ATOM      7  N   UNL     1      34.941 -17.139 -22.326  0.00  0.00    -0.357 N 
ATOM      8  H   UNL     1      34.259 -16.469 -22.092  0.00  0.00    +0.142 HD
ATOM      9  H   UNL     1      35.547 -16.980 -23.086  0.00  0.00    +0.142 HD
ENDBRANCH   6   7
BRANCH   1  10
ATOM     10  C   UNL     1      35.377 -21.937 -19.294  0.00  0.00    +0.022 C 
ATOM     11  C   UNL     1      34.014 -22.437 -18.782  0.00  0.00    +0.005 C 
ATOM     12  C   UNL     1      36.361 -21.801 -18.117  0.00  0.00    +0.005 C 
ENDBRANCH   1  10
TORSDOF 2
ENDMDL
MODEL 4
REMARK VINA RESULT:      -6.4      2.981      4.748
REMARK  Name = 7464
REMARK  2 active torsions:
REMARK  status: ('A' for Active; 'I' for Inactive)
REMARK    1  A    between atoms: C_1  and  C_10
REMARK    2  A    between atoms: C_6  and  N_7
REMARK                            x       y       z     vdW  Elec       q    Type
REMARK                         _______ _______ _______ _____ _____    ______ ____
ROOT
ATOM      1  C   UNL     1      34.660 -18.889 -21.766  0.00  0.00    -0.022 C 
ATOM      2  C   UNL     1      34.806 -17.506 -21.658  0.00  0.00    -0.003 C 
ATOM      3  C   UNL     1      34.658 -19.494 -23.023  0.00  0.00    -0.003 C 
ATOM      4  C   UNL     1      34.949 -16.729 -22.808  0.00  0.00    +0.014 C 
ATOM      5  C   UNL     1      34.801 -18.717 -24.172  0.00  0.00    +0.014 C 
ATOM      6  C   UNL     1      34.947 -17.334 -24.065  0.00  0.00    +0.042 C 
ENDROOT
BRANCH   6   7
ATOM      7  N   UNL     1      35.092 -16.547 -25.226  0.00  0.00    -0.357 N 
ATOM      8  H   UNL     1      35.027 -15.567 -25.168  0.00  0.00    +0.142 HD
ATOM      9  H   UNL     1      35.259 -16.979 -26.095  0.00  0.00    +0.142 HD
ENDBRANCH   6   7
BRANCH   1  10
ATOM     10  C   UNL     1      34.507 -19.722 -20.538  0.00  0.00    +0.022 C 
ATOM     11  C   UNL     1      35.629 -20.765 -20.390  0.00  0.00    +0.005 C 
ATOM     12  C   UNL     1      33.134 -20.417 -20.466  0.00  0.00    +0.005 C 
ENDBRANCH   1  10
TORSDOF 2
ENDMDL
MODEL 5
REMARK VINA RESULT:      -6.4      2.942      4.741
REMARK  Name = 7464
REMARK  2 active torsions:
REMARK  status: ('A' for Active; 'I' for Inactive)
REMARK    1  A    between atoms: C_1  and  C_10
REMARK    2  A    between atoms: C_6  and  N_7
REMARK                            x       y       z     vdW  Elec       q    Type
REMARK                         _______ _______ _______ _____ _____    ______ ____
ROOT
ATOM      1  C   UNL     1      34.671 -18.947 -21.655  0.00  0.00    -0.022 C 
ATOM      2  C   UNL     1      34.708 -19.520 -22.926  0.00  0.00    -0.003 C 
ATOM      3  C   UNL     1      34.784 -17.564 -21.509  0.00  0.00    -0.003 C 
ATOM      4  C   UNL     1      34.857 -18.709 -24.051  0.00  0.00    +0.014 C 
ATOM      5  C   UNL     1      34.934 -16.755 -22.634  0.00  0.00    +0.014 C 
ATOM      6  C   UNL     1      34.970 -17.326 -23.905  0.00  0.00    +0.042 C 
ENDROOT
BRANCH   6   7
ATOM      7  N   UNL     1      35.122 -16.508 -25.043  0.00  0.00    -0.357 N 
ATOM      8  H   UNL     1      36.009 -16.155 -25.282  0.00  0.00    +0.142 HD
ATOM      9  H   UNL     1      34.339 -16.289 -25.600  0.00  0.00    +0.142 HD
ENDBRANCH   6   7
BRANCH   1  10
ATOM     10  C   UNL     1      34.511 -19.813 -20.450  0.00  0.00    +0.022 C 
ATOM     11  C   UNL     1      35.623 -20.872 -20.334  0.00  0.00    +0.005 C 
ATOM     12  C   UNL     1      33.131 -20.495 -20.394  0.00  0.00    +0.005 C 
ENDBRANCH   1  10
TORSDOF 2
ENDMDL
MODEL 6
REMARK VINA RESULT:      -6.2      3.396      5.140
REMARK  Name = 7464
REMARK  2 active torsions:
REMARK  status: ('A' for Active; 'I' for Inactive)
REMARK    1  A    between atoms: C_1  and  C_10
REMARK    2  A    between atoms: C_6  and  N_7
REMARK                            x       y       z     vdW  Elec       q    Type
REMARK                         _______ _______ _______ _____ _____    ______ ____
ROOT
ATOM      1  C   UNL     1      34.840 -18.555 -22.753  0.00  0.00    -0.022 C 
ATOM      2  C   UNL     1      34.708 -17.209 -22.411  0.00  0.00    -0.003 C 
ATOM      3  C   UNL     1      34.681 -18.956 -24.079  0.00  0.00    -0.003 C 
ATOM      4  C   UNL     1      34.417 -16.266 -23.396  0.00  0.00    +0.014 C 
ATOM      5  C   UNL     1      34.390 -18.013 -25.064  0.00  0.00    +0.014 C 
ATOM      6  C   UNL     1      34.258 -16.667 -24.723  0.00  0.00    +0.042 C 
ENDROOT
BRANCH   6   7
ATOM      7  N   UNL     1      33.963 -15.712 -25.718  0.00  0.00    -0.357 N 
ATOM      8  H   UNL     1      33.458 -14.900 -25.486  0.00  0.00    +0.142 HD
ATOM      9  H   UNL     1      34.263 -15.858 -26.644  0.00  0.00    +0.142 HD
ENDBRANCH   6   7
BRANCH   1  10
ATOM     10  C   UNL     1      35.151 -19.565 -21.701  0.00  0.00    +0.022 C 
ATOM     11  C   UNL     1      33.950 -19.844 -20.778  0.00  0.00    +0.005 C 
ATOM     12  C   UNL     1      36.381 -19.178 -20.857  0.00  0.00    +0.005 C 
ENDBRANCH   1  10
TORSDOF 2
ENDMDL
MODEL 7
REMARK VINA RESULT:      -6.2      2.343      4.715
REMARK  Name = 7464
REMARK  2 active torsions:
REMARK  status: ('A' for Active; 'I' for Inactive)
REMARK    1  A    between atoms: C_1  and  C_10
REMARK    2  A    between atoms: C_6  and  N_7
REMARK                            x       y       z     vdW  Elec       q    Type
REMARK                         _______ _______ _______ _____ _____    ______ ____
ROOT
ATOM      1  C   UNL     1      34.080 -22.049 -18.773  0.00  0.00    -0.022 C 
ATOM      2  C   UNL     1      33.101 -21.308 -19.434  0.00  0.00    -0.003 C 
ATOM      3  C   UNL     1      35.428 -21.843 -19.066  0.00  0.00    -0.003 C 
ATOM      4  C   UNL     1      33.470 -20.361 -20.389  0.00  0.00    +0.014 C 
ATOM      5  C   UNL     1      35.797 -20.895 -20.021  0.00  0.00    +0.014 C 
ATOM      6  C   UNL     1      34.819 -20.154 -20.682  0.00  0.00    +0.042 C 
ENDROOT
BRANCH   6   7
ATOM      7  N   UNL     1      35.191 -19.196 -21.648  0.00  0.00    -0.357 N 
ATOM      8  H   UNL     1      34.931 -18.253 -21.532  0.00  0.00    +0.142 HD
ATOM      9  H   UNL     1      35.710 -19.470 -22.438  0.00  0.00    +0.142 HD
ENDBRANCH   6   7
BRANCH   1  10
ATOM     10  C   UNL     1      33.687 -23.063 -17.751  0.00  0.00    +0.022 C 
ATOM     11  C   UNL     1      32.243 -22.867 -17.253  0.00  0.00    +0.005 C 
ATOM     12  C   UNL     1      34.654 -23.097 -16.553  0.00  0.00    +0.005 C 
ENDBRANCH   1  10
TORSDOF 2
ENDMDL
MODEL 8
REMARK VINA RESULT:      -6.1      3.520      5.351
REMARK  Name = 7464
REMARK  2 active torsions:
REMARK  status: ('A' for Active; 'I' for Inactive)
REMARK    1  A    between atoms: C_1  and  C_10
REMARK    2  A    between atoms: C_6  and  N_7
REMARK                            x       y       z     vdW  Elec       q    Type
REMARK                         _______ _______ _______ _____ _____    ______ ____
ROOT
ATOM      1  C   UNL     1      34.856 -17.511 -22.069  0.00  0.00    -0.022 C 
ATOM      2  C   UNL     1      34.883 -17.132 -23.411  0.00  0.00    -0.003 C 
ATOM      3  C   UNL     1      34.641 -16.554 -21.078  0.00  0.00    -0.003 C 
ATOM      4  C   UNL     1      34.697 -15.794 -23.761  0.00  0.00    +0.014 C 
ATOM      5  C   UNL     1      34.455 -15.217 -21.428  0.00  0.00    +0.014 C 
ATOM      6  C   UNL     1      34.483 -14.837 -22.769  0.00  0.00    +0.042 C 
ENDROOT
BRANCH   6   7
ATOM      7  N   UNL     1      34.294 -13.485 -23.124  0.00  0.00    -0.357 N 
ATOM      8  H   UNL     1      35.072 -12.912 -23.311  0.00  0.00    +0.142 HD
ATOM      9  H   UNL     1      33.384 -13.114 -23.185  0.00  0.00    +0.142 HD
ENDBRANCH   6   7
BRANCH   1  10
ATOM     10  C   UNL     1      35.055 -18.941 -21.693  0.00  0.00    +0.022 C 
ATOM     11  C   UNL     1      33.848 -19.525 -20.936  0.00  0.00    +0.005 C 
ATOM     12  C   UNL     1      36.342 -19.161 -20.876  0.00  0.00    +0.005 C 
ENDBRANCH   1  10
TORSDOF 2
ENDMDL
MODEL 9
REMARK VINA RESULT:      -6.1      3.501      5.332
REMARK  Name = 7464
REMARK  2 active torsions:
REMARK  status: ('A' for Active; 'I' for Inactive)
REMARK    1  A    between atoms: C_1  and  C_10
REMARK    2  A    between atoms: C_6  and  N_7
REMARK                            x       y       z     vdW  Elec       q    Type
REMARK                         _______ _______ _______ _____ _____    ______ ____
ROOT
ATOM      1  C   UNL     1      34.882 -17.537 -22.033  0.00  0.00    -0.022 C 
ATOM      2  C   UNL     1      34.653 -16.579 -21.045  0.00  0.00    -0.003 C 
ATOM      3  C   UNL     1      34.917 -17.159 -23.375  0.00  0.00    -0.003 C 
ATOM      4  C   UNL     1      34.460 -15.244 -21.400  0.00  0.00    +0.014 C 
ATOM      5  C   UNL     1      34.724 -15.825 -23.730  0.00  0.00    +0.014 C 
ATOM      6  C   UNL     1      34.495 -14.867 -22.743  0.00  0.00    +0.042 C 
ENDROOT
BRANCH   6   7
ATOM      7  N   UNL     1      34.300 -13.517 -23.101  0.00  0.00    -0.357 N 
ATOM      8  H   UNL     1      35.022 -12.862 -22.965  0.00  0.00    +0.142 HD
ATOM      9  H   UNL     1      33.441 -13.230 -23.486  0.00  0.00    +0.142 HD
ENDBRANCH   6   7
BRANCH   1  10
ATOM     10  C   UNL     1      35.089 -18.965 -21.654  0.00  0.00    +0.022 C 
ATOM     11  C   UNL     1      33.895 -19.547 -20.875  0.00  0.00    +0.005 C 
ATOM     12  C   UNL     1      36.389 -19.181 -20.857  0.00  0.00    +0.005 C 
ENDBRANCH   1  10
TORSDOF 2
ENDMDL
