MODEL 1
REMARK VINA RESULT:      -9.6      0.000      0.000
REMARK  Name = 5281104
REMARK  8 active torsions:
REMARK  status: ('A' for Active; 'I' for Inactive)
REMARK    1  A    between atoms: C_2  and  C_23
REMARK    2  A    between atoms: C_11  and  C_12
REMARK    3  A    between atoms: C_16  and  O_19
REMARK    4  A    between atoms: C_17  and  O_21
REMARK    5  A    between atoms: C_23  and  C_25
REMARK    6  A    between atoms: C_26  and  C_27
REMARK    7  A    between atoms: C_27  and  C_29
REMARK    8  A    between atoms: C_29  and  O_32
REMARK                            x       y       z     vdW  Elec       q    Type
REMARK                         _______ _______ _______ _____ _____    ______ ____
ROOT
ATOM      1  C   UNL     1      32.058  -7.874 -21.881  0.00  0.00    +0.004 C 
ATOM      2  C   UNL     1      31.359  -6.836 -22.793  0.00  0.00    +0.004 C 
ATOM      3  C   UNL     1      31.100  -9.074 -22.081  0.00  0.00    +0.018 C 
ATOM      4  C   UNL     1      30.940  -7.655 -24.037  0.00  0.00    +0.001 C 
ATOM      5  C   UNL     1      30.917  -9.131 -23.598  0.00  0.00    +0.004 C 
ATOM      6  C   UNL     1      32.067  -7.499 -20.385  0.00  0.00    +0.001 C 
ATOM      7  C   UNL     1      31.542 -10.267 -21.275  0.00  0.00    -0.045 C 
ATOM      8  C   UNL     1      33.505  -8.160 -22.356  0.00  0.00    +0.000 C 
ATOM      9  C   UNL     1      32.463  -8.696 -19.502  0.00  0.00    +0.004 C 
ATOM     10  C   UNL     1      31.646  -9.965 -19.794  0.00  0.00    +0.022 C 
ATOM     11  C   UNL     1      31.817 -11.478 -21.779  0.00  0.00    -0.009 C 
ENDROOT
BRANCH  11  12
ATOM     12  C   UNL     1      32.231 -12.595 -20.968  0.00  0.00    -0.009 C 
ATOM     13  C   UNL     1      32.552 -13.794 -21.477  0.00  0.00    -0.039 C 
ATOM     14  C   UNL     1      32.981 -14.946 -20.610  0.00  0.00    +0.051 C 
ATOM     15  C   UNL     1      32.534 -14.076 -22.959  0.00  0.00    +0.051 C 
ATOM     16  C   UNL     1      34.330 -15.501 -21.072  0.00  0.00    +0.117 C 
ATOM     17  C   UNL     1      33.865 -14.671 -23.432  0.00  0.00    +0.117 C 
ATOM     18  C   UNL     1      34.311 -15.851 -22.565  0.00  0.00    +0.059 C 
BRANCH  16  19
ATOM     19  O   UNL     1      34.621 -16.672 -20.315  0.00  0.00    -0.384 OA
ATOM     20  H   UNL     1      35.240 -16.449 -19.603  0.00  0.00    +0.210 HD
ENDBRANCH  16  19
BRANCH  17  21
ATOM     21  O   UNL     1      34.880 -13.668 -23.404  0.00  0.00    -0.384 OA
ATOM     22  H   UNL     1      34.711 -13.018 -24.104  0.00  0.00    +0.210 HD
ENDBRANCH  17  21
ENDBRANCH  11  12
BRANCH   2  23
ATOM     23  C   UNL     1      32.162  -5.592 -23.146  0.00  0.00    +0.022 C 
ATOM     24  C   UNL     1      31.294  -4.336 -23.043  0.00  0.00    +0.005 C 
BRANCH  23  25
ATOM     25  C   UNL     1      32.732  -5.710 -24.538  0.00  0.00    -0.031 C 
ATOM     26  C   UNL     1      32.553  -4.789 -25.498  0.00  0.00    -0.029 C 
BRANCH  26  27
ATOM     27  C   UNL     1      33.129  -4.908 -26.892  0.00  0.00    +0.046 C 
ATOM     28  C   UNL     1      34.634  -5.188 -26.787  0.00  0.00    +0.007 C 
BRANCH  27  29
ATOM     29  C   UNL     1      32.800  -3.685 -27.802  0.00  0.00    +0.092 C 
ATOM     30  C   UNL     1      31.710  -2.766 -27.238  0.00  0.00    +0.030 C 
ATOM     31  C   UNL     1      32.409  -4.125 -29.220  0.00  0.00    +0.030 C 
BRANCH  29  32
ATOM     32  O   UNL     1      33.983  -2.883 -27.927  0.00  0.00    -0.386 OA
ATOM     33  H   UNL     1      33.887  -2.080 -27.392  0.00  0.00    +0.210 HD
ENDBRANCH  29  32
ENDBRANCH  27  29
ENDBRANCH  26  27
ENDBRANCH  23  25
ENDBRANCH   2  23
TORSDOF 8
ENDMDL
MODEL 2
REMARK VINA RESULT:      -9.4      4.198     12.002
REMARK  Name = 5281104
REMARK  8 active torsions:
REMARK  status: ('A' for Active; 'I' for Inactive)
REMARK    1  A    between atoms: C_2  and  C_23
REMARK    2  A    between atoms: C_11  and  C_12
REMARK    3  A    between atoms: C_16  and  O_19
REMARK    4  A    between atoms: C_17  and  O_21
REMARK    5  A    between atoms: C_23  and  C_25
REMARK    6  A    between atoms: C_26  and  C_27
REMARK    7  A    between atoms: C_27  and  C_29
REMARK    8  A    between atoms: C_29  and  O_32
REMARK                            x       y       z     vdW  Elec       q    Type
REMARK                         _______ _______ _______ _____ _____    ______ ____
ROOT
ATOM      1  C   UNL     1      33.945 -15.891 -22.837  0.00  0.00    +0.004 C 
ATOM      2  C   UNL     1      33.803 -17.307 -22.228  0.00  0.00    +0.004 C 
ATOM      3  C   UNL     1      32.677 -15.229 -22.242  0.00  0.00    +0.018 C 
ATOM      4  C   UNL     1      33.332 -17.045 -20.778  0.00  0.00    +0.001 C 
ATOM      5  C   UNL     1      32.732 -15.626 -20.766  0.00  0.00    +0.004 C 
ATOM      6  C   UNL     1      33.843 -15.848 -24.375  0.00  0.00    +0.001 C 
ATOM      7  C   UNL     1      32.546 -13.797 -22.689  0.00  0.00    -0.045 C 
ATOM      8  C   UNL     1      35.261 -15.209 -22.382  0.00  0.00    +0.000 C 
ATOM      9  C   UNL     1      33.656 -14.410 -24.892  0.00  0.00    +0.004 C 
ATOM     10  C   UNL     1      32.509 -13.658 -24.198  0.00  0.00    +0.022 C 
ATOM     11  C   UNL     1      32.463 -12.739 -21.872  0.00  0.00    -0.009 C 
ENDROOT
BRANCH  11  12
ATOM     12  C   UNL     1      32.331 -11.384 -22.344  0.00  0.00    -0.009 C 
ATOM     13  C   UNL     1      31.704 -10.422 -21.652  0.00  0.00    -0.039 C 
ATOM     14  C   UNL     1      31.578  -9.013 -22.166  0.00  0.00    +0.051 C 
ATOM     15  C   UNL     1      31.097 -10.666 -20.292  0.00  0.00    +0.051 C 
ATOM     16  C   UNL     1      32.118  -8.012 -21.144  0.00  0.00    +0.117 C 
ATOM     17  C   UNL     1      31.597  -9.645 -19.265  0.00  0.00    +0.117 C 
ATOM     18  C   UNL     1      31.466  -8.207 -19.770  0.00  0.00    +0.059 C 
BRANCH  16  19
ATOM     19  O   UNL     1      31.847  -6.695 -21.614  0.00  0.00    -0.384 OA
ATOM     20  H   UNL     1      32.229  -6.048 -21.001  0.00  0.00    +0.210 HD
ENDBRANCH  16  19
BRANCH  17  21
ATOM     21  O   UNL     1      32.965  -9.903 -18.952  0.00  0.00    -0.384 OA
ATOM     22  H   UNL     1      33.473  -9.992 -19.774  0.00  0.00    +0.210 HD
ENDBRANCH  17  21
ENDBRANCH  11  12
BRANCH   2  23
ATOM     23  C   UNL     1      35.031 -18.203 -22.299  0.00  0.00    +0.022 C 
ATOM     24  C   UNL     1      34.890 -19.233 -23.422  0.00  0.00    +0.005 C 
BRANCH  23  25
ATOM     25  C   UNL     1      35.247 -18.906 -20.981  0.00  0.00    -0.031 C 
ATOM     26  C   UNL     1      35.288 -20.241 -20.844  0.00  0.00    -0.029 C 
BRANCH  26  27
ATOM     27  C   UNL     1      35.509 -20.943 -19.524  0.00  0.00    +0.046 C 
ATOM     28  C   UNL     1      36.921 -21.544 -19.509  0.00  0.00    +0.007 C 
BRANCH  27  29
ATOM     29  C   UNL     1      34.400 -21.986 -19.185  0.00  0.00    +0.092 C 
ATOM     30  C   UNL     1      32.976 -21.487 -19.456  0.00  0.00    +0.030 C 
ATOM     31  C   UNL     1      34.502 -22.468 -17.731  0.00  0.00    +0.030 C 
BRANCH  29  32
ATOM     32  O   UNL     1      34.592 -23.137 -20.020  0.00  0.00    -0.386 OA
ATOM     33  H   UNL     1      35.301 -22.959 -20.658  0.00  0.00    +0.210 HD
ENDBRANCH  29  32
ENDBRANCH  27  29
ENDBRANCH  26  27
ENDBRANCH  23  25
ENDBRANCH   2  23
TORSDOF 8
ENDMDL
MODEL 3
REMARK VINA RESULT:      -9.0      2.001      9.934
REMARK  Name = 5281104
REMARK  8 active torsions:
REMARK  status: ('A' for Active; 'I' for Inactive)
REMARK    1  A    between atoms: C_2  and  C_23
REMARK    2  A    between atoms: C_11  and  C_12
REMARK    3  A    between atoms: C_16  and  O_19
REMARK    4  A    between atoms: C_17  and  O_21
REMARK    5  A    between atoms: C_23  and  C_25
REMARK    6  A    between atoms: C_26  and  C_27
REMARK    7  A    between atoms: C_27  and  C_29
REMARK    8  A    between atoms: C_29  and  O_32
REMARK                            x       y       z     vdW  Elec       q    Type
REMARK                         _______ _______ _______ _____ _____    ______ ____
ROOT
ATOM      1  C   UNL     1      32.214 -11.475 -22.080  0.00  0.00    +0.004 C 
ATOM      2  C   UNL     1      33.150 -12.654 -22.439  0.00  0.00    +0.004 C 
ATOM      3  C   UNL     1      32.912 -10.344 -22.874  0.00  0.00    +0.018 C 
ATOM      4  C   UNL     1      33.447 -12.451 -23.944  0.00  0.00    +0.001 C 
ATOM      5  C   UNL     1      33.146 -10.971 -24.250  0.00  0.00    +0.004 C 
ATOM      6  C   UNL     1      32.216 -11.095 -20.585  0.00  0.00    +0.001 C 
ATOM      7  C   UNL     1      32.199  -9.030 -22.697  0.00  0.00    -0.045 C 
ATOM      8  C   UNL     1      30.760 -11.744 -22.547  0.00  0.00    +0.000 C 
ATOM      9  C   UNL     1      31.544  -9.732 -20.344  0.00  0.00    +0.004 C 
ATOM     10  C   UNL     1      32.095  -8.614 -21.244  0.00  0.00    +0.022 C 
ATOM     11  C   UNL     1      31.703  -8.281 -23.691  0.00  0.00    -0.009 C 
ENDROOT
BRANCH  11  12
ATOM     12  C   UNL     1      31.033  -7.024 -23.476  0.00  0.00    -0.009 C 
ATOM     13  C   UNL     1      31.590  -5.836 -23.754  0.00  0.00    -0.039 C 
ATOM     14  C   UNL     1      30.871  -4.536 -23.520  0.00  0.00    +0.051 C 
ATOM     15  C   UNL     1      32.972  -5.708 -24.348  0.00  0.00    +0.051 C 
ATOM     16  C   UNL     1      30.835  -3.697 -24.798  0.00  0.00    +0.117 C 
ATOM     17  C   UNL     1      32.961  -4.836 -25.608  0.00  0.00    +0.117 C 
ATOM     18  C   UNL     1      32.240  -3.505 -25.383  0.00  0.00    +0.059 C 
BRANCH  16  19
ATOM     19  O   UNL     1      30.274  -2.425 -24.489  0.00  0.00    -0.384 OA
ATOM     20  H   UNL     1      29.733  -2.497 -23.687  0.00  0.00    +0.210 HD
ENDBRANCH  16  19
BRANCH  17  21
ATOM     21  O   UNL     1      32.319  -5.534 -26.674  0.00  0.00    -0.384 OA
ATOM     22  H   UNL     1      32.302  -6.484 -26.475  0.00  0.00    +0.210 HD
ENDBRANCH  17  21
ENDBRANCH  11  12
BRANCH   2  23
ATOM     23  C   UNL     1      32.636 -14.051 -22.120  0.00  0.00    +0.022 C 
ATOM     24  C   UNL     1      32.879 -14.398 -20.650  0.00  0.00    +0.005 C 
BRANCH  23  25
ATOM     25  C   UNL     1      33.305 -15.073 -23.007  0.00  0.00    -0.031 C 
ATOM     26  C   UNL     1      34.493 -15.635 -22.734  0.00  0.00    -0.029 C 
BRANCH  26  27
ATOM     27  C   UNL     1      35.159 -16.662 -23.621  0.00  0.00    +0.046 C 
ATOM     28  C   UNL     1      34.382 -16.758 -24.942  0.00  0.00    +0.007 C 
BRANCH  27  29
ATOM     29  C   UNL     1      35.353 -18.046 -22.928  0.00  0.00    +0.092 C 
ATOM     30  C   UNL     1      34.824 -19.230 -23.745  0.00  0.00    +0.030 C 
ATOM     31  C   UNL     1      34.721 -18.070 -21.529  0.00  0.00    +0.030 C 
BRANCH  29  32
ATOM     32  O   UNL     1      36.760 -18.270 -22.753  0.00  0.00    -0.386 OA
ATOM     33  H   UNL     1      36.897 -19.107 -22.281  0.00  0.00    +0.210 HD
ENDBRANCH  29  32
ENDBRANCH  27  29
ENDBRANCH  26  27
ENDBRANCH  23  25
ENDBRANCH   2  23
TORSDOF 8
ENDMDL
MODEL 4
REMARK VINA RESULT:      -8.8      3.649     11.892
REMARK  Name = 5281104
REMARK  8 active torsions:
REMARK  status: ('A' for Active; 'I' for Inactive)
REMARK    1  A    between atoms: C_2  and  C_23
REMARK    2  A    between atoms: C_11  and  C_12
REMARK    3  A    between atoms: C_16  and  O_19
REMARK    4  A    between atoms: C_17  and  O_21
REMARK    5  A    between atoms: C_23  and  C_25
REMARK    6  A    between atoms: C_26  and  C_27
REMARK    7  A    between atoms: C_27  and  C_29
REMARK    8  A    between atoms: C_29  and  O_32
REMARK                            x       y       z     vdW  Elec       q    Type
REMARK                         _______ _______ _______ _____ _____    ______ ____
ROOT
ATOM      1  C   UNL     1      33.681 -15.265 -22.461  0.00  0.00    +0.004 C 
ATOM      2  C   UNL     1      33.274 -16.474 -21.585  0.00  0.00    +0.004 C 
ATOM      3  C   UNL     1      32.469 -14.338 -22.196  0.00  0.00    +0.018 C 
ATOM      4  C   UNL     1      32.702 -15.829 -20.300  0.00  0.00    +0.001 C 
ATOM      5  C   UNL     1      32.316 -14.386 -20.674  0.00  0.00    +0.004 C 
ATOM      6  C   UNL     1      33.742 -15.568 -23.972  0.00  0.00    +0.001 C 
ATOM      7  C   UNL     1      32.593 -13.044 -22.955  0.00  0.00    -0.045 C 
ATOM      8  C   UNL     1      35.029 -14.658 -21.996  0.00  0.00    +0.000 C 
ATOM      9  C   UNL     1      33.819 -14.278 -24.808  0.00  0.00    +0.004 C 
ATOM     10  C   UNL     1      32.729 -13.255 -24.449  0.00  0.00    +0.022 C 
ATOM     11  C   UNL     1      32.582 -11.823 -22.404  0.00  0.00    -0.009 C 
ENDROOT
BRANCH  11  12
ATOM     12  C   UNL     1      32.697 -10.608 -23.171  0.00  0.00    -0.009 C 
ATOM     13  C   UNL     1      32.133  -9.449 -22.802  0.00  0.00    -0.039 C 
ATOM     14  C   UNL     1      32.266  -8.194 -23.620  0.00  0.00    +0.051 C 
ATOM     15  C   UNL     1      31.344  -9.303 -21.524  0.00  0.00    +0.051 C 
ATOM     16  C   UNL     1      32.817  -7.048 -22.770  0.00  0.00    +0.117 C 
ATOM     17  C   UNL     1      31.858  -8.132 -20.679  0.00  0.00    +0.117 C 
ATOM     18  C   UNL     1      31.989  -6.845 -21.495  0.00  0.00    +0.059 C 
BRANCH  16  19
ATOM     19  O   UNL     1      32.790  -5.854 -23.547  0.00  0.00    -0.384 OA
ATOM     20  H   UNL     1      33.565  -5.830 -24.130  0.00  0.00    +0.210 HD
ENDBRANCH  16  19
BRANCH  17  21
ATOM     21  O   UNL     1      33.131  -8.459 -20.123  0.00  0.00    -0.384 OA
ATOM     22  H   UNL     1      33.037  -9.217 -19.525  0.00  0.00    +0.210 HD
ENDBRANCH  17  21
ENDBRANCH  11  12
BRANCH   2  23
ATOM     23  C   UNL     1      34.360 -17.502 -21.299  0.00  0.00    +0.022 C 
ATOM     24  C   UNL     1      35.225 -17.740 -22.538  0.00  0.00    +0.005 C 
BRANCH  23  25
ATOM     25  C   UNL     1      33.747 -18.803 -20.842  0.00  0.00    -0.031 C 
ATOM     26  C   UNL     1      34.450 -19.928 -20.636  0.00  0.00    -0.029 C 
BRANCH  26  27
ATOM     27  C   UNL     1      33.834 -21.230 -20.174  0.00  0.00    +0.046 C 
ATOM     28  C   UNL     1      32.537 -20.924 -19.413  0.00  0.00    +0.007 C 
BRANCH  27  29
ATOM     29  C   UNL     1      34.819 -22.126 -19.362  0.00  0.00    +0.092 C 
ATOM     30  C   UNL     1      34.359 -22.414 -17.929  0.00  0.00    +0.030 C 
ATOM     31  C   UNL     1      36.233 -21.527 -19.332  0.00  0.00    +0.030 C 
BRANCH  29  32
ATOM     32  O   UNL     1      34.920 -23.397 -20.020  0.00  0.00    -0.386 OA
ATOM     33  H   UNL     1      35.623 -23.921 -19.605  0.00  0.00    +0.210 HD
ENDBRANCH  29  32
ENDBRANCH  27  29
ENDBRANCH  26  27
ENDBRANCH  23  25
ENDBRANCH   2  23
TORSDOF 8
ENDMDL
MODEL 5
REMARK VINA RESULT:      -8.3      8.256     16.163
REMARK  Name = 5281104
REMARK  8 active torsions:
REMARK  status: ('A' for Active; 'I' for Inactive)
REMARK    1  A    between atoms: C_2  and  C_23
REMARK    2  A    between atoms: C_11  and  C_12
REMARK    3  A    between atoms: C_16  and  O_19
REMARK    4  A    between atoms: C_17  and  O_21
REMARK    5  A    between atoms: C_23  and  C_25
REMARK    6  A    between atoms: C_26  and  C_27
REMARK    7  A    between atoms: C_27  and  C_29
REMARK    8  A    between atoms: C_29  and  O_32
REMARK                            x       y       z     vdW  Elec       q    Type
REMARK                         _______ _______ _______ _____ _____    ______ ____
ROOT
ATOM      1  C   UNL     1      34.460 -21.693 -19.253  0.00  0.00    +0.004 C 
ATOM      2  C   UNL     1      35.175 -21.927 -17.900  0.00  0.00    +0.004 C 
ATOM      3  C   UNL     1      35.264 -20.469 -19.757  0.00  0.00    +0.018 C 
ATOM      4  C   UNL     1      36.672 -21.710 -18.225  0.00  0.00    +0.001 C 
ATOM      5  C   UNL     1      36.718 -20.881 -19.522  0.00  0.00    +0.004 C 
ATOM      6  C   UNL     1      32.978 -21.285 -19.125  0.00  0.00    +0.001 C 
ATOM      7  C   UNL     1      34.763 -19.999 -21.097  0.00  0.00    -0.045 C 
ATOM      8  C   UNL     1      34.584 -22.930 -20.179  0.00  0.00    +0.000 C 
ATOM      9  C   UNL     1      32.421 -20.747 -20.455  0.00  0.00    +0.004 C 
ATOM     10  C   UNL     1      33.291 -19.643 -21.078  0.00  0.00    +0.022 C 
ATOM     11  C   UNL     1      35.511 -19.891 -22.204  0.00  0.00    -0.009 C 
ENDROOT
BRANCH  11  12
ATOM     12  C   UNL     1      34.991 -19.429 -23.466  0.00  0.00    -0.009 C 
ATOM     13  C   UNL     1      34.353 -18.259 -23.615  0.00  0.00    -0.039 C 
ATOM     14  C   UNL     1      33.819 -17.798 -24.944  0.00  0.00    +0.051 C 
ATOM     15  C   UNL     1      34.144 -17.298 -22.470  0.00  0.00    +0.051 C 
ATOM     16  C   UNL     1      34.358 -16.411 -25.295  0.00  0.00    +0.117 C 
ATOM     17  C   UNL     1      34.643 -15.892 -22.821  0.00  0.00    +0.117 C 
ATOM     18  C   UNL     1      34.100 -15.406 -24.166  0.00  0.00    +0.059 C 
BRANCH  16  19
ATOM     19  O   UNL     1      33.715 -15.963 -26.484  0.00  0.00    -0.384 OA
ATOM     20  H   UNL     1      33.840 -15.006 -26.578  0.00  0.00    +0.210 HD
ENDBRANCH  16  19
BRANCH  17  21
ATOM     21  O   UNL     1      36.069 -15.882 -22.868  0.00  0.00    -0.384 OA
ATOM     22  H   UNL     1      36.421 -15.812 -21.966  0.00  0.00    +0.210 HD
ENDBRANCH  17  21
ENDBRANCH  11  12
BRANCH   2  23
ATOM     23  C   UNL     1      34.905 -23.258 -17.211  0.00  0.00    +0.022 C 
ATOM     24  C   UNL     1      33.421 -23.405 -16.873  0.00  0.00    +0.005 C 
BRANCH  23  25
ATOM     25  C   UNL     1      35.733 -23.378 -15.954  0.00  0.00    -0.031 C 
ATOM     26  C   UNL     1      35.543 -24.326 -15.023  0.00  0.00    -0.029 C 
BRANCH  26  27
ATOM     27  C   UNL     1      36.375 -24.446 -13.767  0.00  0.00    +0.046 C 
ATOM     28  C   UNL     1      37.194 -23.160 -13.587  0.00  0.00    +0.007 C 
BRANCH  27  29
ATOM     29  C   UNL     1      37.251 -25.736 -13.727  0.00  0.00    +0.092 C 
ATOM     30  C   UNL     1      38.745 -25.466 -13.509  0.00  0.00    +0.030 C 
ATOM     31  C   UNL     1      37.068 -26.583 -14.995  0.00  0.00    +0.030 C 
BRANCH  29  32
ATOM     32  O   UNL     1      36.819 -26.543 -12.622  0.00  0.00    -0.386 OA
ATOM     33  H   UNL     1      35.915 -26.294 -12.375  0.00  0.00    +0.210 HD
ENDBRANCH  29  32
ENDBRANCH  27  29
ENDBRANCH  26  27
ENDBRANCH  23  25
ENDBRANCH   2  23
TORSDOF 8
ENDMDL
MODEL 6
REMARK VINA RESULT:      -8.3      1.587      2.215
REMARK  Name = 5281104
REMARK  8 active torsions:
REMARK  status: ('A' for Active; 'I' for Inactive)
REMARK    1  A    between atoms: C_2  and  C_23
REMARK    2  A    between atoms: C_11  and  C_12
REMARK    3  A    between atoms: C_16  and  O_19
REMARK    4  A    between atoms: C_17  and  O_21
REMARK    5  A    between atoms: C_23  and  C_25
REMARK    6  A    between atoms: C_26  and  C_27
REMARK    7  A    between atoms: C_27  and  C_29
REMARK    8  A    between atoms: C_29  and  O_32
REMARK                            x       y       z     vdW  Elec       q    Type
REMARK                         _______ _______ _______ _____ _____    ______ ____
ROOT
ATOM      1  C   UNL     1      31.908  -7.855 -22.253  0.00  0.00    +0.004 C 
ATOM      2  C   UNL     1      30.962  -6.790 -22.859  0.00  0.00    +0.004 C 
ATOM      3  C   UNL     1      31.528  -9.067 -23.139  0.00  0.00    +0.018 C 
ATOM      4  C   UNL     1      31.037  -7.046 -24.383  0.00  0.00    +0.001 C 
ATOM      5  C   UNL     1      31.550  -8.488 -24.555  0.00  0.00    +0.004 C 
ATOM      6  C   UNL     1      31.605  -8.211 -20.783  0.00  0.00    +0.001 C 
ATOM      7  C   UNL     1      32.313 -10.293 -22.755  0.00  0.00    -0.045 C 
ATOM      8  C   UNL     1      33.394  -7.436 -22.392  0.00  0.00    +0.000 C 
ATOM      9  C   UNL     1      32.341  -9.489 -20.344  0.00  0.00    +0.004 C 
ATOM     10  C   UNL     1      32.127 -10.674 -21.301  0.00  0.00    +0.022 C 
ATOM     11  C   UNL     1      33.096 -10.997 -23.584  0.00  0.00    -0.009 C 
ENDROOT
BRANCH  11  12
ATOM     12  C   UNL     1      33.825 -12.171 -23.175  0.00  0.00    -0.009 C 
ATOM     13  C   UNL     1      33.512 -13.410 -23.581  0.00  0.00    -0.039 C 
ATOM     14  C   UNL     1      34.288 -14.621 -23.140  0.00  0.00    +0.051 C 
ATOM     15  C   UNL     1      32.374 -13.688 -24.533  0.00  0.00    +0.051 C 
ATOM     16  C   UNL     1      34.775 -15.424 -24.347  0.00  0.00    +0.117 C 
ATOM     17  C   UNL     1      32.837 -14.526 -25.729  0.00  0.00    +0.117 C 
ATOM     18  C   UNL     1      33.620 -15.767 -25.296  0.00  0.00    +0.059 C 
BRANCH  16  19
ATOM     19  O   UNL     1      35.377 -16.627 -23.878  0.00  0.00    -0.384 OA
ATOM     20  H   UNL     1      36.087 -16.890 -24.484  0.00  0.00    +0.210 HD
ENDBRANCH  16  19
BRANCH  17  21
ATOM     21  O   UNL     1      33.661 -13.736 -26.585  0.00  0.00    -0.384 OA
ATOM     22  H   UNL     1      33.629 -12.809 -26.298  0.00  0.00    +0.210 HD
ENDBRANCH  17  21
ENDBRANCH  11  12
BRANCH   2  23
ATOM     23  C   UNL     1      31.243  -5.341 -22.487  0.00  0.00    +0.022 C 
ATOM     24  C   UNL     1      30.295  -4.867 -21.385  0.00  0.00    +0.005 C 
BRANCH  23  25
ATOM     25  C   UNL     1      31.110  -4.451 -23.699  0.00  0.00    -0.031 C 
ATOM     26  C   UNL     1      32.147  -3.847 -24.300  0.00  0.00    -0.029 C 
BRANCH  26  27
ATOM     27  C   UNL     1      32.011  -2.958 -25.516  0.00  0.00    +0.046 C 
ATOM     28  C   UNL     1      30.520  -2.716 -25.791  0.00  0.00    +0.007 C 
BRANCH  27  29
ATOM     29  C   UNL     1      32.781  -3.494 -26.761  0.00  0.00    +0.092 C 
ATOM     30  C   UNL     1      31.985  -3.406 -28.069  0.00  0.00    +0.030 C 
ATOM     31  C   UNL     1      33.258  -4.939 -26.553  0.00  0.00    +0.030 C 
BRANCH  29  32
ATOM     32  O   UNL     1      33.956  -2.691 -26.946  0.00  0.00    -0.386 OA
ATOM     33  H   UNL     1      33.779  -2.008 -27.612  0.00  0.00    +0.210 HD
ENDBRANCH  29  32
ENDBRANCH  27  29
ENDBRANCH  26  27
ENDBRANCH  23  25
ENDBRANCH   2  23
TORSDOF 8
ENDMDL
MODEL 7
REMARK VINA RESULT:      -7.7      1.732      2.555
REMARK  Name = 5281104
REMARK  8 active torsions:
REMARK  status: ('A' for Active; 'I' for Inactive)
REMARK    1  A    between atoms: C_2  and  C_23
REMARK    2  A    between atoms: C_11  and  C_12
REMARK    3  A    between atoms: C_16  and  O_19
REMARK    4  A    between atoms: C_17  and  O_21
REMARK    5  A    between atoms: C_23  and  C_25
REMARK    6  A    between atoms: C_26  and  C_27
REMARK    7  A    between atoms: C_27  and  C_29
REMARK    8  A    between atoms: C_29  and  O_32
REMARK                            x       y       z     vdW  Elec       q    Type
REMARK                         _______ _______ _______ _____ _____    ______ ____
ROOT
ATOM      1  C   UNL     1      32.239  -9.656 -22.670  0.00  0.00    +0.004 C 
ATOM      2  C   UNL     1      32.378  -8.578 -23.773  0.00  0.00    +0.004 C 
ATOM      3  C   UNL     1      32.791 -10.880 -23.441  0.00  0.00    +0.018 C 
ATOM      4  C   UNL     1      33.747  -8.884 -24.425  0.00  0.00    +0.001 C 
ATOM      5  C   UNL     1      34.077 -10.347 -24.077  0.00  0.00    +0.004 C 
ATOM      6  C   UNL     1      30.785  -9.955 -22.254  0.00  0.00    +0.001 C 
ATOM      7  C   UNL     1      32.766 -12.121 -22.588  0.00  0.00    -0.045 C 
ATOM      8  C   UNL     1      33.076  -9.294 -21.417  0.00  0.00    +0.000 C 
ATOM      9  C   UNL     1      30.686 -11.244 -21.419  0.00  0.00    +0.004 C 
ATOM     10  C   UNL     1      31.379 -12.450 -22.076  0.00  0.00    +0.022 C 
ATOM     11  C   UNL     1      33.833 -12.878 -22.297  0.00  0.00    -0.009 C 
ENDROOT
BRANCH  11  12
ATOM     12  C   UNL     1      33.762 -14.063 -21.480  0.00  0.00    -0.009 C 
ATOM     13  C   UNL     1      33.639 -15.299 -21.986  0.00  0.00    -0.039 C 
ATOM     14  C   UNL     1      33.567 -16.522 -21.113  0.00  0.00    +0.051 C 
ATOM     15  C   UNL     1      33.591 -15.565 -23.471  0.00  0.00    +0.051 C 
ATOM     16  C   UNL     1      34.634 -17.541 -21.517  0.00  0.00    +0.117 C 
ATOM     17  C   UNL     1      34.627 -16.615 -23.886  0.00  0.00    +0.117 C 
ATOM     18  C   UNL     1      34.560 -17.869 -23.013  0.00  0.00    +0.059 C 
BRANCH  16  19
ATOM     19  O   UNL     1      34.432 -18.731 -20.760  0.00  0.00    -0.384 OA
ATOM     20  H   UNL     1      33.956 -19.380 -21.300  0.00  0.00    +0.210 HD
ENDBRANCH  16  19
BRANCH  17  21
ATOM     21  O   UNL     1      35.940 -16.061 -23.797  0.00  0.00    -0.384 OA
ATOM     22  H   UNL     1      36.206 -16.008 -22.866  0.00  0.00    +0.210 HD
ENDBRANCH  17  21
ENDBRANCH  11  12
BRANCH   2  23
ATOM     23  C   UNL     1      32.245  -7.129 -23.326  0.00  0.00    +0.022 C 
ATOM     24  C   UNL     1      30.833  -6.845 -22.809  0.00  0.00    +0.005 C 
BRANCH  23  25
ATOM     25  C   UNL     1      32.573  -6.194 -24.465  0.00  0.00    -0.031 C 
ATOM     26  C   UNL     1      31.749  -5.226 -24.897  0.00  0.00    -0.029 C 
BRANCH  26  27
ATOM     27  C   UNL     1      32.082  -4.288 -26.036  0.00  0.00    +0.046 C 
ATOM     28  C   UNL     1      33.483  -4.624 -26.564  0.00  0.00    +0.007 C 
BRANCH  27  29
ATOM     29  C   UNL     1      31.916  -2.783 -25.664  0.00  0.00    +0.092 C 
ATOM     30  C   UNL     1      33.048  -1.888 -26.181  0.00  0.00    +0.030 C 
ATOM     31  C   UNL     1      31.765  -2.588 -24.148  0.00  0.00    +0.030 C 
BRANCH  29  32
ATOM     32  O   UNL     1      30.708  -2.298 -26.268  0.00  0.00    -0.386 OA
ATOM     33  H   UNL     1      30.180  -1.830 -25.603  0.00  0.00    +0.210 HD
ENDBRANCH  29  32
ENDBRANCH  27  29
ENDBRANCH  26  27
ENDBRANCH  23  25
ENDBRANCH   2  23
TORSDOF 8
ENDMDL
MODEL 8
REMARK VINA RESULT:      -7.6      7.234     12.789
REMARK  Name = 5281104
REMARK  8 active torsions:
REMARK  status: ('A' for Active; 'I' for Inactive)
REMARK    1  A    between atoms: C_2  and  C_23
REMARK    2  A    between atoms: C_11  and  C_12
REMARK    3  A    between atoms: C_16  and  O_19
REMARK    4  A    between atoms: C_17  and  O_21
REMARK    5  A    between atoms: C_23  and  C_25
REMARK    6  A    between atoms: C_26  and  C_27
REMARK    7  A    between atoms: C_27  and  C_29
REMARK    8  A    between atoms: C_29  and  O_32
REMARK                            x       y       z     vdW  Elec       q    Type
REMARK                         _______ _______ _______ _____ _____    ______ ____
ROOT
ATOM      1  C   UNL     1      35.287 -20.900 -20.042  0.00  0.00    +0.004 C 
ATOM      2  C   UNL     1      34.990 -19.675 -20.941  0.00  0.00    +0.004 C 
ATOM      3  C   UNL     1      34.061 -20.826 -19.099  0.00  0.00    +0.018 C 
ATOM      4  C   UNL     1      33.464 -19.752 -21.187  0.00  0.00    +0.001 C 
ATOM      5  C   UNL     1      32.887 -20.629 -20.060  0.00  0.00    +0.004 C 
ATOM      6  C   UNL     1      36.566 -20.768 -19.192  0.00  0.00    +0.001 C 
ATOM      7  C   UNL     1      34.090 -21.930 -18.076  0.00  0.00    -0.045 C 
ATOM      8  C   UNL     1      35.343 -22.209 -20.871  0.00  0.00    +0.000 C 
ATOM      9  C   UNL     1      36.630 -21.842 -18.091  0.00  0.00    +0.004 C 
ATOM     10  C   UNL     1      35.353 -21.917 -17.239  0.00  0.00    +0.022 C 
ATOM     11  C   UNL     1      33.122 -22.839 -17.894  0.00  0.00    -0.009 C 
ENDROOT
BRANCH  11  12
ATOM     12  C   UNL     1      33.189 -23.876 -16.896  0.00  0.00    -0.009 C 
ATOM     13  C   UNL     1      32.757 -23.715 -15.637  0.00  0.00    -0.039 C 
ATOM     14  C   UNL     1      32.837 -24.813 -14.612  0.00  0.00    +0.051 C 
ATOM     15  C   UNL     1      32.130 -22.430 -15.154  0.00  0.00    +0.051 C 
ATOM     16  C   UNL     1      31.464 -25.079 -13.991  0.00  0.00    +0.117 C 
ATOM     17  C   UNL     1      30.771 -22.683 -14.493  0.00  0.00    +0.117 C 
ATOM     18  C   UNL     1      30.839 -23.792 -13.440  0.00  0.00    +0.059 C 
BRANCH  16  19
ATOM     19  O   UNL     1      31.621 -26.020 -12.934  0.00  0.00    -0.384 OA
ATOM     20  H   UNL     1      32.314 -26.657 -13.168  0.00  0.00    +0.210 HD
ENDBRANCH  16  19
BRANCH  17  21
ATOM     21  O   UNL     1      29.810 -23.046 -15.484  0.00  0.00    -0.384 OA
ATOM     22  H   UNL     1      29.367 -23.867 -15.218  0.00  0.00    +0.210 HD
ENDBRANCH  17  21
ENDBRANCH  11  12
BRANCH   2  23
ATOM     23  C   UNL     1      35.793 -19.569 -22.230  0.00  0.00    +0.022 C 
ATOM     24  C   UNL     1      37.179 -18.981 -21.961  0.00  0.00    +0.005 C 
BRANCH  23  25
ATOM     25  C   UNL     1      35.060 -18.717 -23.238  0.00  0.00    -0.031 C 
ATOM     26  C   UNL     1      34.815 -17.408 -23.071  0.00  0.00    -0.029 C 
BRANCH  26  27
ATOM     27  C   UNL     1      34.084 -16.555 -24.084  0.00  0.00    +0.046 C 
ATOM     28  C   UNL     1      34.884 -16.543 -25.394  0.00  0.00    +0.007 C 
BRANCH  27  29
ATOM     29  C   UNL     1      33.751 -15.124 -23.562  0.00  0.00    +0.092 C 
ATOM     30  C   UNL     1      32.921 -15.111 -22.273  0.00  0.00    +0.030 C 
ATOM     31  C   UNL     1      33.042 -14.282 -24.633  0.00  0.00    +0.030 C 
BRANCH  29  32
ATOM     32  O   UNL     1      34.984 -14.455 -23.257  0.00  0.00    -0.386 OA
ATOM     33  H   UNL     1      35.085 -14.387 -22.295  0.00  0.00    +0.210 HD
ENDBRANCH  29  32
ENDBRANCH  27  29
ENDBRANCH  26  27
ENDBRANCH  23  25
ENDBRANCH   2  23
TORSDOF 8
ENDMDL
MODEL 9
REMARK VINA RESULT:      -7.5      5.447     13.996
REMARK  Name = 5281104
REMARK  8 active torsions:
REMARK  status: ('A' for Active; 'I' for Inactive)
REMARK    1  A    between atoms: C_2  and  C_23
REMARK    2  A    between atoms: C_11  and  C_12
REMARK    3  A    between atoms: C_16  and  O_19
REMARK    4  A    between atoms: C_17  and  O_21
REMARK    5  A    between atoms: C_23  and  C_25
REMARK    6  A    between atoms: C_26  and  C_27
REMARK    7  A    between atoms: C_27  and  C_29
REMARK    8  A    between atoms: C_29  and  O_32
REMARK                            x       y       z     vdW  Elec       q    Type
REMARK                         _______ _______ _______ _____ _____    ______ ____
ROOT
ATOM      1  C   UNL     1      34.981 -19.083 -21.394  0.00  0.00    +0.004 C 
ATOM      2  C   UNL     1      34.250 -20.292 -20.764  0.00  0.00    +0.004 C 
ATOM      3  C   UNL     1      33.772 -18.361 -22.038  0.00  0.00    +0.018 C 
ATOM      4  C   UNL     1      32.953 -19.682 -20.179  0.00  0.00    +0.001 C 
ATOM      5  C   UNL     1      32.731 -18.348 -20.916  0.00  0.00    +0.004 C 
ATOM      6  C   UNL     1      35.978 -19.456 -22.510  0.00  0.00    +0.001 C 
ATOM      7  C   UNL     1      34.201 -17.109 -22.756  0.00  0.00    -0.045 C 
ATOM      8  C   UNL     1      35.700 -18.231 -20.317  0.00  0.00    +0.000 C 
ATOM      9  C   UNL     1      36.417 -18.221 -23.317  0.00  0.00    +0.004 C 
ATOM     10  C   UNL     1      35.237 -17.377 -23.829  0.00  0.00    +0.022 C 
ATOM     11  C   UNL     1      33.734 -15.878 -22.506  0.00  0.00    -0.009 C 
ENDROOT
BRANCH  11  12
ATOM     12  C   UNL     1      34.168 -14.707 -23.224  0.00  0.00    -0.009 C 
ATOM     13  C   UNL     1      33.388 -13.636 -23.425  0.00  0.00    -0.039 C 
ATOM     14  C   UNL     1      33.863 -12.424 -24.179  0.00  0.00    +0.051 C 
ATOM     15  C   UNL     1      31.980 -13.547 -22.888  0.00  0.00    +0.051 C 
ATOM     16  C   UNL     1      33.681 -11.157 -23.342  0.00  0.00    +0.117 C 
ATOM     17  C   UNL     1      31.769 -12.262 -22.080  0.00  0.00    +0.117 C 
ATOM     18  C   UNL     1      32.239 -11.019 -22.838  0.00  0.00    +0.059 C 
BRANCH  16  19
ATOM     19  O   UNL     1      34.010 -10.030 -24.149  0.00  0.00    -0.384 OA
ATOM     20  H   UNL     1      33.939 -10.272 -25.085  0.00  0.00    +0.210 HD
ENDBRANCH  16  19
BRANCH  17  21
ATOM     21  O   UNL     1      32.478 -12.345 -20.844  0.00  0.00    -0.384 OA
ATOM     22  H   UNL     1      32.334 -11.532 -20.334  0.00  0.00    +0.210 HD
ENDBRANCH  17  21
ENDBRANCH  11  12
BRANCH   2  23
ATOM     23  C   UNL     1      35.035 -21.104 -19.742  0.00  0.00    +0.022 C 
ATOM     24  C   UNL     1      36.053 -22.011 -20.434  0.00  0.00    +0.005 C 
BRANCH  23  25
ATOM     25  C   UNL     1      34.099 -21.933 -18.896  0.00  0.00    -0.031 C 
ATOM     26  C   UNL     1      34.477 -22.586 -17.786  0.00  0.00    -0.029 C 
BRANCH  26  27
ATOM     27  C   UNL     1      33.538 -23.412 -16.938  0.00  0.00    +0.046 C 
ATOM     28  C   UNL     1      32.119 -22.840 -17.065  0.00  0.00    +0.007 C 
BRANCH  27  29
ATOM     29  C   UNL     1      34.006 -23.555 -15.457  0.00  0.00    +0.092 C 
ATOM     30  C   UNL     1      34.860 -24.800 -15.193  0.00  0.00    +0.030 C 
ATOM     31  C   UNL     1      32.817 -23.538 -14.484  0.00  0.00    +0.030 C 
BRANCH  29  32
ATOM     32  O   UNL     1      34.826 -22.424 -15.131  0.00  0.00    -0.386 OA
ATOM     33  H   UNL     1      35.756 -22.697 -15.102  0.00  0.00    +0.210 HD
ENDBRANCH  29  32
ENDBRANCH  27  29
ENDBRANCH  26  27
ENDBRANCH  23  25
ENDBRANCH   2  23
TORSDOF 8
ENDMDL
