MODEL 1
REMARK VINA RESULT:     -12.1      0.000      0.000
REMARK  Name = 448890
REMARK  6 active torsions:
REMARK  status: ('A' for Active; 'I' for Inactive)
REMARK    1  A    between atoms: C_1  and  C_2
REMARK    2  A    between atoms: C_1  and  C_17
REMARK    3  A    between atoms: C_2  and  C_3
REMARK    4  A    between atoms: C_3  and  N_4
REMARK    5  A    between atoms: C_8  and  C_11
REMARK    6  A    between atoms: C_17  and  N_21
REMARK                            x       y       z     vdW  Elec       q    Type
REMARK                         _______ _______ _______ _____ _____    ______ ____
ROOT
ATOM      1  C   UNL     1      33.096 -14.145 -25.197  0.00  0.00    +0.022 C 
ENDROOT
BRANCH   1   2
ATOM      2  C   UNL     1      33.539 -15.590 -25.454  0.00  0.00    -0.021 C 
BRANCH   2   3
ATOM      3  C   UNL     1      34.794 -15.931 -24.653  0.00  0.00    -0.077 C 
BRANCH   3   4
ATOM      4  N   UNL     1      34.505 -16.985 -23.683  0.00  0.00    +0.390 N 
ATOM      5  C   UNL     1      35.106 -18.258 -24.092  0.00  0.00    -0.072 C 
ATOM      6  C   UNL     1      34.969 -16.600 -22.341  0.00  0.00    -0.051 C 
ATOM      7  C   UNL     1      34.647 -19.379 -23.147  0.00  0.00    +0.003 C 
ATOM      8  C   UNL     1      34.780 -19.010 -21.686  0.00  0.00    -0.031 C 
ATOM      9  C   UNL     1      34.929 -17.718 -21.334  0.00  0.00    -0.053 C 
ATOM     10  H   UNL     1      33.493 -17.112 -23.649  0.00  0.00    -0.079 HD
BRANCH   8  11
ATOM     11  C   UNL     1      34.732 -20.096 -20.679  0.00  0.00    -0.004 C 
ATOM     12  C   UNL     1      33.503 -20.587 -20.233  0.00  0.00    -0.000 C 
ATOM     13  C   UNL     1      35.918 -20.634 -20.172  0.00  0.00    -0.000 C 
ATOM     14  C   UNL     1      33.459 -21.609 -19.285  0.00  0.00    -0.000 C 
ATOM     15  C   UNL     1      35.873 -21.656 -19.224  0.00  0.00    -0.000 C 
ATOM     16  C   UNL     1      34.644 -22.144 -18.780  0.00  0.00    -0.000 C 
ENDBRANCH   8  11
ENDBRANCH   3   4
ENDBRANCH   2   3
ENDBRANCH   1   2
BRANCH   1  17
ATOM     17  C   UNL     1      33.920 -13.464 -24.109  0.00  0.00    +0.110 C 
BRANCH  17  21
ATOM     18  F   UNL     1      31.642  -8.388 -21.510  0.00  0.00    -0.204 F 
ATOM     19  O   UNL     1      32.184 -14.612 -22.213  0.00  0.00    -0.246 OA
ATOM     20  O   UNL     1      30.770 -10.577 -20.587  0.00  0.00    -0.267 OA
ATOM     21  N   UNL     1      33.091 -12.697 -23.182  0.00  0.00    -0.281 N 
ATOM     22  N   UNL     1      31.505 -12.583 -21.430  0.00  0.00    -0.274 N 
ATOM     23  C   UNL     1      33.145 -11.269 -23.216  0.00  0.00    +0.071 A 
ATOM     24  C   UNL     1      32.264 -13.383 -22.282  0.00  0.00    +0.330 A 
ATOM     25  C   UNL     1      32.358 -10.517 -22.335  0.00  0.00    +0.099 A 
ATOM     26  C   UNL     1      33.972 -10.576 -24.117  0.00  0.00    +0.018 C 
ATOM     27  C   UNL     1      31.476 -11.200 -21.374  0.00  0.00    +0.265 A 
ATOM     28  C   UNL     1      32.392  -9.115 -22.350  0.00  0.00    +0.146 C 
ATOM     29  C   UNL     1      34.008  -9.179 -24.132  0.00  0.00    +0.004 C 
ATOM     30  C   UNL     1      33.219  -8.449 -23.249  0.00  0.00    +0.030 C 
ATOM     31  H   UNL     1      30.921 -13.056 -20.795  0.00  0.00    +0.173 HD
ENDBRANCH  17  21
ENDBRANCH   1  17
TORSDOF 6
ENDMDL
MODEL 2
REMARK VINA RESULT:     -11.8      2.029      3.159
REMARK  Name = 448890
REMARK  6 active torsions:
REMARK  status: ('A' for Active; 'I' for Inactive)
REMARK    1  A    between atoms: C_1  and  C_2
REMARK    2  A    between atoms: C_1  and  C_17
REMARK    3  A    between atoms: C_2  and  C_3
REMARK    4  A    between atoms: C_3  and  N_4
REMARK    5  A    between atoms: C_8  and  C_11
REMARK    6  A    between atoms: C_17  and  N_21
REMARK                            x       y       z     vdW  Elec       q    Type
REMARK                         _______ _______ _______ _____ _____    ______ ____
ROOT
ATOM      1  C   UNL     1      32.592 -11.739 -23.023  0.00  0.00    +0.022 C 
ENDROOT
BRANCH   1   2
ATOM      2  C   UNL     1      32.587 -13.271 -23.039  0.00  0.00    -0.021 C 
BRANCH   2   3
ATOM      3  C   UNL     1      33.869 -13.819 -23.666  0.00  0.00    -0.077 C 
BRANCH   3   4
ATOM      4  N   UNL     1      34.345 -14.978 -22.914  0.00  0.00    +0.390 N 
ATOM      5  C   UNL     1      33.398 -15.348 -21.858  0.00  0.00    -0.072 C 
ATOM      6  C   UNL     1      34.591 -16.117 -23.812  0.00  0.00    -0.051 C 
ATOM      7  C   UNL     1      34.000 -16.458 -20.983  0.00  0.00    +0.003 C 
ATOM      8  C   UNL     1      34.586 -17.594 -21.790  0.00  0.00    -0.031 C 
ATOM      9  C   UNL     1      34.851 -17.416 -23.099  0.00  0.00    -0.053 C 
ATOM     10  H   UNL     1      35.227 -14.723 -22.469  0.00  0.00    -0.079 HD
BRANCH   8  11
ATOM     11  C   UNL     1      34.859 -18.879 -21.103  0.00  0.00    -0.004 C 
ATOM     12  C   UNL     1      36.175 -19.273 -20.850  0.00  0.00    -0.000 C 
ATOM     13  C   UNL     1      33.801 -19.699 -20.705  0.00  0.00    -0.000 C 
ATOM     14  C   UNL     1      36.432 -20.482 -20.203  0.00  0.00    -0.000 C 
ATOM     15  C   UNL     1      34.058 -20.908 -20.058  0.00  0.00    -0.000 C 
ATOM     16  C   UNL     1      35.373 -21.300 -19.807  0.00  0.00    -0.000 C 
ENDBRANCH   8  11
ENDBRANCH   3   4
ENDBRANCH   2   3
ENDBRANCH   1   2
BRANCH   1  17
ATOM     17  C   UNL     1      31.398 -11.157 -22.273  0.00  0.00    +0.110 C 
BRANCH  17  21
ATOM     18  F   UNL     1      32.390  -5.164 -21.368  0.00  0.00    -0.204 F 
ATOM     19  O   UNL     1      32.116 -11.178 -19.551  0.00  0.00    -0.246 OA
ATOM     20  O   UNL     1      32.738  -6.650 -19.348  0.00  0.00    -0.267 OA
ATOM     21  N   UNL     1      31.751  -9.964 -21.507  0.00  0.00    -0.281 N 
ATOM     22  N   UNL     1      32.416  -8.920 -19.491  0.00  0.00    -0.274 N 
ATOM     23  C   UNL     1      31.740  -8.690 -22.154  0.00  0.00    +0.071 A 
ATOM     24  C   UNL     1      32.091 -10.101 -20.154  0.00  0.00    +0.330 A 
ATOM     25  C   UNL     1      32.074  -7.536 -21.436  0.00  0.00    +0.099 A 
ATOM     26  C   UNL     1      31.398  -8.546 -23.510  0.00  0.00    +0.018 C 
ATOM     27  C   UNL     1      32.439  -7.638 -20.012  0.00  0.00    +0.265 A 
ATOM     28  C   UNL     1      32.070  -6.274 -22.048  0.00  0.00    +0.146 C 
ATOM     29  C   UNL     1      31.394  -7.290 -24.123  0.00  0.00    +0.004 C 
ATOM     30  C   UNL     1      31.730  -6.155 -23.392  0.00  0.00    +0.030 C 
ATOM     31  H   UNL     1      32.656  -9.007 -18.540  0.00  0.00    +0.173 HD
ENDBRANCH  17  21
ENDBRANCH   1  17
TORSDOF 6
ENDMDL
MODEL 3
REMARK VINA RESULT:     -11.7      1.700      2.812
REMARK  Name = 448890
REMARK  6 active torsions:
REMARK  status: ('A' for Active; 'I' for Inactive)
REMARK    1  A    between atoms: C_1  and  C_2
REMARK    2  A    between atoms: C_1  and  C_17
REMARK    3  A    between atoms: C_2  and  C_3
REMARK    4  A    between atoms: C_3  and  N_4
REMARK    5  A    between atoms: C_8  and  C_11
REMARK    6  A    between atoms: C_17  and  N_21
REMARK                            x       y       z     vdW  Elec       q    Type
REMARK                         _______ _______ _______ _____ _____    ______ ____
ROOT
ATOM      1  C   UNL     1      33.833 -13.489 -23.564  0.00  0.00    +0.022 C 
ENDROOT
BRANCH   1   2
ATOM      2  C   UNL     1      33.662 -14.968 -23.925  0.00  0.00    -0.021 C 
BRANCH   2   3
ATOM      3  C   UNL     1      35.013 -15.626 -24.206  0.00  0.00    -0.077 C 
BRANCH   3   4
ATOM      4  N   UNL     1      35.231 -16.745 -23.292  0.00  0.00    +0.390 N 
ATOM      5  C   UNL     1      34.660 -16.467 -21.970  0.00  0.00    -0.072 C 
ATOM      6  C   UNL     1      34.672 -17.987 -23.847  0.00  0.00    -0.051 C 
ATOM      7  C   UNL     1      35.049 -17.584 -20.989  0.00  0.00    +0.003 C 
ATOM      8  C   UNL     1      34.812 -18.969 -21.548  0.00  0.00    -0.031 C 
ATOM      9  C   UNL     1      34.638 -19.134 -22.874  0.00  0.00    -0.053 C 
ATOM     10  H   UNL     1      36.238 -16.867 -23.180  0.00  0.00    -0.079 HD
BRANCH   8  11
ATOM     11  C   UNL     1      34.786 -20.113 -20.606  0.00  0.00    -0.004 C 
ATOM     12  C   UNL     1      35.981 -20.653 -20.125  0.00  0.00    -0.000 C 
ATOM     13  C   UNL     1      33.566 -20.655 -20.195  0.00  0.00    -0.000 C 
ATOM     14  C   UNL     1      35.956 -21.729 -19.238  0.00  0.00    -0.000 C 
ATOM     15  C   UNL     1      33.541 -21.731 -19.308  0.00  0.00    -0.000 C 
ATOM     16  C   UNL     1      34.736 -22.269 -18.829  0.00  0.00    -0.000 C 
ENDBRANCH   8  11
ENDBRANCH   3   4
ENDBRANCH   2   3
ENDBRANCH   1   2
BRANCH   1  17
ATOM     17  C   UNL     1      32.501 -12.792 -23.302  0.00  0.00    +0.110 C 
BRANCH  17  21
ATOM     18  F   UNL     1      32.098  -7.675 -19.931  0.00  0.00    -0.204 F 
ATOM     19  O   UNL     1      33.641 -10.932 -25.083  0.00  0.00    -0.246 OA
ATOM     20  O   UNL     1      33.136  -7.398 -22.223  0.00  0.00    -0.267 OA
ATOM     21  N   UNL     1      32.666 -11.370 -23.012  0.00  0.00    -0.281 N 
ATOM     22  N   UNL     1      33.371  -9.198 -23.630  0.00  0.00    -0.274 N 
ATOM     23  C   UNL     1      32.229 -10.860 -21.750  0.00  0.00    +0.071 A 
ATOM     24  C   UNL     1      33.249 -10.541 -23.980  0.00  0.00    +0.330 A 
ATOM     25  C   UNL     1      32.378  -9.500 -21.453  0.00  0.00    +0.099 A 
ATOM     26  C   UNL     1      31.644 -11.687 -20.775  0.00  0.00    +0.018 C 
ATOM     27  C   UNL     1      32.986  -8.596 -22.445  0.00  0.00    +0.265 A 
ATOM     28  C   UNL     1      31.959  -8.976 -20.222  0.00  0.00    +0.146 C 
ATOM     29  C   UNL     1      31.224 -11.167 -19.548  0.00  0.00    +0.004 C 
ATOM     30  C   UNL     1      31.381  -9.812 -19.271  0.00  0.00    +0.030 C 
ATOM     31  H   UNL     1      33.780  -8.608 -24.304  0.00  0.00    +0.173 HD
ENDBRANCH  17  21
ENDBRANCH   1  17
TORSDOF 6
ENDMDL
MODEL 4
REMARK VINA RESULT:     -11.6      7.327     12.610
REMARK  Name = 448890
REMARK  6 active torsions:
REMARK  status: ('A' for Active; 'I' for Inactive)
REMARK    1  A    between atoms: C_1  and  C_2
REMARK    2  A    between atoms: C_1  and  C_17
REMARK    3  A    between atoms: C_2  and  C_3
REMARK    4  A    between atoms: C_3  and  N_4
REMARK    5  A    between atoms: C_8  and  C_11
REMARK    6  A    between atoms: C_17  and  N_21
REMARK                            x       y       z     vdW  Elec       q    Type
REMARK                         _______ _______ _______ _____ _____    ______ ____
ROOT
ATOM      1  C   UNL     1      33.804 -23.511 -16.402  0.00  0.00    +0.022 C 
ENDROOT
BRANCH   1   2
ATOM      2  C   UNL     1      33.777 -22.794 -17.756  0.00  0.00    -0.021 C 
BRANCH   2   3
ATOM      3  C   UNL     1      35.185 -22.395 -18.195  0.00  0.00    -0.077 C 
BRANCH   3   4
ATOM      4  N   UNL     1      35.134 -21.205 -19.042  0.00  0.00    +0.390 N 
ATOM      5  C   UNL     1      36.281 -21.154 -19.953  0.00  0.00    -0.072 C 
ATOM      6  C   UNL     1      33.871 -21.155 -19.794  0.00  0.00    -0.051 C 
ATOM      7  C   UNL     1      36.289 -19.817 -20.708  0.00  0.00    +0.003 C 
ATOM      8  C   UNL     1      34.943 -19.464 -21.299  0.00  0.00    -0.031 C 
ATOM      9  C   UNL     1      33.836 -20.097 -20.864  0.00  0.00    -0.053 C 
ATOM     10  H   UNL     1      35.179 -20.386 -18.435  0.00  0.00    -0.079 HD
BRANCH   8  11
ATOM     11  C   UNL     1      34.886 -18.417 -22.347  0.00  0.00    -0.004 C 
ATOM     12  C   UNL     1      34.987 -17.069 -21.997  0.00  0.00    -0.000 C 
ATOM     13  C   UNL     1      34.733 -18.775 -23.689  0.00  0.00    -0.000 C 
ATOM     14  C   UNL     1      34.934 -16.084 -22.983  0.00  0.00    -0.000 C 
ATOM     15  C   UNL     1      34.680 -17.790 -24.674  0.00  0.00    -0.000 C 
ATOM     16  C   UNL     1      34.781 -16.444 -24.322  0.00  0.00    -0.000 C 
ENDBRANCH   8  11
ENDBRANCH   3   4
ENDBRANCH   2   3
ENDBRANCH   1   2
BRANCH   1  17
ATOM     17  C   UNL     1      34.597 -22.745 -15.348  0.00  0.00    +0.110 C 
BRANCH  17  21
ATOM     18  F   UNL     1      39.176 -25.992 -12.857  0.00  0.00    -0.204 F 
ATOM     19  O   UNL     1      33.270 -23.853 -13.127  0.00  0.00    -0.246 OA
ATOM     20  O   UNL     1      36.961 -26.108 -11.638  0.00  0.00    -0.267 OA
ATOM     21  N   UNL     1      35.227 -23.632 -14.373  0.00  0.00    -0.281 N 
ATOM     22  N   UNL     1      35.130 -24.961 -12.418  0.00  0.00    -0.274 N 
ATOM     23  C   UNL     1      36.604 -23.978 -14.531  0.00  0.00    +0.071 A 
ATOM     24  C   UNL     1      34.461 -24.122 -13.306  0.00  0.00    +0.330 A 
ATOM     25  C   UNL     1      37.225 -24.826 -13.606  0.00  0.00    +0.099 A 
ATOM     26  C   UNL     1      37.377 -23.490 -15.599  0.00  0.00    +0.018 C 
ATOM     27  C   UNL     1      36.454 -25.362 -12.471  0.00  0.00    +0.265 A 
ATOM     28  C   UNL     1      38.575 -25.180 -13.738  0.00  0.00    +0.146 C 
ATOM     29  C   UNL     1      38.723 -23.841 -15.733  0.00  0.00    +0.004 C 
ATOM     30  C   UNL     1      39.322 -24.685 -14.804  0.00  0.00    +0.030 C 
ATOM     31  H   UNL     1      34.600 -25.310 -11.665  0.00  0.00    +0.173 HD
ENDBRANCH  17  21
ENDBRANCH   1  17
TORSDOF 6
ENDMDL
MODEL 5
REMARK VINA RESULT:     -11.5      3.803      6.845
REMARK  Name = 448890
REMARK  6 active torsions:
REMARK  status: ('A' for Active; 'I' for Inactive)
REMARK    1  A    between atoms: C_1  and  C_2
REMARK    2  A    between atoms: C_1  and  C_17
REMARK    3  A    between atoms: C_2  and  C_3
REMARK    4  A    between atoms: C_3  and  N_4
REMARK    5  A    between atoms: C_8  and  C_11
REMARK    6  A    between atoms: C_17  and  N_21
REMARK                            x       y       z     vdW  Elec       q    Type
REMARK                         _______ _______ _______ _____ _____    ______ ____
ROOT
ATOM      1  C   UNL     1      33.800 -19.761 -21.156  0.00  0.00    +0.022 C 
ENDROOT
BRANCH   1   2
ATOM      2  C   UNL     1      34.068 -20.786 -20.048  0.00  0.00    -0.021 C 
BRANCH   2   3
ATOM      3  C   UNL     1      35.559 -21.103 -19.943  0.00  0.00    -0.077 C 
BRANCH   3   4
ATOM      4  N   UNL     1      35.812 -21.974 -18.797  0.00  0.00    +0.390 N 
ATOM      5  C   UNL     1      36.717 -21.335 -17.837  0.00  0.00    -0.072 C 
ATOM      6  C   UNL     1      34.550 -22.356 -18.144  0.00  0.00    -0.051 C 
ATOM      7  C   UNL     1      37.095 -22.333 -16.732  0.00  0.00    +0.003 C 
ATOM      8  C   UNL     1      35.898 -23.053 -16.153  0.00  0.00    -0.031 C 
ATOM      9  C   UNL     1      34.728 -23.051 -16.821  0.00  0.00    -0.053 C 
ATOM     10  H   UNL     1      36.265 -22.821 -19.140  0.00  0.00    -0.079 HD
BRANCH   8  11
ATOM     11  C   UNL     1      36.057 -23.753 -14.855  0.00  0.00    -0.004 C 
ATOM     12  C   UNL     1      35.088 -23.613 -13.860  0.00  0.00    -0.000 C 
ATOM     13  C   UNL     1      37.177 -24.555 -14.625  0.00  0.00    -0.000 C 
ATOM     14  C   UNL     1      35.238 -24.271 -12.639  0.00  0.00    -0.000 C 
ATOM     15  C   UNL     1      37.327 -25.213 -13.404  0.00  0.00    -0.000 C 
ATOM     16  C   UNL     1      36.358 -25.072 -12.411  0.00  0.00    -0.000 C 
ENDBRANCH   8  11
ENDBRANCH   3   4
ENDBRANCH   2   3
ENDBRANCH   1   2
BRANCH   1  17
ATOM     17  C   UNL     1      35.083 -19.179 -21.740  0.00  0.00    +0.110 C 
BRANCH  17  21
ATOM     18  F   UNL     1      33.940 -13.819 -24.510  0.00  0.00    -0.204 F 
ATOM     19  O   UNL     1      34.952 -20.024 -24.422  0.00  0.00    -0.246 OA
ATOM     20  O   UNL     1      34.113 -15.828 -26.039  0.00  0.00    -0.267 OA
ATOM     21  N   UNL     1      34.827 -18.290 -22.870  0.00  0.00    -0.281 N 
ATOM     22  N   UNL     1      34.536 -17.919 -25.188  0.00  0.00    -0.274 N 
ATOM     23  C   UNL     1      34.625 -16.895 -22.629  0.00  0.00    +0.071 A 
ATOM     24  C   UNL     1      34.785 -18.829 -24.163  0.00  0.00    +0.330 A 
ATOM     25  C   UNL     1      34.378 -16.027 -23.700  0.00  0.00    +0.099 A 
ATOM     26  C   UNL     1      34.666 -16.349 -21.335  0.00  0.00    +0.018 C 
ATOM     27  C   UNL     1      34.326 -16.555 -25.075  0.00  0.00    +0.265 A 
ATOM     28  C   UNL     1      34.178 -14.656 -23.490  0.00  0.00    +0.146 C 
ATOM     29  C   UNL     1      34.466 -14.982 -21.123  0.00  0.00    +0.004 C 
ATOM     30  C   UNL     1      34.222 -14.136 -22.200  0.00  0.00    +0.030 C 
ATOM     31  H   UNL     1      34.505 -18.289 -26.100  0.00  0.00    +0.173 HD
ENDBRANCH  17  21
ENDBRANCH   1  17
TORSDOF 6
ENDMDL
MODEL 6
REMARK VINA RESULT:     -11.4      3.611      6.547
REMARK  Name = 448890
REMARK  6 active torsions:
REMARK  status: ('A' for Active; 'I' for Inactive)
REMARK    1  A    between atoms: C_1  and  C_2
REMARK    2  A    between atoms: C_1  and  C_17
REMARK    3  A    between atoms: C_2  and  C_3
REMARK    4  A    between atoms: C_3  and  N_4
REMARK    5  A    between atoms: C_8  and  C_11
REMARK    6  A    between atoms: C_17  and  N_21
REMARK                            x       y       z     vdW  Elec       q    Type
REMARK                         _______ _______ _______ _____ _____    ______ ____
ROOT
ATOM      1  C   UNL     1      36.538 -19.064 -21.324  0.00  0.00    +0.022 C 
ENDROOT
BRANCH   1   2
ATOM      2  C   UNL     1      36.806 -19.820 -20.018  0.00  0.00    -0.021 C 
BRANCH   2   3
ATOM      3  C   UNL     1      36.325 -21.267 -20.112  0.00  0.00    -0.077 C 
BRANCH   3   4
ATOM      4  N   UNL     1      35.413 -21.571 -19.011  0.00  0.00    +0.390 N 
ATOM      5  C   UNL     1      34.360 -22.497 -19.438  0.00  0.00    -0.072 C 
ATOM      6  C   UNL     1      36.148 -22.115 -17.860  0.00  0.00    -0.051 C 
ATOM      7  C   UNL     1      33.326 -22.665 -18.314  0.00  0.00    +0.003 C 
ATOM      8  C   UNL     1      33.957 -22.936 -16.967  0.00  0.00    -0.031 C 
ATOM      9  C   UNL     1      35.266 -22.676 -16.777  0.00  0.00    -0.053 C 
ATOM     10  H   UNL     1      34.967 -20.699 -18.724  0.00  0.00    -0.079 HD
BRANCH   8  11
ATOM     11  C   UNL     1      33.102 -23.478 -15.885  0.00  0.00    -0.004 C 
ATOM     12  C   UNL     1      33.678 -23.941 -14.700  0.00  0.00    -0.000 C 
ATOM     13  C   UNL     1      31.715 -23.528 -16.046  0.00  0.00    -0.000 C 
ATOM     14  C   UNL     1      32.873 -24.451 -13.682  0.00  0.00    -0.000 C 
ATOM     15  C   UNL     1      30.909 -24.038 -15.028  0.00  0.00    -0.000 C 
ATOM     16  C   UNL     1      31.488 -24.500 -13.846  0.00  0.00    -0.000 C 
ENDBRANCH   8  11
ENDBRANCH   3   4
ENDBRANCH   2   3
ENDBRANCH   1   2
BRANCH   1  17
ATOM     17  C   UNL     1      35.053 -19.001 -21.671  0.00  0.00    +0.110 C 
BRANCH  17  21
ATOM     18  F   UNL     1      33.811 -13.779 -24.653  0.00  0.00    -0.204 F 
ATOM     19  O   UNL     1      34.982 -19.947 -24.321  0.00  0.00    -0.246 OA
ATOM     20  O   UNL     1      34.057 -15.837 -26.104  0.00  0.00    -0.267 OA
ATOM     21  N   UNL     1      34.790 -18.161 -22.836  0.00  0.00    -0.281 N 
ATOM     22  N   UNL     1      34.521 -17.883 -25.170  0.00  0.00    -0.274 N 
ATOM     23  C   UNL     1      34.548 -16.765 -22.650  0.00  0.00    +0.071 A 
ATOM     24  C   UNL     1      34.780 -18.748 -24.109  0.00  0.00    +0.330 A 
ATOM     25  C   UNL     1      34.294 -15.944 -23.756  0.00  0.00    +0.099 A 
ATOM     26  C   UNL     1      34.557 -16.171 -21.377  0.00  0.00    +0.018 C 
ATOM     27  C   UNL     1      34.275 -16.523 -25.110  0.00  0.00    +0.265 A 
ATOM     28  C   UNL     1      34.055 -14.571 -23.600  0.00  0.00    +0.146 C 
ATOM     29  C   UNL     1      34.319 -14.803 -21.218  0.00  0.00    +0.004 C 
ATOM     30  C   UNL     1      34.068 -14.004 -22.329  0.00  0.00    +0.030 C 
ATOM     31  H   UNL     1      34.513 -18.287 -26.069  0.00  0.00    +0.173 HD
ENDBRANCH  17  21
ENDBRANCH   1  17
TORSDOF 6
ENDMDL
MODEL 7
REMARK VINA RESULT:     -11.4      3.251     10.343
REMARK  Name = 448890
REMARK  6 active torsions:
REMARK  status: ('A' for Active; 'I' for Inactive)
REMARK    1  A    between atoms: C_1  and  C_2
REMARK    2  A    between atoms: C_1  and  C_17
REMARK    3  A    between atoms: C_2  and  C_3
REMARK    4  A    between atoms: C_3  and  N_4
REMARK    5  A    between atoms: C_8  and  C_11
REMARK    6  A    between atoms: C_17  and  N_21
REMARK                            x       y       z     vdW  Elec       q    Type
REMARK                         _______ _______ _______ _____ _____    ______ ____
ROOT
ATOM      1  C   UNL     1      32.728 -13.993 -21.059  0.00  0.00    +0.022 C 
ENDROOT
BRANCH   1   2
ATOM      2  C   UNL     1      31.903 -12.795 -21.541  0.00  0.00    -0.021 C 
BRANCH   2   3
ATOM      3  C   UNL     1      31.683 -11.788 -20.413  0.00  0.00    -0.077 C 
BRANCH   3   4
ATOM      4  N   UNL     1      31.424 -10.459 -20.963  0.00  0.00    +0.390 N 
ATOM      5  C   UNL     1      32.317  -9.459 -20.371  0.00  0.00    -0.072 C 
ATOM      6  C   UNL     1      31.553 -10.468 -22.428  0.00  0.00    -0.051 C 
ATOM      7  C   UNL     1      31.911  -8.054 -20.841  0.00  0.00    +0.003 C 
ATOM      8  C   UNL     1      31.701  -7.970 -22.336  0.00  0.00    -0.031 C 
ATOM      9  C   UNL     1      31.539  -9.099 -23.053  0.00  0.00    -0.053 C 
ATOM     10  H   UNL     1      30.465 -10.204 -20.726  0.00  0.00    -0.079 HD
BRANCH   8  11
ATOM     11  C   UNL     1      31.674  -6.629 -22.969  0.00  0.00    -0.004 C 
ATOM     12  C   UNL     1      31.164  -5.534 -22.269  0.00  0.00    -0.000 C 
ATOM     13  C   UNL     1      32.160  -6.457 -24.267  0.00  0.00    -0.000 C 
ATOM     14  C   UNL     1      31.139  -4.272 -22.864  0.00  0.00    -0.000 C 
ATOM     15  C   UNL     1      32.135  -5.196 -24.862  0.00  0.00    -0.000 C 
ATOM     16  C   UNL     1      31.624  -4.103 -24.161  0.00  0.00    -0.000 C 
ENDBRANCH   8  11
ENDBRANCH   3   4
ENDBRANCH   2   3
ENDBRANCH   1   2
BRANCH   1  17
ATOM     17  C   UNL     1      34.110 -14.051 -21.702  0.00  0.00    +0.110 C 
BRANCH  17  21
ATOM     18  F   UNL     1      35.132 -19.544 -24.249  0.00  0.00    -0.204 F 
ATOM     19  O   UNL     1      33.476 -13.480 -24.385  0.00  0.00    -0.246 OA
ATOM     20  O   UNL     1      34.359 -17.728 -25.833  0.00  0.00    -0.267 OA
ATOM     21  N   UNL     1      34.178 -15.025 -22.788  0.00  0.00    -0.281 N 
ATOM     22  N   UNL     1      33.926 -15.607 -25.067  0.00  0.00    -0.274 N 
ATOM     23  C   UNL     1      34.591 -16.363 -22.500  0.00  0.00    +0.071 A 
ATOM     24  C   UNL     1      33.836 -14.622 -24.086  0.00  0.00    +0.330 A 
ATOM     25  C   UNL     1      34.661 -17.312 -23.527  0.00  0.00    +0.099 A 
ATOM     26  C   UNL     1      34.934 -16.774 -21.200  0.00  0.00    +0.018 C 
ATOM     27  C   UNL     1      34.311 -16.927 -24.906  0.00  0.00    +0.265 A 
ATOM     28  C   UNL     1      35.062 -18.630 -23.271  0.00  0.00    +0.146 C 
ATOM     29  C   UNL     1      35.334 -18.088 -20.942  0.00  0.00    +0.004 C 
ATOM     30  C   UNL     1      35.398 -19.015 -21.976  0.00  0.00    +0.030 C 
ATOM     31  H   UNL     1      33.688 -15.333 -25.982  0.00  0.00    +0.173 HD
ENDBRANCH  17  21
ENDBRANCH   1  17
TORSDOF 6
ENDMDL
MODEL 8
REMARK VINA RESULT:     -11.3      6.715     11.515
REMARK  Name = 448890
REMARK  6 active torsions:
REMARK  status: ('A' for Active; 'I' for Inactive)
REMARK    1  A    between atoms: C_1  and  C_2
REMARK    2  A    between atoms: C_1  and  C_17
REMARK    3  A    between atoms: C_2  and  C_3
REMARK    4  A    between atoms: C_3  and  N_4
REMARK    5  A    between atoms: C_8  and  C_11
REMARK    6  A    between atoms: C_17  and  N_21
REMARK                            x       y       z     vdW  Elec       q    Type
REMARK                         _______ _______ _______ _____ _____    ______ ____
ROOT
ATOM      1  C   UNL     1      36.737 -22.121 -15.712  0.00  0.00    +0.022 C 
ENDROOT
BRANCH   1   2
ATOM      2  C   UNL     1      37.118 -21.363 -16.988  0.00  0.00    -0.021 C 
BRANCH   2   3
ATOM      3  C   UNL     1      36.331 -21.880 -18.191  0.00  0.00    -0.077 C 
BRANCH   3   4
ATOM      4  N   UNL     1      36.021 -20.782 -19.104  0.00  0.00    +0.390 N 
ATOM      5  C   UNL     1      37.108 -20.570 -20.065  0.00  0.00    -0.072 C 
ATOM      6  C   UNL     1      34.751 -21.028 -19.803  0.00  0.00    -0.051 C 
ATOM      7  C   UNL     1      36.830 -19.310 -20.898  0.00  0.00    +0.003 C 
ATOM      8  C   UNL     1      35.423 -19.266 -21.451  0.00  0.00    -0.031 C 
ATOM      9  C   UNL     1      34.475 -20.071 -20.931  0.00  0.00    -0.053 C 
ATOM     10  H   UNL     1      35.923 -19.931 -18.549  0.00  0.00    -0.079 HD
BRANCH   8  11
ATOM     11  C   UNL     1      35.130 -18.322 -22.555  0.00  0.00    -0.004 C 
ATOM     12  C   UNL     1      34.877 -18.803 -23.841  0.00  0.00    -0.000 C 
ATOM     13  C   UNL     1      35.105 -16.946 -22.313  0.00  0.00    -0.000 C 
ATOM     14  C   UNL     1      34.601 -17.914 -24.880  0.00  0.00    -0.000 C 
ATOM     15  C   UNL     1      34.829 -16.057 -23.352  0.00  0.00    -0.000 C 
ATOM     16  C   UNL     1      34.577 -16.541 -24.636  0.00  0.00    -0.000 C 
ENDBRANCH   8  11
ENDBRANCH   3   4
ENDBRANCH   2   3
ENDBRANCH   1   2
BRANCH   1  17
ATOM     17  C   UNL     1      36.215 -23.526 -15.998  0.00  0.00    +0.110 C 
BRANCH  17  21
ATOM     18  F   UNL     1      30.224 -23.913 -14.710  0.00  0.00    -0.204 F 
ATOM     19  O   UNL     1      36.331 -24.713 -13.448  0.00  0.00    -0.246 OA
ATOM     20  O   UNL     1      31.787 -24.797 -12.927  0.00  0.00    -0.267 OA
ATOM     21  N   UNL     1      35.043 -23.859 -15.192  0.00  0.00    -0.281 N 
ATOM     22  N   UNL     1      34.063 -24.737 -13.227  0.00  0.00    -0.274 N 
ATOM     23  C   UNL     1      33.740 -23.574 -15.706  0.00  0.00    +0.071 A 
ATOM     24  C   UNL     1      35.228 -24.449 -13.935  0.00  0.00    +0.330 A 
ATOM     25  C   UNL     1      32.604 -23.886 -14.948  0.00  0.00    +0.099 A 
ATOM     26  C   UNL     1      33.549 -22.983 -16.966  0.00  0.00    +0.018 C 
ATOM     27  C   UNL     1      32.757 -24.508 -13.621  0.00  0.00    +0.265 A 
ATOM     28  C   UNL     1      31.316 -23.618 -15.430  0.00  0.00    +0.146 C 
ATOM     29  C   UNL     1      32.265 -22.714 -17.448  0.00  0.00    +0.004 C 
ATOM     30  C   UNL     1      31.149 -23.031 -16.681  0.00  0.00    +0.030 C 
ATOM     31  H   UNL     1      34.184 -25.152 -12.342  0.00  0.00    +0.173 HD
ENDBRANCH  17  21
ENDBRANCH   1  17
TORSDOF 6
ENDMDL
MODEL 9
REMARK VINA RESULT:     -11.3      3.702     10.601
REMARK  Name = 448890
REMARK  6 active torsions:
REMARK  status: ('A' for Active; 'I' for Inactive)
REMARK    1  A    between atoms: C_1  and  C_2
REMARK    2  A    between atoms: C_1  and  C_17
REMARK    3  A    between atoms: C_2  and  C_3
REMARK    4  A    between atoms: C_3  and  N_4
REMARK    5  A    between atoms: C_8  and  C_11
REMARK    6  A    between atoms: C_17  and  N_21
REMARK                            x       y       z     vdW  Elec       q    Type
REMARK                         _______ _______ _______ _____ _____    ______ ____
ROOT
ATOM      1  C   UNL     1      33.613 -12.582 -25.216  0.00  0.00    +0.022 C 
ENDROOT
BRANCH   1   2
ATOM      2  C   UNL     1      34.132 -11.617 -24.145  0.00  0.00    -0.021 C 
BRANCH   2   3
ATOM      3  C   UNL     1      32.979 -11.017 -23.340  0.00  0.00    -0.077 C 
BRANCH   3   4
ATOM      4  N   UNL     1      32.672  -9.672 -23.821  0.00  0.00    +0.390 N 
ATOM      5  C   UNL     1      31.540  -9.095 -23.089  0.00  0.00    -0.072 C 
ATOM      6  C   UNL     1      33.852  -8.801 -23.721  0.00  0.00    -0.051 C 
ATOM      7  C   UNL     1      31.136  -7.756 -23.725  0.00  0.00    +0.003 C 
ATOM      8  C   UNL     1      32.313  -6.842 -23.975  0.00  0.00    -0.031 C 
ATOM      9  C   UNL     1      33.563  -7.344 -23.967  0.00  0.00    -0.053 C 
ATOM     10  H   UNL     1      32.407  -9.743 -24.804  0.00  0.00    -0.079 HD
BRANCH   8  11
ATOM     11  C   UNL     1      32.048  -5.406 -24.230  0.00  0.00    -0.004 C 
ATOM     12  C   UNL     1      31.490  -4.607 -23.229  0.00  0.00    -0.000 C 
ATOM     13  C   UNL     1      32.356  -4.846 -25.472  0.00  0.00    -0.000 C 
ATOM     14  C   UNL     1      31.241  -3.256 -23.469  0.00  0.00    -0.000 C 
ATOM     15  C   UNL     1      32.107  -3.494 -25.712  0.00  0.00    -0.000 C 
ATOM     16  C   UNL     1      31.549  -2.699 -24.711  0.00  0.00    -0.000 C 
ENDBRANCH   8  11
ENDBRANCH   3   4
ENDBRANCH   2   3
ENDBRANCH   1   2
BRANCH   1  17
ATOM     17  C   UNL     1      32.735 -13.686 -24.635  0.00  0.00    +0.110 C 
BRANCH  17  21
ATOM     18  F   UNL     1      35.680 -17.967 -21.363  0.00  0.00    -0.204 F 
ATOM     19  O   UNL     1      33.429 -15.487 -26.685  0.00  0.00    -0.246 OA
ATOM     20  O   UNL     1      35.529 -18.401 -23.852  0.00  0.00    -0.267 OA
ATOM     21  N   UNL     1      33.472 -14.929 -24.423  0.00  0.00    -0.281 N 
ATOM     22  N   UNL     1      34.466 -16.913 -25.241  0.00  0.00    -0.274 N 
ATOM     23  C   UNL     1      33.882 -15.279 -23.099  0.00  0.00    +0.071 A 
ATOM     24  C   UNL     1      33.760 -15.746 -25.524  0.00  0.00    +0.330 A 
ATOM     25  C   UNL     1      34.590 -16.466 -22.875  0.00  0.00    +0.099 A 
ATOM     26  C   UNL     1      33.597 -14.463 -21.990  0.00  0.00    +0.018 C 
ATOM     27  C   UNL     1      34.912 -17.352 -24.007  0.00  0.00    +0.265 A 
ATOM     28  C   UNL     1      35.002 -16.832 -21.586  0.00  0.00    +0.146 C 
ATOM     29  C   UNL     1      34.007 -14.826 -20.705  0.00  0.00    +0.004 C 
ATOM     30  C   UNL     1      34.710 -16.009 -20.502  0.00  0.00    +0.030 C 
ATOM     31  H   UNL     1      34.672 -17.494 -26.010  0.00  0.00    +0.173 HD
ENDBRANCH  17  21
ENDBRANCH   1  17
TORSDOF 6
ENDMDL
