MODEL 1
REMARK VINA RESULT:      -7.2      0.000      0.000
REMARK  Name = 18735
REMARK  3 active torsions:
REMARK  status: ('A' for Active; 'I' for Inactive)
REMARK    1  A    between atoms: C_6  and  C_12
REMARK    2  A    between atoms: C_6  and  C_15
REMARK    3  A    between atoms: C_15  and  C_17
REMARK                            x       y       z     vdW  Elec       q    Type
REMARK                         _______ _______ _______ _____ _____    ______ ____
ROOT
ATOM      1  O   UNL     1      32.888  -7.406 -20.047  0.00  0.00    -0.274 OA
ATOM      2  O   UNL     1      31.180  -7.915 -24.320  0.00  0.00    -0.274 OA
ATOM      3  O   UNL     1      30.671 -11.298 -21.280  0.00  0.00    -0.252 OA
ATOM      4  N   UNL     1      31.952  -9.453 -20.641  0.00  0.00    -0.212 N 
ATOM      5  N   UNL     1      30.999  -9.623 -22.798  0.00  0.00    -0.239 N 
ATOM      6  C   UNL     1      32.662  -7.882 -22.403  0.00  0.00    +0.143 C 
ATOM      7  C   UNL     1      32.503  -8.191 -20.915  0.00  0.00    +0.240 C 
ATOM      8  C   UNL     1      31.537  -8.434 -23.263  0.00  0.00    +0.237 C 
ATOM      9  C   UNL     1      31.189 -10.212 -21.551  0.00  0.00    +0.316 C 
ATOM     10  C   UNL     1      32.035  -9.946 -19.271  0.00  0.00    +0.124 C 
ATOM     11  H   UNL     1      30.412 -10.108 -23.423  0.00  0.00    +0.159 HD
ENDROOT
BRANCH   6  12
ATOM     12  C   UNL     1      33.970  -8.543 -22.872  0.00  0.00    +0.017 C 
ATOM     13  C   UNL     1      33.670  -9.652 -23.874  0.00  0.00    +0.001 C 
ATOM     14  C   UNL     1      34.902  -7.500 -23.476  0.00  0.00    +0.001 C 
ENDBRANCH   6  12
BRANCH   6  15
ATOM     15  C   UNL     1      32.765  -6.362 -22.611  0.00  0.00    +0.051 C 
BRANCH  15  17
ATOM     16 BR   UNL     1      31.054  -4.841 -24.326  0.00  0.00    -0.054 Br
ATOM     17  C   UNL     1      31.418  -5.714 -22.711  0.00  0.00    +0.013 C 
ATOM     18  C   UNL     1      30.541  -5.699 -21.699  0.00  0.00    +0.003 C 
ENDBRANCH  15  17
ENDBRANCH   6  15
TORSDOF 3
ENDMDL
MODEL 2
REMARK VINA RESULT:      -6.5     17.220     18.738
REMARK  Name = 18735
REMARK  3 active torsions:
REMARK  status: ('A' for Active; 'I' for Inactive)
REMARK    1  A    between atoms: C_6  and  C_12
REMARK    2  A    between atoms: C_6  and  C_15
REMARK    3  A    between atoms: C_15  and  C_17
REMARK                            x       y       z     vdW  Elec       q    Type
REMARK                         _______ _______ _______ _____ _____    ______ ____
ROOT
ATOM      1  O   UNL     1      35.309 -25.586 -15.758  0.00  0.00    -0.274 OA
ATOM      2  O   UNL     1      38.102 -23.206 -12.936  0.00  0.00    -0.274 OA
ATOM      3  O   UNL     1      33.626 -23.428 -12.004  0.00  0.00    -0.252 OA
ATOM      4  N   UNL     1      34.364 -24.385 -14.002  0.00  0.00    -0.212 N 
ATOM      5  N   UNL     1      35.845 -23.275 -12.530  0.00  0.00    -0.239 N 
ATOM      6  C   UNL     1      36.644 -23.837 -14.766  0.00  0.00    +0.143 C 
ATOM      7  C   UNL     1      35.397 -24.712 -14.895  0.00  0.00    +0.240 C 
ATOM      8  C   UNL     1      36.961 -23.437 -13.334  0.00  0.00    +0.237 C 
ATOM      9  C   UNL     1      34.536 -23.667 -12.802  0.00  0.00    +0.316 C 
ATOM     10  C   UNL     1      33.048 -24.962 -14.247  0.00  0.00    +0.124 C 
ATOM     11  H   UNL     1      35.995 -22.832 -11.663  0.00  0.00    +0.159 HD
ENDROOT
BRANCH   6  12
ATOM     12  C   UNL     1      36.381 -22.544 -15.559  0.00  0.00    +0.017 C 
ATOM     13  C   UNL     1      37.653 -22.096 -16.270  0.00  0.00    +0.001 C 
ATOM     14  C   UNL     1      35.246 -22.757 -16.553  0.00  0.00    +0.001 C 
ENDBRANCH   6  12
BRANCH   6  15
ATOM     15  C   UNL     1      37.854 -24.563 -15.373  0.00  0.00    +0.051 C 
BRANCH  15  17
ATOM     16 BR   UNL     1      40.240 -25.644 -14.222  0.00  0.00    -0.054 Br
ATOM     17  C   UNL     1      38.384 -25.633 -14.469  0.00  0.00    +0.013 C 
ATOM     18  C   UNL     1      37.602 -26.565 -13.910  0.00  0.00    +0.003 C 
ENDBRANCH  15  17
ENDBRANCH   6  15
TORSDOF 3
ENDMDL
MODEL 3
REMARK VINA RESULT:      -6.3     17.100     19.376
REMARK  Name = 18735
REMARK  3 active torsions:
REMARK  status: ('A' for Active; 'I' for Inactive)
REMARK    1  A    between atoms: C_6  and  C_12
REMARK    2  A    between atoms: C_6  and  C_15
REMARK    3  A    between atoms: C_15  and  C_17
REMARK                            x       y       z     vdW  Elec       q    Type
REMARK                         _______ _______ _______ _____ _____    ______ ____
ROOT
ATOM      1  O   UNL     1      37.914 -23.405 -15.259  0.00  0.00    -0.274 OA
ATOM      2  O   UNL     1      36.434 -26.012 -11.731  0.00  0.00    -0.274 OA
ATOM      3  O   UNL     1      33.374 -23.934 -14.428  0.00  0.00    -0.252 OA
ATOM      4  N   UNL     1      35.633 -23.474 -14.800  0.00  0.00    -0.212 N 
ATOM      5  N   UNL     1      34.922 -24.903 -13.056  0.00  0.00    -0.239 N 
ATOM      6  C   UNL     1      37.246 -24.159 -13.065  0.00  0.00    +0.143 C 
ATOM      7  C   UNL     1      36.989 -23.664 -14.488  0.00  0.00    +0.240 C 
ATOM      8  C   UNL     1      36.195 -25.135 -12.561  0.00  0.00    +0.237 C 
ATOM      9  C   UNL     1      34.559 -24.073 -14.113  0.00  0.00    +0.316 C 
ATOM     10  C   UNL     1      35.315 -22.734 -16.015  0.00  0.00    +0.124 C 
ATOM     11  H   UNL     1      34.189 -25.384 -12.608  0.00  0.00    +0.159 HD
ENDROOT
BRANCH   6  12
ATOM     12  C   UNL     1      37.217 -22.930 -12.139  0.00  0.00    +0.017 C 
ATOM     13  C   UNL     1      36.513 -23.273 -10.831  0.00  0.00    +0.001 C 
ATOM     14  C   UNL     1      38.633 -22.429 -11.882  0.00  0.00    +0.001 C 
ENDBRANCH   6  12
BRANCH   6  15
ATOM     15  C   UNL     1      38.633 -24.815 -12.984  0.00  0.00    +0.051 C 
BRANCH  15  17
ATOM     16 BR   UNL     1      40.494 -25.716 -14.963  0.00  0.00    -0.054 Br
ATOM     17  C   UNL     1      38.848 -25.818 -14.077  0.00  0.00    +0.013 C 
ATOM     18  C   UNL     1      37.911 -26.700 -14.448  0.00  0.00    +0.003 C 
ENDBRANCH  15  17
ENDBRANCH   6  15
TORSDOF 3
ENDMDL
MODEL 4
REMARK VINA RESULT:      -6.2     16.900     18.591
REMARK  Name = 18735
REMARK  3 active torsions:
REMARK  status: ('A' for Active; 'I' for Inactive)
REMARK    1  A    between atoms: C_6  and  C_12
REMARK    2  A    between atoms: C_6  and  C_15
REMARK    3  A    between atoms: C_15  and  C_17
REMARK                            x       y       z     vdW  Elec       q    Type
REMARK                         _______ _______ _______ _____ _____    ______ ____
ROOT
ATOM      1  O   UNL     1      37.910 -22.245 -13.182  0.00  0.00    -0.274 OA
ATOM      2  O   UNL     1      35.565 -25.386 -15.645  0.00  0.00    -0.274 OA
ATOM      3  O   UNL     1      34.870 -25.097 -11.130  0.00  0.00    -0.252 OA
ATOM      4  N   UNL     1      36.542 -23.755 -12.056  0.00  0.00    -0.212 N 
ATOM      5  N   UNL     1      35.287 -25.267 -13.370  0.00  0.00    -0.239 N 
ATOM      6  C   UNL     1      37.278 -24.258 -14.355  0.00  0.00    +0.143 C 
ATOM      7  C   UNL     1      37.272 -23.299 -13.165  0.00  0.00    +0.240 C 
ATOM      8  C   UNL     1      35.964 -24.996 -14.548  0.00  0.00    +0.237 C 
ATOM      9  C   UNL     1      35.536 -24.740 -12.106  0.00  0.00    +0.316 C 
ATOM     10  C   UNL     1      36.723 -23.053 -10.791  0.00  0.00    +0.124 C 
ATOM     11  H   UNL     1      34.541 -25.906 -13.436  0.00  0.00    +0.159 HD
ENDROOT
BRANCH   6  12
ATOM     12  C   UNL     1      38.366 -25.314 -14.087  0.00  0.00    +0.017 C 
ATOM     13  C   UNL     1      37.856 -26.701 -14.459  0.00  0.00    +0.001 C 
ATOM     14  C   UNL     1      39.633 -24.973 -14.862  0.00  0.00    +0.001 C 
ENDBRANCH   6  12
BRANCH   6  15
ATOM     15  C   UNL     1      37.628 -23.491 -15.640  0.00  0.00    +0.051 C 
BRANCH  15  17
ATOM     16 BR   UNL     1      36.756 -21.754 -17.740  0.00  0.00    -0.054 Br
ATOM     17  C   UNL     1      36.508 -22.603 -16.090  0.00  0.00    +0.013 C 
ATOM     18  C   UNL     1      35.419 -22.373 -15.346  0.00  0.00    +0.003 C 
ENDBRANCH  15  17
ENDBRANCH   6  15
TORSDOF 3
ENDMDL
MODEL 5
REMARK VINA RESULT:      -6.1     16.966     18.882
REMARK  Name = 18735
REMARK  3 active torsions:
REMARK  status: ('A' for Active; 'I' for Inactive)
REMARK    1  A    between atoms: C_6  and  C_12
REMARK    2  A    between atoms: C_6  and  C_15
REMARK    3  A    between atoms: C_15  and  C_17
REMARK                            x       y       z     vdW  Elec       q    Type
REMARK                         _______ _______ _______ _____ _____    ______ ____
ROOT
ATOM      1  O   UNL     1      35.641 -25.350 -15.845  0.00  0.00    -0.274 OA
ATOM      2  O   UNL     1      37.434 -22.201 -12.964  0.00  0.00    -0.274 OA
ATOM      3  O   UNL     1      39.375 -26.335 -13.262  0.00  0.00    -0.252 OA
ATOM      4  N   UNL     1      37.399 -25.979 -14.454  0.00  0.00    -0.212 N 
ATOM      5  N   UNL     1      38.346 -24.303 -13.081  0.00  0.00    -0.239 N 
ATOM      6  C   UNL     1      36.077 -23.969 -13.913  0.00  0.00    +0.143 C 
ATOM      7  C   UNL     1      36.344 -25.143 -14.854  0.00  0.00    +0.240 C 
ATOM      8  C   UNL     1      37.337 -23.380 -13.301  0.00  0.00    +0.237 C 
ATOM      9  C   UNL     1      38.428 -25.605 -13.568  0.00  0.00    +0.316 C 
ATOM     10  C   UNL     1      37.532 -27.268 -15.121  0.00  0.00    +0.124 C 
ATOM     11  H   UNL     1      39.093 -24.003 -12.514  0.00  0.00    +0.159 HD
ENDROOT
BRANCH   6  12
ATOM     12  C   UNL     1      35.206 -24.497 -12.758  0.00  0.00    +0.017 C 
ATOM     13  C   UNL     1      35.619 -23.841 -11.445  0.00  0.00    +0.001 C 
ATOM     14  C   UNL     1      33.732 -24.248 -13.052  0.00  0.00    +0.001 C 
ENDBRANCH   6  12
BRANCH   6  15
ATOM     15  C   UNL     1      35.307 -22.868 -14.659  0.00  0.00    +0.051 C 
BRANCH  15  17
ATOM     16 BR   UNL     1      34.710 -22.795 -17.456  0.00  0.00    -0.054 Br
ATOM     17  C   UNL     1      35.886 -22.593 -16.013  0.00  0.00    +0.013 C 
ATOM     18  C   UNL     1      37.174 -22.279 -16.203  0.00  0.00    +0.003 C 
ENDBRANCH  15  17
ENDBRANCH   6  15
TORSDOF 3
ENDMDL
MODEL 6
REMARK VINA RESULT:      -6.0     17.071     18.623
REMARK  Name = 18735
REMARK  3 active torsions:
REMARK  status: ('A' for Active; 'I' for Inactive)
REMARK    1  A    between atoms: C_6  and  C_12
REMARK    2  A    between atoms: C_6  and  C_15
REMARK    3  A    between atoms: C_15  and  C_17
REMARK                            x       y       z     vdW  Elec       q    Type
REMARK                         _______ _______ _______ _____ _____    ______ ____
ROOT
ATOM      1  O   UNL     1      37.588 -22.948 -13.056  0.00  0.00    -0.274 OA
ATOM      2  O   UNL     1      34.472 -25.443 -15.401  0.00  0.00    -0.274 OA
ATOM      3  O   UNL     1      38.698 -27.102 -14.816  0.00  0.00    -0.252 OA
ATOM      4  N   UNL     1      38.272 -24.934 -14.060  0.00  0.00    -0.212 N 
ATOM      5  N   UNL     1      36.617 -26.220 -15.153  0.00  0.00    -0.239 N 
ATOM      6  C   UNL     1      36.193 -23.842 -14.812  0.00  0.00    +0.143 C 
ATOM      7  C   UNL     1      37.395 -23.854 -13.869  0.00  0.00    +0.240 C 
ATOM      8  C   UNL     1      35.652 -25.227 -15.125  0.00  0.00    +0.237 C 
ATOM      9  C   UNL     1      37.930 -26.143 -14.697  0.00  0.00    +0.316 C 
ATOM     10  C   UNL     1      39.578 -24.868 -13.417  0.00  0.00    +0.124 C 
ATOM     11  H   UNL     1      36.341 -27.083 -15.540  0.00  0.00    +0.159 HD
ENDROOT
BRANCH   6  12
ATOM     12  C   UNL     1      36.657 -23.216 -16.139  0.00  0.00    +0.017 C 
ATOM     13  C   UNL     1      35.460 -22.681 -16.916  0.00  0.00    +0.001 C 
ATOM     14  C   UNL     1      37.674 -22.113 -15.875  0.00  0.00    +0.001 C 
ENDBRANCH   6  12
BRANCH   6  15
ATOM     15  C   UNL     1      35.071 -22.978 -14.215  0.00  0.00    +0.051 C 
BRANCH  15  17
ATOM     16 BR   UNL     1      32.388 -23.812 -13.672  0.00  0.00    -0.054 Br
ATOM     17  C   UNL     1      34.214 -23.749 -13.258  0.00  0.00    +0.013 C 
ATOM     18  C   UNL     1      34.694 -24.313 -12.143  0.00  0.00    +0.003 C 
ENDBRANCH  15  17
ENDBRANCH   6  15
TORSDOF 3
ENDMDL
MODEL 7
REMARK VINA RESULT:      -5.9     17.562     19.334
REMARK  Name = 18735
REMARK  3 active torsions:
REMARK  status: ('A' for Active; 'I' for Inactive)
REMARK    1  A    between atoms: C_6  and  C_12
REMARK    2  A    between atoms: C_6  and  C_15
REMARK    3  A    between atoms: C_15  and  C_17
REMARK                            x       y       z     vdW  Elec       q    Type
REMARK                         _______ _______ _______ _____ _____    ______ ____
ROOT
ATOM      1  O   UNL     1      35.690 -25.150 -16.080  0.00  0.00    -0.274 OA
ATOM      2  O   UNL     1      36.557 -25.853 -11.588  0.00  0.00    -0.274 OA
ATOM      3  O   UNL     1      32.804 -23.539 -12.816  0.00  0.00    -0.252 OA
ATOM      4  N   UNL     1      34.295 -24.157 -14.503  0.00  0.00    -0.212 N 
ATOM      5  N   UNL     1      34.719 -24.636 -12.227  0.00  0.00    -0.239 N 
ATOM      6  C   UNL     1      36.535 -24.934 -13.830  0.00  0.00    +0.143 C 
ATOM      7  C   UNL     1      35.477 -24.789 -14.922  0.00  0.00    +0.240 C 
ATOM      8  C   UNL     1      35.955 -25.220 -12.454  0.00  0.00    +0.237 C 
ATOM      9  C   UNL     1      33.869 -24.054 -13.164  0.00  0.00    +0.316 C 
ATOM     10  C   UNL     1      33.361 -23.716 -15.533  0.00  0.00    +0.124 C 
ATOM     11  H   UNL     1      34.405 -24.634 -11.294  0.00  0.00    +0.159 HD
ENDROOT
BRANCH   6  12
ATOM     12  C   UNL     1      37.293 -23.597 -13.743  0.00  0.00    +0.017 C 
ATOM     13  C   UNL     1      36.854 -22.670 -14.870  0.00  0.00    +0.001 C 
ATOM     14  C   UNL     1      37.064 -22.948 -12.383  0.00  0.00    +0.001 C 
ENDBRANCH   6  12
BRANCH   6  15
ATOM     15  C   UNL     1      37.524 -26.048 -14.208  0.00  0.00    +0.051 C 
BRANCH  15  17
ATOM     16 BR   UNL     1      39.796 -25.066 -15.645  0.00  0.00    -0.054 Br
ATOM     17  C   UNL     1      38.950 -25.610 -14.065  0.00  0.00    +0.013 C 
ATOM     18  C   UNL     1      39.611 -25.652 -12.901  0.00  0.00    +0.003 C 
ENDBRANCH  15  17
ENDBRANCH   6  15
TORSDOF 3
ENDMDL
MODEL 8
REMARK VINA RESULT:      -5.8     16.980     18.747
REMARK  Name = 18735
REMARK  3 active torsions:
REMARK  status: ('A' for Active; 'I' for Inactive)
REMARK    1  A    between atoms: C_6  and  C_12
REMARK    2  A    between atoms: C_6  and  C_15
REMARK    3  A    between atoms: C_15  and  C_17
REMARK                            x       y       z     vdW  Elec       q    Type
REMARK                         _______ _______ _______ _____ _____    ______ ____
ROOT
ATOM      1  O   UNL     1      34.212 -23.164 -12.546  0.00  0.00    -0.274 OA
ATOM      2  O   UNL     1      35.590 -26.017 -15.921  0.00  0.00    -0.274 OA
ATOM      3  O   UNL     1      37.369 -26.472 -11.728  0.00  0.00    -0.252 OA
ATOM      4  N   UNL     1      35.926 -24.674 -12.103  0.00  0.00    -0.212 N 
ATOM      5  N   UNL     1      36.517 -26.179 -13.828  0.00  0.00    -0.239 N 
ATOM      6  C   UNL     1      35.372 -24.113 -14.438  0.00  0.00    +0.143 C 
ATOM      7  C   UNL     1      35.082 -23.937 -12.948  0.00  0.00    +0.240 C 
ATOM      8  C   UNL     1      35.799 -25.522 -14.814  0.00  0.00    +0.237 C 
ATOM      9  C   UNL     1      36.668 -25.806 -12.495  0.00  0.00    +0.316 C 
ATOM     10  C   UNL     1      35.916 -24.346 -10.682  0.00  0.00    +0.124 C 
ATOM     11  H   UNL     1      36.974 -27.007 -14.102  0.00  0.00    +0.159 HD
ENDROOT
BRANCH   6  12
ATOM     12  C   UNL     1      36.534 -23.168 -14.794  0.00  0.00    +0.017 C 
ATOM     13  C   UNL     1      37.790 -23.973 -15.107  0.00  0.00    +0.001 C 
ATOM     14  C   UNL     1      36.150 -22.278 -15.969  0.00  0.00    +0.001 C 
ENDBRANCH   6  12
BRANCH   6  15
ATOM     15  C   UNL     1      34.134 -23.718 -15.260  0.00  0.00    +0.051 C 
BRANCH  15  17
ATOM     16 BR   UNL     1      31.530 -22.809 -14.499  0.00  0.00    -0.054 Br
ATOM     17  C   UNL     1      32.858 -24.126 -14.589  0.00  0.00    +0.013 C 
ATOM     18  C   UNL     1      32.682 -25.331 -14.033  0.00  0.00    +0.003 C 
ENDBRANCH  15  17
ENDBRANCH   6  15
TORSDOF 3
ENDMDL
MODEL 9
REMARK VINA RESULT:      -5.7     16.355     18.715
REMARK  Name = 18735
REMARK  3 active torsions:
REMARK  status: ('A' for Active; 'I' for Inactive)
REMARK    1  A    between atoms: C_6  and  C_12
REMARK    2  A    between atoms: C_6  and  C_15
REMARK    3  A    between atoms: C_15  and  C_17
REMARK                            x       y       z     vdW  Elec       q    Type
REMARK                         _______ _______ _______ _____ _____    ______ ____
ROOT
ATOM      1  O   UNL     1      38.566 -23.385 -15.250  0.00  0.00    -0.274 OA
ATOM      2  O   UNL     1      34.842 -25.905 -14.147  0.00  0.00    -0.274 OA
ATOM      3  O   UNL     1      34.451 -22.552 -17.238  0.00  0.00    -0.252 OA
ATOM      4  N   UNL     1      36.505 -22.790 -16.153  0.00  0.00    -0.212 N 
ATOM      5  N   UNL     1      34.658 -24.173 -15.642  0.00  0.00    -0.239 N 
ATOM      6  C   UNL     1      36.588 -24.224 -14.150  0.00  0.00    +0.143 C 
ATOM      7  C   UNL     1      37.336 -23.453 -15.236  0.00  0.00    +0.240 C 
ATOM      8  C   UNL     1      35.306 -24.878 -14.641  0.00  0.00    +0.237 C 
ATOM      9  C   UNL     1      35.155 -23.113 -16.395  0.00  0.00    +0.316 C 
ATOM     10  C   UNL     1      37.119 -21.803 -17.033  0.00  0.00    +0.124 C 
ATOM     11  H   UNL     1      33.737 -24.457 -15.846  0.00  0.00    +0.159 HD
ENDROOT
BRANCH   6  12
ATOM     12  C   UNL     1      36.201 -23.215 -13.054  0.00  0.00    +0.017 C 
ATOM     13  C   UNL     1      35.067 -23.773 -12.201  0.00  0.00    +0.001 C 
ATOM     14  C   UNL     1      37.414 -22.878 -12.195  0.00  0.00    +0.001 C 
ENDBRANCH   6  12
BRANCH   6  15
ATOM     15  C   UNL     1      37.508 -25.296 -13.544  0.00  0.00    +0.051 C 
BRANCH  15  17
ATOM     16 BR   UNL     1      40.039 -25.988 -14.684  0.00  0.00    -0.054 Br
ATOM     17  C   UNL     1      38.174 -26.128 -14.597  0.00  0.00    +0.013 C 
ATOM     18  C   UNL     1      37.491 -26.885 -15.466  0.00  0.00    +0.003 C 
ENDBRANCH  15  17
ENDBRANCH   6  15
TORSDOF 3
ENDMDL
