MODEL 1
REMARK VINA RESULT:      -8.5      0.000      0.000
REMARK  Name = 216327
REMARK  4 active torsions:
REMARK  status: ('A' for Active; 'I' for Inactive)
REMARK    1  A    between atoms: C_1  and  C_3
REMARK    2  A    between atoms: C_1  and  C_10
REMARK    3  A    between atoms: C_1  and  C_16
REMARK    4  A    between atoms: C_1  and  C_24
REMARK                            x       y       z     vdW  Elec       q    Type
REMARK                         _______ _______ _______ _____ _____    ______ ____
ROOT
ATOM      1  C   UNL     1      35.149 -24.140 -14.609  0.00  0.00    +0.125 C 
ENDROOT
BRANCH   1   3
ATOM      2  F   UNL     1      29.538 -23.876 -14.451  0.00  0.00    -0.204 F 
ATOM      3  C   UNL     1      33.556 -24.066 -14.564  0.00  0.00    -0.007 C 
ATOM      4  C   UNL     1      32.919 -25.201 -14.225  0.00  0.00    -0.001 C 
ATOM      5  C   UNL     1      33.010 -22.874 -14.869  0.00  0.00    -0.001 C 
ATOM      6  C   UNL     1      31.525 -25.136 -14.186  0.00  0.00    +0.029 C 
ATOM      7  C   UNL     1      31.618 -22.809 -14.830  0.00  0.00    +0.029 C 
ATOM      8  C   UNL     1      30.875 -23.939 -14.490  0.00  0.00    +0.140 C 
ENDBRANCH   1   3
BRANCH   1  10
ATOM      9  F   UNL     1      36.227 -21.032 -19.167  0.00  0.00    -0.204 F 
ATOM     10  C   UNL     1      35.456 -23.256 -15.907  0.00  0.00    -0.007 C 
ATOM     11  C   UNL     1      34.527 -23.291 -16.878  0.00  0.00    -0.001 C 
ATOM     12  C   UNL     1      36.610 -22.569 -15.891  0.00  0.00    -0.001 C 
ATOM     13  C   UNL     1      34.795 -22.520 -18.008  0.00  0.00    +0.029 C 
ATOM     14  C   UNL     1      36.879 -21.797 -17.022  0.00  0.00    +0.029 C 
ATOM     15  C   UNL     1      35.970 -21.773 -18.081  0.00  0.00    +0.140 C 
ENDBRANCH   1  10
BRANCH   1  16
ATOM     16  C   UNL     1      35.893 -23.755 -13.375  0.00  0.00    -0.007 C 
ATOM     17  C   UNL     1      35.274 -23.858 -12.129  0.00  0.00    -0.003 C 
ATOM     18  C   UNL     1      37.205 -23.293 -13.467  0.00  0.00    -0.003 C 
ATOM     19  C   UNL     1      35.970 -23.498 -10.974  0.00  0.00    -0.000 C 
ATOM     20  C   UNL     1      37.901 -22.933 -12.312  0.00  0.00    -0.000 C 
ATOM     21  C   UNL     1      37.282 -23.036 -11.066  0.00  0.00    -0.000 C 
ENDBRANCH   1  16
BRANCH   1  24
ATOM     22  O   UNL     1      35.532 -26.191 -15.989  0.00  0.00    -0.274 OA
ATOM     23  N   UNL     1      36.298 -26.226 -13.842  0.00  0.00    -0.328 N 
ATOM     24  C   UNL     1      35.616 -25.639 -14.891  0.00  0.00    +0.230 C 
ATOM     25  H   UNL     1      36.625 -27.151 -13.925  0.00  0.00    +0.145 HD
ATOM     26  H   UNL     1      36.457 -25.720 -13.013  0.00  0.00    +0.145 HD
ENDBRANCH   1  24
TORSDOF 4
ENDMDL
MODEL 2
REMARK VINA RESULT:      -7.9      1.896      5.071
REMARK  Name = 216327
REMARK  4 active torsions:
REMARK  status: ('A' for Active; 'I' for Inactive)
REMARK    1  A    between atoms: C_1  and  C_3
REMARK    2  A    between atoms: C_1  and  C_10
REMARK    3  A    between atoms: C_1  and  C_16
REMARK    4  A    between atoms: C_1  and  C_24
REMARK                            x       y       z     vdW  Elec       q    Type
REMARK                         _______ _______ _______ _____ _____    ______ ____
ROOT
ATOM      1  C   UNL     1      35.202 -24.151 -14.720  0.00  0.00    +0.125 C 
ENDROOT
BRANCH   1   3
ATOM      2  F   UNL     1      36.961 -23.122  -9.483  0.00  0.00    -0.204 F 
ATOM      3  C   UNL     1      35.701 -23.859 -13.233  0.00  0.00    -0.007 C 
ATOM      4  C   UNL     1      34.994 -24.439 -12.245  0.00  0.00    -0.001 C 
ATOM      5  C   UNL     1      36.779 -23.063 -13.115  0.00  0.00    -0.001 C 
ATOM      6  C   UNL     1      35.431 -24.183 -10.945  0.00  0.00    +0.029 C 
ATOM      7  C   UNL     1      37.215 -22.807 -11.816  0.00  0.00    +0.029 C 
ATOM      8  C   UNL     1      36.541 -23.366 -10.730  0.00  0.00    +0.140 C 
ENDBRANCH   1   3
BRANCH   1  10
ATOM      9  F   UNL     1      29.628 -23.950 -14.027  0.00  0.00    -0.204 F 
ATOM     10  C   UNL     1      33.616 -24.094 -14.523  0.00  0.00    -0.007 C 
ATOM     11  C   UNL     1      33.033 -25.229 -14.099  0.00  0.00    -0.001 C 
ATOM     12  C   UNL     1      33.030 -22.918 -14.801  0.00  0.00    -0.001 C 
ATOM     13  C   UNL     1      31.650 -25.178 -13.927  0.00  0.00    +0.029 C 
ATOM     14  C   UNL     1      31.646 -22.867 -14.630  0.00  0.00    +0.029 C 
ATOM     15  C   UNL     1      30.956 -23.998 -14.193  0.00  0.00    +0.140 C 
ENDBRANCH   1  10
BRANCH   1  16
ATOM     16  C   UNL     1      35.749 -23.294 -15.811  0.00  0.00    -0.007 C 
ATOM     17  C   UNL     1      37.069 -22.849 -15.752  0.00  0.00    -0.003 C 
ATOM     18  C   UNL     1      34.940 -22.939 -16.890  0.00  0.00    -0.003 C 
ATOM     19  C   UNL     1      37.581 -22.047 -16.773  0.00  0.00    -0.000 C 
ATOM     20  C   UNL     1      35.452 -22.137 -17.911  0.00  0.00    -0.000 C 
ATOM     21  C   UNL     1      36.772 -21.691 -17.852  0.00  0.00    -0.000 C 
ENDBRANCH   1  16
BRANCH   1  24
ATOM     22  O   UNL     1      35.348 -26.128 -16.246  0.00  0.00    -0.274 OA
ATOM     23  N   UNL     1      36.450 -26.270 -14.256  0.00  0.00    -0.328 N 
ATOM     24  C   UNL     1      35.611 -25.632 -15.149  0.00  0.00    +0.230 C 
ATOM     25  H   UNL     1      36.755 -27.188 -14.437  0.00  0.00    +0.145 HD
ATOM     26  H   UNL     1      36.743 -25.806 -13.439  0.00  0.00    +0.145 HD
ENDBRANCH   1  24
TORSDOF 4
ENDMDL
MODEL 3
REMARK VINA RESULT:      -7.7      6.391      9.886
REMARK  Name = 216327
REMARK  4 active torsions:
REMARK  status: ('A' for Active; 'I' for Inactive)
REMARK    1  A    between atoms: C_1  and  C_3
REMARK    2  A    between atoms: C_1  and  C_10
REMARK    3  A    between atoms: C_1  and  C_16
REMARK    4  A    between atoms: C_1  and  C_24
REMARK                            x       y       z     vdW  Elec       q    Type
REMARK                         _______ _______ _______ _____ _____    ______ ____
ROOT
ATOM      1  C   UNL     1      34.911 -18.630 -21.707  0.00  0.00    +0.125 C 
ENDROOT
BRANCH   1   3
ATOM      2  F   UNL     1      32.368 -14.029 -19.720  0.00  0.00    -0.204 F 
ATOM      3  C   UNL     1      34.188 -17.324 -21.143  0.00  0.00    -0.007 C 
ATOM      4  C   UNL     1      32.843 -17.356 -21.113  0.00  0.00    -0.001 C 
ATOM      5  C   UNL     1      34.997 -16.321 -20.754  0.00  0.00    -0.001 C 
ATOM      6  C   UNL     1      32.212 -16.214 -20.619  0.00  0.00    +0.029 C 
ATOM      7  C   UNL     1      34.366 -15.179 -20.261  0.00  0.00    +0.029 C 
ATOM      8  C   UNL     1      32.974 -15.125 -20.194  0.00  0.00    +0.140 C 
ENDBRANCH   1   3
BRANCH   1  10
ATOM      9  F   UNL     1      32.771 -22.573 -18.321  0.00  0.00    -0.204 F 
ATOM     10  C   UNL     1      34.301 -19.752 -20.743  0.00  0.00    -0.007 C 
ATOM     11  C   UNL     1      32.965 -19.745 -20.601  0.00  0.00    -0.001 C 
ATOM     12  C   UNL     1      35.189 -20.585 -20.175  0.00  0.00    -0.001 C 
ATOM     13  C   UNL     1      32.435 -20.724 -19.761  0.00  0.00    +0.029 C 
ATOM     14  C   UNL     1      34.659 -21.564 -19.334  0.00  0.00    +0.029 C 
ATOM     15  C   UNL     1      33.281 -21.633 -19.127  0.00  0.00    +0.140 C 
ENDBRANCH   1  10
BRANCH   1  16
ATOM     16  C   UNL     1      34.799 -18.903 -23.169  0.00  0.00    -0.007 C 
ATOM     17  C   UNL     1      34.426 -17.882 -24.042  0.00  0.00    -0.003 C 
ATOM     18  C   UNL     1      35.067 -20.180 -23.662  0.00  0.00    -0.003 C 
ATOM     19  C   UNL     1      34.321 -18.138 -25.410  0.00  0.00    -0.000 C 
ATOM     20  C   UNL     1      34.962 -20.436 -25.029  0.00  0.00    -0.000 C 
ATOM     21  C   UNL     1      34.589 -19.415 -25.903  0.00  0.00    -0.000 C 
ENDBRANCH   1  16
BRANCH   1  24
ATOM     22  O   UNL     1      37.031 -18.885 -20.404  0.00  0.00    -0.274 OA
ATOM     23  N   UNL     1      37.219 -18.194 -22.568  0.00  0.00    -0.328 N 
ATOM     24  C   UNL     1      36.482 -18.535 -21.450  0.00  0.00    +0.230 C 
ATOM     25  H   UNL     1      38.198 -18.111 -22.505  0.00  0.00    +0.145 HD
ATOM     26  H   UNL     1      36.766 -18.033 -23.426  0.00  0.00    +0.145 HD
ENDBRANCH   1  24
TORSDOF 4
ENDMDL
MODEL 4
REMARK VINA RESULT:      -7.2      1.668      4.960
REMARK  Name = 216327
REMARK  4 active torsions:
REMARK  status: ('A' for Active; 'I' for Inactive)
REMARK    1  A    between atoms: C_1  and  C_3
REMARK    2  A    between atoms: C_1  and  C_10
REMARK    3  A    between atoms: C_1  and  C_16
REMARK    4  A    between atoms: C_1  and  C_24
REMARK                            x       y       z     vdW  Elec       q    Type
REMARK                         _______ _______ _______ _____ _____    ______ ____
ROOT
ATOM      1  C   UNL     1      35.379 -23.851 -14.746  0.00  0.00    +0.125 C 
ENDROOT
BRANCH   1   3
ATOM      2  F   UNL     1      35.554 -21.183 -19.689  0.00  0.00    -0.204 F 
ATOM      3  C   UNL     1      35.428 -23.094 -16.149  0.00  0.00    -0.007 C 
ATOM      4  C   UNL     1      34.333 -23.208 -16.923  0.00  0.00    -0.001 C 
ATOM      5  C   UNL     1      36.559 -22.417 -16.418  0.00  0.00    -0.001 C 
ATOM      6  C   UNL     1      34.377 -22.545 -18.150  0.00  0.00    +0.029 C 
ATOM      7  C   UNL     1      36.603 -21.755 -17.644  0.00  0.00    +0.029 C 
ATOM      8  C   UNL     1      35.512 -21.820 -18.511  0.00  0.00    +0.140 C 
ENDBRANCH   1   3
BRANCH   1  10
ATOM      9  F   UNL     1      29.843 -23.918 -13.772  0.00  0.00    -0.204 F 
ATOM     10  C   UNL     1      33.803 -23.871 -14.469  0.00  0.00    -0.007 C 
ATOM     11  C   UNL     1      33.291 -25.044 -14.057  0.00  0.00    -0.001 C 
ATOM     12  C   UNL     1      33.155 -22.713 -14.676  0.00  0.00    -0.001 C 
ATOM     13  C   UNL     1      31.918 -25.059 -13.815  0.00  0.00    +0.029 C 
ATOM     14  C   UNL     1      31.781 -22.728 -14.435  0.00  0.00    +0.029 C 
ATOM     15  C   UNL     1      31.162 -23.903 -14.004  0.00  0.00    +0.140 C 
ENDBRANCH   1  10
BRANCH   1  16
ATOM     16  C   UNL     1      36.068 -25.170 -14.649  0.00  0.00    -0.007 C 
ATOM     17  C   UNL     1      36.058 -26.043 -15.737  0.00  0.00    -0.003 C 
ATOM     18  C   UNL     1      36.723 -25.530 -13.472  0.00  0.00    -0.003 C 
ATOM     19  C   UNL     1      36.703 -27.277 -15.646  0.00  0.00    -0.000 C 
ATOM     20  C   UNL     1      37.368 -26.764 -13.381  0.00  0.00    -0.000 C 
ATOM     21  C   UNL     1      37.358 -27.637 -14.469  0.00  0.00    -0.000 C 
ENDBRANCH   1  16
BRANCH   1  24
ATOM     22  O   UNL     1      36.990 -22.160 -13.851  0.00  0.00    -0.274 OA
ATOM     23  N   UNL     1      35.473 -23.026 -12.386  0.00  0.00    -0.328 N 
ATOM     24  C   UNL     1      36.083 -22.963 -13.624  0.00  0.00    +0.230 C 
ATOM     25  H   UNL     1      35.838 -22.510 -11.631  0.00  0.00    +0.145 HD
ATOM     26  H   UNL     1      34.675 -23.587 -12.258  0.00  0.00    +0.145 HD
ENDBRANCH   1  24
TORSDOF 4
ENDMDL
MODEL 5
REMARK VINA RESULT:      -6.8      2.049      5.139
REMARK  Name = 216327
REMARK  4 active torsions:
REMARK  status: ('A' for Active; 'I' for Inactive)
REMARK    1  A    between atoms: C_1  and  C_3
REMARK    2  A    between atoms: C_1  and  C_10
REMARK    3  A    between atoms: C_1  and  C_16
REMARK    4  A    between atoms: C_1  and  C_24
REMARK                            x       y       z     vdW  Elec       q    Type
REMARK                         _______ _______ _______ _____ _____    ______ ____
ROOT
ATOM      1  C   UNL     1      35.163 -24.158 -15.107  0.00  0.00    +0.125 C 
ENDROOT
BRANCH   1   3
ATOM      2  F   UNL     1      36.880 -20.568 -19.075  0.00  0.00    -0.204 F 
ATOM      3  C   UNL     1      35.651 -23.138 -16.233  0.00  0.00    -0.007 C 
ATOM      4  C   UNL     1      36.812 -22.501 -15.994  0.00  0.00    -0.001 C 
ATOM      5  C   UNL     1      34.852 -23.019 -17.310  0.00  0.00    -0.001 C 
ATOM      6  C   UNL     1      37.238 -21.610 -16.980  0.00  0.00    +0.029 C 
ATOM      7  C   UNL     1      35.278 -22.128 -18.294  0.00  0.00    +0.029 C 
ATOM      8  C   UNL     1      36.470 -21.423 -18.129  0.00  0.00    +0.140 C 
ENDBRANCH   1   3
BRANCH   1  10
ATOM      9  F   UNL     1      39.185 -23.473 -11.241  0.00  0.00    -0.204 F 
ATOM     10  C   UNL     1      36.308 -23.962 -14.006  0.00  0.00    -0.007 C 
ATOM     11  C   UNL     1      35.960 -23.265 -12.911  0.00  0.00    -0.001 C 
ATOM     12  C   UNL     1      37.498 -24.516 -14.291  0.00  0.00    -0.001 C 
ATOM     13  C   UNL     1      36.958 -23.096 -11.953  0.00  0.00    +0.029 C 
ATOM     14  C   UNL     1      38.497 -24.346 -13.333  0.00  0.00    +0.029 C 
ATOM     15  C   UNL     1      38.227 -23.635 -12.162  0.00  0.00    +0.140 C 
ENDBRANCH   1  10
BRANCH   1  16
ATOM     16  C   UNL     1      33.762 -24.022 -14.614  0.00  0.00    -0.007 C 
ATOM     17  C   UNL     1      33.033 -22.867 -14.896  0.00  0.00    -0.003 C 
ATOM     18  C   UNL     1      33.182 -25.049 -13.870  0.00  0.00    -0.003 C 
ATOM     19  C   UNL     1      31.723 -22.739 -14.434  0.00  0.00    -0.000 C 
ATOM     20  C   UNL     1      31.871 -24.921 -13.408  0.00  0.00    -0.000 C 
ATOM     21  C   UNL     1      31.142 -23.766 -13.691  0.00  0.00    -0.000 C 
ENDBRANCH   1  16
BRANCH   1  24
ATOM     22  O   UNL     1      34.881 -25.987 -16.790  0.00  0.00    -0.274 OA
ATOM     23  N   UNL     1      35.903 -26.532 -14.827  0.00  0.00    -0.328 N 
ATOM     24  C   UNL     1      35.236 -25.653 -15.659  0.00  0.00    +0.230 C 
ATOM     25  H   UNL     1      35.997 -27.477 -15.085  0.00  0.00    +0.145 HD
ATOM     26  H   UNL     1      36.282 -26.213 -13.977  0.00  0.00    +0.145 HD
ENDBRANCH   1  24
TORSDOF 4
ENDMDL
MODEL 6
REMARK VINA RESULT:      -6.5     15.250     17.880
REMARK  Name = 216327
REMARK  4 active torsions:
REMARK  status: ('A' for Active; 'I' for Inactive)
REMARK    1  A    between atoms: C_1  and  C_3
REMARK    2  A    between atoms: C_1  and  C_10
REMARK    3  A    between atoms: C_1  and  C_16
REMARK    4  A    between atoms: C_1  and  C_24
REMARK                            x       y       z     vdW  Elec       q    Type
REMARK                         _______ _______ _______ _____ _____    ______ ____
ROOT
ATOM      1  C   UNL     1      32.862  -8.505 -22.365  0.00  0.00    +0.125 C 
ENDROOT
BRANCH   1   3
ATOM      2  F   UNL     1      35.838 -10.788 -26.549  0.00  0.00    -0.204 F 
ATOM      3  C   UNL     1      33.707  -9.152 -23.553  0.00  0.00    -0.007 C 
ATOM      4  C   UNL     1      34.526  -8.320 -24.220  0.00  0.00    -0.001 C 
ATOM      5  C   UNL     1      33.516 -10.468 -23.768  0.00  0.00    -0.001 C 
ATOM      6  C   UNL     1      35.265  -8.887 -25.259  0.00  0.00    +0.029 C 
ATOM      7  C   UNL     1      34.254 -11.034 -24.806  0.00  0.00    +0.029 C 
ATOM      8  C   UNL     1      35.128 -10.244 -25.553  0.00  0.00    +0.140 C 
ENDBRANCH   1   3
BRANCH   1  10
ATOM      9  F   UNL     1      30.063  -4.485 -25.120  0.00  0.00    -0.204 F 
ATOM     10  C   UNL     1      32.065  -7.361 -23.149  0.00  0.00    -0.007 C 
ATOM     11  C   UNL     1      31.225  -7.781 -24.111  0.00  0.00    -0.001 C 
ATOM     12  C   UNL     1      32.318  -6.099 -22.765  0.00  0.00    -0.001 C 
ATOM     13  C   UNL     1      30.531  -6.783 -24.794  0.00  0.00    +0.029 C 
ATOM     14  C   UNL     1      31.624  -5.100 -23.448  0.00  0.00    +0.029 C 
ATOM     15  C   UNL     1      30.730  -5.443 -24.464  0.00  0.00    +0.140 C 
ENDBRANCH   1  10
BRANCH   1  16
ATOM     16  C   UNL     1      32.027  -9.421 -21.534  0.00  0.00    -0.007 C 
ATOM     17  C   UNL     1      32.046  -9.312 -20.144  0.00  0.00    -0.003 C 
ATOM     18  C   UNL     1      31.228 -10.385 -22.148  0.00  0.00    -0.003 C 
ATOM     19  C   UNL     1      31.266 -10.168 -19.367  0.00  0.00    -0.000 C 
ATOM     20  C   UNL     1      30.447 -11.241 -21.370  0.00  0.00    -0.000 C 
ATOM     21  C   UNL     1      30.466 -11.132 -19.980  0.00  0.00    -0.000 C 
ENDBRANCH   1  16
BRANCH   1  24
ATOM     22  O   UNL     1      35.000  -7.478 -21.570  0.00  0.00    -0.274 OA
ATOM     23  N   UNL     1      33.236  -7.452 -20.126  0.00  0.00    -0.328 N 
ATOM     24  C   UNL     1      33.843  -7.815 -21.313  0.00  0.00    +0.230 C 
ATOM     25  H   UNL     1      33.763  -7.019 -19.416  0.00  0.00    +0.145 HD
ATOM     26  H   UNL     1      32.277  -7.627 -19.990  0.00  0.00    +0.145 HD
ENDBRANCH   1  24
TORSDOF 4
ENDMDL
MODEL 7
REMARK VINA RESULT:      -6.3      6.589      9.628
REMARK  Name = 216327
REMARK  4 active torsions:
REMARK  status: ('A' for Active; 'I' for Inactive)
REMARK    1  A    between atoms: C_1  and  C_3
REMARK    2  A    between atoms: C_1  and  C_10
REMARK    3  A    between atoms: C_1  and  C_16
REMARK    4  A    between atoms: C_1  and  C_24
REMARK                            x       y       z     vdW  Elec       q    Type
REMARK                         _______ _______ _______ _____ _____    ______ ____
ROOT
ATOM      1  C   UNL     1      34.989 -18.725 -21.300  0.00  0.00    +0.125 C 
ENDROOT
BRANCH   1   3
ATOM      2  F   UNL     1      34.546 -18.737 -26.903  0.00  0.00    -0.204 F 
ATOM      3  C   UNL     1      34.863 -18.729 -22.890  0.00  0.00    -0.007 C 
ATOM      4  C   UNL     1      34.853 -19.938 -23.482  0.00  0.00    -0.001 C 
ATOM      5  C   UNL     1      34.779 -17.523 -23.481  0.00  0.00    -0.001 C 
ATOM      6  C   UNL     1      34.743 -19.941 -24.873  0.00  0.00    +0.029 C 
ATOM      7  C   UNL     1      34.670 -17.526 -24.871  0.00  0.00    +0.029 C 
ATOM      8  C   UNL     1      34.653 -18.734 -25.568  0.00  0.00    +0.140 C 
ENDBRANCH   1   3
BRANCH   1  10
ATOM      9  F   UNL     1      32.500 -13.841 -20.056  0.00  0.00    -0.204 F 
ATOM     10  C   UNL     1      34.281 -17.335 -20.946  0.00  0.00    -0.007 C 
ATOM     11  C   UNL     1      35.103 -16.305 -20.678  0.00  0.00    -0.001 C 
ATOM     12  C   UNL     1      32.937 -17.340 -20.953  0.00  0.00    -0.001 C 
ATOM     13  C   UNL     1      34.485 -15.094 -20.370  0.00  0.00    +0.029 C 
ATOM     14  C   UNL     1      32.319 -16.129 -20.644  0.00  0.00    +0.029 C 
ATOM     15  C   UNL     1      33.093 -15.005 -20.352  0.00  0.00    +0.140 C 
ENDBRANCH   1  10
BRANCH   1  16
ATOM     16  C   UNL     1      34.476 -19.917 -20.565  0.00  0.00    -0.007 C 
ATOM     17  C   UNL     1      33.108 -20.056 -20.330  0.00  0.00    -0.003 C 
ATOM     18  C   UNL     1      35.365 -20.892 -20.112  0.00  0.00    -0.003 C 
ATOM     19  C   UNL     1      32.629 -21.172 -19.642  0.00  0.00    -0.000 C 
ATOM     20  C   UNL     1      34.885 -22.007 -19.424  0.00  0.00    -0.000 C 
ATOM     21  C   UNL     1      33.517 -22.147 -19.189  0.00  0.00    -0.000 C 
ENDBRANCH   1  16
BRANCH   1  24
ATOM     22  O   UNL     1      36.938 -18.871 -19.739  0.00  0.00    -0.274 OA
ATOM     23  N   UNL     1      37.394 -18.457 -21.934  0.00  0.00    -0.328 N 
ATOM     24  C   UNL     1      36.524 -18.639 -20.876  0.00  0.00    +0.230 C 
ATOM     25  H   UNL     1      38.362 -18.392 -21.769  0.00  0.00    +0.145 HD
ATOM     26  H   UNL     1      37.046 -18.392 -22.852  0.00  0.00    +0.145 HD
ENDBRANCH   1  24
TORSDOF 4
ENDMDL
MODEL 8
REMARK VINA RESULT:      -5.6     15.534     18.372
REMARK  Name = 216327
REMARK  4 active torsions:
REMARK  status: ('A' for Active; 'I' for Inactive)
REMARK    1  A    between atoms: C_1  and  C_3
REMARK    2  A    between atoms: C_1  and  C_10
REMARK    3  A    between atoms: C_1  and  C_16
REMARK    4  A    between atoms: C_1  and  C_24
REMARK                            x       y       z     vdW  Elec       q    Type
REMARK                         _______ _______ _______ _____ _____    ______ ____
ROOT
ATOM      1  C   UNL     1      31.740  -8.107 -22.955  0.00  0.00    +0.125 C 
ENDROOT
BRANCH   1   3
ATOM      2  F   UNL     1      36.313 -10.302 -25.373  0.00  0.00    -0.204 F 
ATOM      3  C   UNL     1      33.038  -8.729 -23.642  0.00  0.00    -0.007 C 
ATOM      4  C   UNL     1      34.115  -7.925 -23.715  0.00  0.00    -0.001 C 
ATOM      5  C   UNL     1      32.927  -9.998 -24.078  0.00  0.00    -0.001 C 
ATOM      6  C   UNL     1      35.250  -8.470 -24.315  0.00  0.00    +0.029 C 
ATOM      7  C   UNL     1      34.062 -10.542 -24.679  0.00  0.00    +0.029 C 
ATOM      8  C   UNL     1      35.223  -9.779 -24.798  0.00  0.00    +0.140 C 
ENDBRANCH   1   3
BRANCH   1  10
ATOM      9  F   UNL     1      31.914 -10.587 -17.914  0.00  0.00    -0.204 F 
ATOM     10  C   UNL     1      31.790  -8.812 -21.521  0.00  0.00    -0.007 C 
ATOM     11  C   UNL     1      32.218  -8.047 -20.501  0.00  0.00    -0.001 C 
ATOM     12  C   UNL     1      31.397 -10.096 -21.482  0.00  0.00    -0.001 C 
ATOM     13  C   UNL     1      32.261  -8.663 -19.251  0.00  0.00    +0.029 C 
ATOM     14  C   UNL     1      31.441 -10.713 -20.232  0.00  0.00    +0.029 C 
ATOM     15  C   UNL     1      31.873  -9.996 -19.115  0.00  0.00    +0.140 C 
ENDBRANCH   1  10
BRANCH   1  16
ATOM     16  C   UNL     1      31.612  -6.621 -22.941  0.00  0.00    -0.007 C 
ATOM     17  C   UNL     1      32.207  -5.861 -23.948  0.00  0.00    -0.003 C 
ATOM     18  C   UNL     1      30.898  -5.992 -21.922  0.00  0.00    -0.003 C 
ATOM     19  C   UNL     1      32.088  -4.470 -23.934  0.00  0.00    -0.000 C 
ATOM     20  C   UNL     1      30.779  -4.602 -21.908  0.00  0.00    -0.000 C 
ATOM     21  C   UNL     1      31.374  -3.842 -22.914  0.00  0.00    -0.000 C 
ENDBRANCH   1  16
BRANCH   1  24
ATOM     22  O   UNL     1      29.623  -9.406 -23.255  0.00  0.00    -0.274 OA
ATOM     23  N   UNL     1      30.167  -7.914 -24.892  0.00  0.00    -0.328 N 
ATOM     24  C   UNL     1      30.430  -8.600 -23.721  0.00  0.00    +0.230 C 
ATOM     25  H   UNL     1      29.379  -8.150 -25.432  0.00  0.00    +0.145 HD
ATOM     26  H   UNL     1      30.766  -7.191 -25.184  0.00  0.00    +0.145 HD
ENDBRANCH   1  24
TORSDOF 4
ENDMDL
