MODEL 1
REMARK VINA RESULT:      -6.7      0.000      0.000
REMARK  Name = 114947
REMARK  4 active torsions:
REMARK  status: ('A' for Active; 'I' for Inactive)
REMARK    1  A    between atoms: C_2  and  N_8
REMARK    2  A    between atoms: C_3  and  C_14
REMARK    3  A    between atoms: C_4  and  O_11
REMARK    4  A    between atoms: C_14  and  O_15
REMARK                            x       y       z     vdW  Elec       q    Type
REMARK                         _______ _______ _______ _____ _____    ______ ____
ROOT
ATOM      1 CL   UNL     1      35.334 -17.665 -22.112  0.00  0.00    -0.079 Cl
ATOM      2  C   UNL     1      35.286 -20.953 -19.811  0.00  0.00    +0.083 C 
ATOM      3  C   UNL     1      33.925 -21.254 -19.762  0.00  0.00    +0.091 C 
ATOM      4  C   UNL     1      35.731 -19.846 -20.534  0.00  0.00    +0.157 C 
ATOM      5  C   UNL     1      33.008 -20.448 -20.438  0.00  0.00    +0.009 C 
ATOM      6  C   UNL     1      34.814 -19.040 -21.209  0.00  0.00    +0.092 C 
ATOM      7  C   UNL     1      33.453 -19.341 -21.162  0.00  0.00    +0.015 C 
ENDROOT
BRANCH   2   8
ATOM      8  N   UNL     1      36.218 -21.768 -19.128  0.00  0.00    -0.354 N 
ATOM      9  H   UNL     1      36.233 -22.740 -19.287  0.00  0.00    +0.142 HD
ATOM     10  H   UNL     1      36.853 -21.364 -18.493  0.00  0.00    +0.142 HD
ENDBRANCH   2   8
BRANCH   4  11
ATOM     11  O   UNL     1      37.064 -19.557 -20.577  0.00  0.00    -0.503 OA
ATOM     12  H   UNL     1      37.406 -19.024 -21.267  0.00  0.00    +0.292 HD
ENDBRANCH   4  11
BRANCH   3  14
ATOM     13  O   UNL     1      32.532 -22.364 -18.165  0.00  0.00    -0.245 OA
ATOM     14  C   UNL     1      33.425 -22.402 -19.016  0.00  0.00    +0.339 C 
BRANCH  14  15
ATOM     15  O   UNL     1      34.057 -23.556 -19.356  0.00  0.00    -0.477 OA
ATOM     16  H   UNL     1      34.205 -24.218 -18.709  0.00  0.00    +0.295 HD
ENDBRANCH  14  15
ENDBRANCH   3  14
TORSDOF 4
ENDMDL
MODEL 2
REMARK VINA RESULT:      -6.6      4.873      6.038
REMARK  Name = 114947
REMARK  4 active torsions:
REMARK  status: ('A' for Active; 'I' for Inactive)
REMARK    1  A    between atoms: C_2  and  N_8
REMARK    2  A    between atoms: C_3  and  C_14
REMARK    3  A    between atoms: C_4  and  O_11
REMARK    4  A    between atoms: C_14  and  O_15
REMARK                            x       y       z     vdW  Elec       q    Type
REMARK                         _______ _______ _______ _____ _____    ______ ____
ROOT
ATOM      1 CL   UNL     1      33.061 -14.794 -26.433  0.00  0.00    -0.079 Cl
ATOM      2  C   UNL     1      34.925 -16.780 -23.484  0.00  0.00    +0.083 C 
ATOM      3  C   UNL     1      34.493 -16.089 -22.351  0.00  0.00    +0.091 C 
ATOM      4  C   UNL     1      34.488 -16.387 -24.749  0.00  0.00    +0.157 C 
ATOM      5  C   UNL     1      33.624 -15.006 -22.483  0.00  0.00    +0.009 C 
ATOM      6  C   UNL     1      33.619 -15.303 -24.881  0.00  0.00    +0.092 C 
ATOM      7  C   UNL     1      33.187 -14.613 -23.749  0.00  0.00    +0.015 C 
ENDROOT
BRANCH   2   8
ATOM      8  N   UNL     1      35.806 -17.879 -23.353  0.00  0.00    -0.354 N 
ATOM      9  H   UNL     1      36.773 -17.726 -23.254  0.00  0.00    +0.142 HD
ATOM     10  H   UNL     1      35.451 -18.797 -23.360  0.00  0.00    +0.142 HD
ENDBRANCH   2   8
BRANCH   4  11
ATOM     11  O   UNL     1      34.915 -17.066 -25.853  0.00  0.00    -0.503 OA
ATOM     12  H   UNL     1      35.723 -17.540 -25.828  0.00  0.00    +0.292 HD
ENDBRANCH   4  11
BRANCH   3  14
ATOM     13  O   UNL     1      35.271 -17.608 -20.674  0.00  0.00    -0.245 OA
ATOM     14  C   UNL     1      34.931 -16.472 -21.014  0.00  0.00    +0.339 C 
BRANCH  14  15
ATOM     15  O   UNL     1      34.928 -15.423 -20.149  0.00  0.00    -0.477 OA
ATOM     16  H   UNL     1      34.467 -14.636 -20.367  0.00  0.00    +0.295 HD
ENDBRANCH  14  15
ENDBRANCH   3  14
TORSDOF 4
ENDMDL
MODEL 3
REMARK VINA RESULT:      -6.6      7.016      7.919
REMARK  Name = 114947
REMARK  4 active torsions:
REMARK  status: ('A' for Active; 'I' for Inactive)
REMARK    1  A    between atoms: C_2  and  N_8
REMARK    2  A    between atoms: C_3  and  C_14
REMARK    3  A    between atoms: C_4  and  O_11
REMARK    4  A    between atoms: C_14  and  O_15
REMARK                            x       y       z     vdW  Elec       q    Type
REMARK                         _______ _______ _______ _____ _____    ______ ____
ROOT
ATOM      1 CL   UNL     1      33.768 -24.171 -13.829  0.00  0.00    -0.079 Cl
ATOM      2  C   UNL     1      29.905 -24.397 -14.893  0.00  0.00    +0.083 C 
ATOM      3  C   UNL     1      29.866 -23.578 -16.022  0.00  0.00    +0.091 C 
ATOM      4  C   UNL     1      31.105 -24.586 -14.209  0.00  0.00    +0.157 C 
ATOM      5  C   UNL     1      31.028 -22.948 -16.467  0.00  0.00    +0.009 C 
ATOM      6  C   UNL     1      32.268 -23.956 -14.654  0.00  0.00    +0.092 C 
ATOM      7  C   UNL     1      32.230 -23.138 -15.783  0.00  0.00    +0.015 C 
ENDROOT
BRANCH   2   8
ATOM      8  N   UNL     1      28.728 -25.037 -14.440  0.00  0.00    -0.354 N 
ATOM      9  H   UNL     1      28.761 -25.631 -13.655  0.00  0.00    +0.142 HD
ATOM     10  H   UNL     1      27.875 -24.888 -14.908  0.00  0.00    +0.142 HD
ENDBRANCH   2   8
BRANCH   4  11
ATOM     11  O   UNL     1      31.136 -25.388 -13.105  0.00  0.00    -0.503 OA
ATOM     12  H   UNL     1      31.847 -25.324 -12.499  0.00  0.00    +0.292 HD
ENDBRANCH   4  11
BRANCH   3  14
ATOM     13  O   UNL     1      27.940 -24.241 -17.277  0.00  0.00    -0.245 OA
ATOM     14  C   UNL     1      28.628 -23.357 -16.760  0.00  0.00    +0.339 C 
BRANCH  14  15
ATOM     15  O   UNL     1      28.293 -22.041 -16.826  0.00  0.00    -0.477 OA
ATOM     16  H   UNL     1      28.906 -21.417 -17.166  0.00  0.00    +0.295 HD
ENDBRANCH  14  15
ENDBRANCH   3  14
TORSDOF 4
ENDMDL
MODEL 4
REMARK VINA RESULT:      -6.5      8.297      9.061
REMARK  Name = 114947
REMARK  4 active torsions:
REMARK  status: ('A' for Active; 'I' for Inactive)
REMARK    1  A    between atoms: C_2  and  N_8
REMARK    2  A    between atoms: C_3  and  C_14
REMARK    3  A    between atoms: C_4  and  O_11
REMARK    4  A    between atoms: C_14  and  O_15
REMARK                            x       y       z     vdW  Elec       q    Type
REMARK                         _______ _______ _______ _____ _____    ______ ____
ROOT
ATOM      1 CL   UNL     1      40.329 -25.780 -14.973  0.00  0.00    -0.079 Cl
ATOM      2  C   UNL     1      36.506 -25.366 -13.824  0.00  0.00    +0.083 C 
ATOM      3  C   UNL     1      36.644 -24.832 -12.543  0.00  0.00    +0.091 C 
ATOM      4  C   UNL     1      37.639 -25.663 -14.582  0.00  0.00    +0.157 C 
ATOM      5  C   UNL     1      37.915 -24.593 -12.019  0.00  0.00    +0.009 C 
ATOM      6  C   UNL     1      38.910 -25.424 -14.059  0.00  0.00    +0.092 C 
ATOM      7  C   UNL     1      39.048 -24.889 -12.779  0.00  0.00    +0.015 C 
ENDROOT
BRANCH   2   8
ATOM      8  N   UNL     1      35.218 -25.609 -14.357  0.00  0.00    -0.354 N 
ATOM      9  H   UNL     1      34.423 -25.532 -13.781  0.00  0.00    +0.142 HD
ATOM     10  H   UNL     1      35.117 -25.854 -15.305  0.00  0.00    +0.142 HD
ENDBRANCH   2   8
BRANCH   4  11
ATOM     11  O   UNL     1      37.496 -26.186 -15.835  0.00  0.00    -0.503 OA
ATOM     12  H   UNL     1      36.902 -26.895 -15.982  0.00  0.00    +0.292 HD
ENDBRANCH   4  11
BRANCH   3  14
ATOM     13  O   UNL     1      35.214 -25.028 -10.635  0.00  0.00    -0.245 OA
ATOM     14  C   UNL     1      35.482 -24.511 -11.723  0.00  0.00    +0.339 C 
BRANCH  14  15
ATOM     15  O   UNL     1      34.696 -23.558 -12.289  0.00  0.00    -0.477 OA
ATOM     16  H   UNL     1      33.876 -23.330 -11.894  0.00  0.00    +0.295 HD
ENDBRANCH  14  15
ENDBRANCH   3  14
TORSDOF 4
ENDMDL
MODEL 5
REMARK VINA RESULT:      -6.4      2.603      4.180
REMARK  Name = 114947
REMARK  4 active torsions:
REMARK  status: ('A' for Active; 'I' for Inactive)
REMARK    1  A    between atoms: C_2  and  N_8
REMARK    2  A    between atoms: C_3  and  C_14
REMARK    3  A    between atoms: C_4  and  O_11
REMARK    4  A    between atoms: C_14  and  O_15
REMARK                            x       y       z     vdW  Elec       q    Type
REMARK                         _______ _______ _______ _____ _____    ______ ____
ROOT
ATOM      1 CL   UNL     1      33.550 -22.516 -18.804  0.00  0.00    -0.079 Cl
ATOM      2  C   UNL     1      35.866 -19.785 -20.615  0.00  0.00    +0.083 C 
ATOM      3  C   UNL     1      34.922 -18.975 -21.246  0.00  0.00    +0.091 C 
ATOM      4  C   UNL     1      35.452 -20.881 -19.859  0.00  0.00    +0.157 C 
ATOM      5  C   UNL     1      33.562 -19.262 -21.121  0.00  0.00    +0.009 C 
ATOM      6  C   UNL     1      34.093 -21.168 -19.733  0.00  0.00    +0.092 C 
ATOM      7  C   UNL     1      33.148 -20.359 -20.363  0.00  0.00    +0.015 C 
ENDROOT
BRANCH   2   8
ATOM      8  N   UNL     1      37.246 -19.497 -20.741  0.00  0.00    -0.354 N 
ATOM      9  H   UNL     1      37.544 -18.752 -21.312  0.00  0.00    +0.142 HD
ATOM     10  H   UNL     1      37.908 -20.041 -20.256  0.00  0.00    +0.142 HD
ENDBRANCH   2   8
BRANCH   4  11
ATOM     11  O   UNL     1      36.382 -21.669 -19.245  0.00  0.00    -0.503 OA
ATOM     12  H   UNL     1      36.117 -22.459 -18.816  0.00  0.00    +0.292 HD
ENDBRANCH   4  11
BRANCH   3  14
ATOM     13  O   UNL     1      35.007 -16.652 -21.812  0.00  0.00    -0.245 OA
ATOM     14  C   UNL     1      35.319 -17.823 -22.046  0.00  0.00    +0.339 C 
BRANCH  14  15
ATOM     15  O   UNL     1      36.092 -18.171 -23.108  0.00  0.00    -0.477 OA
ATOM     16  H   UNL     1      36.078 -19.053 -23.429  0.00  0.00    +0.295 HD
ENDBRANCH  14  15
ENDBRANCH   3  14
TORSDOF 4
ENDMDL
MODEL 6
REMARK VINA RESULT:      -6.4      8.273      9.338
REMARK  Name = 114947
REMARK  4 active torsions:
REMARK  status: ('A' for Active; 'I' for Inactive)
REMARK    1  A    between atoms: C_2  and  N_8
REMARK    2  A    between atoms: C_3  and  C_14
REMARK    3  A    between atoms: C_4  and  O_11
REMARK    4  A    between atoms: C_14  and  O_15
REMARK                            x       y       z     vdW  Elec       q    Type
REMARK                         _______ _______ _______ _____ _____    ______ ____
ROOT
ATOM      1 CL   UNL     1      35.304 -23.911 -12.010  0.00  0.00    -0.079 Cl
ATOM      2  C   UNL     1      37.729 -25.864 -14.542  0.00  0.00    +0.083 C 
ATOM      3  C   UNL     1      38.991 -25.526 -14.055  0.00  0.00    +0.091 C 
ATOM      4  C   UNL     1      36.584 -25.370 -13.917  0.00  0.00    +0.157 C 
ATOM      5  C   UNL     1      39.109 -24.693 -12.941  0.00  0.00    +0.009 C 
ATOM      6  C   UNL     1      36.702 -24.537 -12.804  0.00  0.00    +0.092 C 
ATOM      7  C   UNL     1      37.963 -24.199 -12.316  0.00  0.00    +0.015 C 
ENDROOT
BRANCH   2   8
ATOM      8  N   UNL     1      37.606 -26.708 -15.671  0.00  0.00    -0.354 N 
ATOM      9  H   UNL     1      37.149 -27.577 -15.589  0.00  0.00    +0.142 HD
ATOM     10  H   UNL     1      37.977 -26.427 -16.538  0.00  0.00    +0.142 HD
ENDBRANCH   2   8
BRANCH   4  11
ATOM     11  O   UNL     1      35.352 -25.705 -14.400  0.00  0.00    -0.503 OA
ATOM     12  H   UNL     1      35.084 -26.602 -14.418  0.00  0.00    +0.292 HD
ENDBRANCH   4  11
BRANCH   3  14
ATOM     13  O   UNL     1      41.117 -26.622 -14.102  0.00  0.00    -0.245 OA
ATOM     14  C   UNL     1      40.209 -26.023 -14.684  0.00  0.00    +0.339 C 
BRANCH  14  15
ATOM     15  O   UNL     1      40.249 -25.755 -16.016  0.00  0.00    -0.477 OA
ATOM     16  H   UNL     1      39.452 -25.687 -16.505  0.00  0.00    +0.295 HD
ENDBRANCH  14  15
ENDBRANCH   3  14
TORSDOF 4
ENDMDL
MODEL 7
REMARK VINA RESULT:      -6.3      4.778      6.428
REMARK  Name = 114947
REMARK  4 active torsions:
REMARK  status: ('A' for Active; 'I' for Inactive)
REMARK    1  A    between atoms: C_2  and  N_8
REMARK    2  A    between atoms: C_3  and  C_14
REMARK    3  A    between atoms: C_4  and  O_11
REMARK    4  A    between atoms: C_14  and  O_15
REMARK                            x       y       z     vdW  Elec       q    Type
REMARK                         _______ _______ _______ _____ _____    ______ ____
ROOT
ATOM      1 CL   UNL     1      36.335 -19.163 -20.935  0.00  0.00    -0.079 Cl
ATOM      2  C   UNL     1      34.496 -15.999 -22.581  0.00  0.00    +0.083 C 
ATOM      3  C   UNL     1      34.394 -16.385 -23.918  0.00  0.00    +0.091 C 
ATOM      4  C   UNL     1      35.095 -16.850 -21.652  0.00  0.00    +0.157 C 
ATOM      5  C   UNL     1      34.890 -17.623 -24.326  0.00  0.00    +0.009 C 
ATOM      6  C   UNL     1      35.590 -18.088 -22.061  0.00  0.00    +0.092 C 
ATOM      7  C   UNL     1      35.488 -18.475 -23.396  0.00  0.00    +0.015 C 
ENDROOT
BRANCH   2   8
ATOM      8  N   UNL     1      33.994 -14.743 -22.164  0.00  0.00    -0.354 N 
ATOM      9  H   UNL     1      33.828 -14.034 -22.827  0.00  0.00    +0.142 HD
ATOM     10  H   UNL     1      33.809 -14.579 -21.211  0.00  0.00    +0.142 HD
ENDBRANCH   2   8
BRANCH   4  11
ATOM     11  O   UNL     1      35.191 -16.465 -20.347  0.00  0.00    -0.503 OA
ATOM     12  H   UNL     1      34.430 -16.172 -19.887  0.00  0.00    +0.292 HD
ENDBRANCH   4  11
BRANCH   3  14
ATOM     13  O   UNL     1      33.116 -14.507 -24.668  0.00  0.00    -0.245 OA
ATOM     14  C   UNL     1      33.776 -15.519 -24.915  0.00  0.00    +0.339 C 
BRANCH  14  15
ATOM     15  O   UNL     1      34.004 -15.948 -26.185  0.00  0.00    -0.477 OA
ATOM     16  H   UNL     1      34.060 -16.866 -26.367  0.00  0.00    +0.295 HD
ENDBRANCH  14  15
ENDBRANCH   3  14
TORSDOF 4
ENDMDL
MODEL 8
REMARK VINA RESULT:      -6.2      3.202      4.121
REMARK  Name = 114947
REMARK  4 active torsions:
REMARK  status: ('A' for Active; 'I' for Inactive)
REMARK    1  A    between atoms: C_2  and  N_8
REMARK    2  A    between atoms: C_3  and  C_14
REMARK    3  A    between atoms: C_4  and  O_11
REMARK    4  A    between atoms: C_14  and  O_15
REMARK                            x       y       z     vdW  Elec       q    Type
REMARK                         _______ _______ _______ _____ _____    ______ ____
ROOT
ATOM      1 CL   UNL     1      34.455 -16.171 -25.619  0.00  0.00    -0.079 Cl
ATOM      2  C   UNL     1      34.990 -17.399 -21.835  0.00  0.00    +0.083 C 
ATOM      3  C   UNL     1      34.972 -18.786 -21.975  0.00  0.00    +0.091 C 
ATOM      4  C   UNL     1      34.831 -16.582 -22.955  0.00  0.00    +0.157 C 
ATOM      5  C   UNL     1      34.795 -19.359 -23.235  0.00  0.00    +0.009 C 
ATOM      6  C   UNL     1      34.654 -17.155 -24.215  0.00  0.00    +0.092 C 
ATOM      7  C   UNL     1      34.637 -18.542 -24.355  0.00  0.00    +0.015 C 
ENDROOT
BRANCH   2   8
ATOM      8  N   UNL     1      35.170 -16.816 -20.559  0.00  0.00    -0.354 N 
ATOM      9  H   UNL     1      35.411 -17.380 -19.788  0.00  0.00    +0.142 HD
ATOM     10  H   UNL     1      35.055 -15.845 -20.441  0.00  0.00    +0.142 HD
ENDBRANCH   2   8
BRANCH   4  11
ATOM     11  O   UNL     1      34.849 -15.225 -22.811  0.00  0.00    -0.503 OA
ATOM     12  H   UNL     1      35.106 -14.681 -23.529  0.00  0.00    +0.292 HD
ENDBRANCH   4  11
BRANCH   3  14
ATOM     13  O   UNL     1      36.157 -19.770 -20.144  0.00  0.00    -0.245 OA
ATOM     14  C   UNL     1      35.134 -19.669 -20.826  0.00  0.00    +0.339 C 
BRANCH  14  15
ATOM     15  O   UNL     1      34.014 -20.395 -20.569  0.00  0.00    -0.477 OA
ATOM     16  H   UNL     1      33.834 -21.171 -21.063  0.00  0.00    +0.295 HD
ENDBRANCH  14  15
ENDBRANCH   3  14
TORSDOF 4
ENDMDL
MODEL 9
REMARK VINA RESULT:      -6.2      7.400      8.553
REMARK  Name = 114947
REMARK  4 active torsions:
REMARK  status: ('A' for Active; 'I' for Inactive)
REMARK    1  A    between atoms: C_2  and  N_8
REMARK    2  A    between atoms: C_3  and  C_14
REMARK    3  A    between atoms: C_4  and  O_11
REMARK    4  A    between atoms: C_14  and  O_15
REMARK                            x       y       z     vdW  Elec       q    Type
REMARK                         _______ _______ _______ _____ _____    ______ ____
ROOT
ATOM      1 CL   UNL     1      34.286 -23.636 -14.127  0.00  0.00    -0.079 Cl
ATOM      2  C   UNL     1      37.902 -25.312 -13.661  0.00  0.00    +0.083 C 
ATOM      3  C   UNL     1      38.621 -24.750 -14.715  0.00  0.00    +0.091 C 
ATOM      4  C   UNL     1      36.562 -24.975 -13.471  0.00  0.00    +0.157 C 
ATOM      5  C   UNL     1      38.001 -23.849 -15.581  0.00  0.00    +0.009 C 
ATOM      6  C   UNL     1      35.941 -24.074 -14.337  0.00  0.00    +0.092 C 
ATOM      7  C   UNL     1      36.660 -23.510 -15.391  0.00  0.00    +0.015 C 
ENDROOT
BRANCH   2   8
ATOM      8  N   UNL     1      38.529 -26.226 -12.781  0.00  0.00    -0.354 N 
ATOM      9  H   UNL     1      38.009 -26.655 -12.064  0.00  0.00    +0.142 HD
ATOM     10  H   UNL     1      39.486 -26.433 -12.887  0.00  0.00    +0.142 HD
ENDBRANCH   2   8
BRANCH   4  11
ATOM     11  O   UNL     1      35.865 -25.529 -12.438  0.00  0.00    -0.503 OA
ATOM     12  H   UNL     1      36.168 -26.321 -12.039  0.00  0.00    +0.292 HD
ENDBRANCH   4  11
BRANCH   3  14
ATOM     13  O   UNL     1      40.959 -24.759 -14.208  0.00  0.00    -0.245 OA
ATOM     14  C   UNL     1      40.023 -25.081 -14.944  0.00  0.00    +0.339 C 
BRANCH  14  15
ATOM     15  O   UNL     1      40.205 -25.801 -16.082  0.00  0.00    -0.477 OA
ATOM     16  H   UNL     1      39.561 -25.774 -16.763  0.00  0.00    +0.295 HD
ENDBRANCH  14  15
ENDBRANCH   3  14
TORSDOF 4
ENDMDL
