MODEL 1
REMARK VINA RESULT:      -9.1      0.000      0.000
REMARK  Name = 17755050
REMARK  8 active torsions:
REMARK  status: ('A' for Active; 'I' for Inactive)
REMARK    1  A    between atoms: C_2  and  C_25
REMARK    2  A    between atoms: C_4  and  O_16
REMARK    3  A    between atoms: C_13  and  O_18
REMARK    4  A    between atoms: C_14  and  O_20
REMARK    5  A    between atoms: O_20  and  C_21
REMARK    6  A    between atoms: C_21  and  C_22
REMARK    7  A    between atoms: C_22  and  C_24
REMARK    8  A    between atoms: C_25  and  C_26
REMARK                            x       y       z     vdW  Elec       q    Type
REMARK                         _______ _______ _______ _____ _____    ______ ____
ROOT
ATOM      1  N   UNL     1      33.506 -16.497 -21.174  0.00  0.00    +0.391 N 
ATOM      2  C   UNL     1      34.996 -18.446 -21.480  0.00  0.00    +0.006 C 
ATOM      3  C   UNL     1      33.695 -16.037 -22.574  0.00  0.00    -0.032 C 
ATOM      4  C   UNL     1      35.339 -17.957 -22.892  0.00  0.00    +0.107 C 
ATOM      5  C   UNL     1      33.599 -17.960 -21.071  0.00  0.00    -0.074 C 
ATOM      6  C   UNL     1      35.115 -16.448 -23.017  0.00  0.00    +0.013 C 
ATOM      7  C   UNL     1      32.230 -16.020 -20.636  0.00  0.00    -0.072 C 
ATOM      8  C   UNL     1      33.438 -14.541 -22.746  0.00  0.00    -0.042 C 
ATOM      9  C   UNL     1      32.289 -14.501 -20.489  0.00  0.00    +0.003 C 
ATOM     10  C   UNL     1      32.741 -13.822 -21.753  0.00  0.00    -0.027 C 
ATOM     11  C   UNL     1      33.803 -13.867 -23.922  0.00  0.00    +0.033 C 
ATOM     12  C   UNL     1      32.491 -12.451 -21.919  0.00  0.00    +0.035 C 
ATOM     13  C   UNL     1      33.540 -12.505 -24.086  0.00  0.00    +0.172 C 
ATOM     14  C   UNL     1      32.892 -11.795 -23.081  0.00  0.00    +0.172 C 
ATOM     15  H   UNL     1      34.260 -16.098 -20.615  0.00  0.00    -0.079 HD
ENDROOT
BRANCH   4  16
ATOM     16  O   UNL     1      36.702 -18.255 -23.180  0.00  0.00    -0.385 OA
ATOM     17  H   UNL     1      37.265 -17.533 -22.862  0.00  0.00    +0.210 HD
ENDBRANCH   4  16
BRANCH  13  18
ATOM     18  O   UNL     1      33.921 -11.884 -25.237  0.00  0.00    -0.468 OA
ATOM     19  C   UNL     1      33.584 -12.529 -26.463  0.00  0.00    +0.253 C 
ENDBRANCH  13  18
BRANCH  14  20
ATOM     20  O   UNL     1      32.633 -10.466 -23.225  0.00  0.00    -0.472 OA
BRANCH  20  21
ATOM     21  C   UNL     1      31.708  -9.882 -22.310  0.00  0.00    +0.208 C 
BRANCH  21  22
ATOM     22  C   UNL     1      32.312  -8.606 -21.745  0.00  0.00    +0.085 C 
BRANCH  22  24
ATOM     23  F   UNL     1      32.259  -9.901 -19.790  0.00  0.00    -0.234 F 
ATOM     24  C   UNL     1      32.344  -8.618 -20.229  0.00  0.00    +0.197 C 
ENDBRANCH  22  24
ENDBRANCH  21  22
ENDBRANCH  20  21
ENDBRANCH  14  20
BRANCH   2  25
ATOM     25  C   UNL     1      35.086 -19.970 -21.381  0.00  0.00    +0.000 C 
BRANCH  25  26
ATOM     26  C   UNL     1      35.016 -20.491 -19.938  0.00  0.00    +0.000 C 
ATOM     27  C   UNL     1      33.785 -21.364 -19.690  0.00  0.00    +0.000 C 
ATOM     28  C   UNL     1      36.285 -21.282 -19.618  0.00  0.00    +0.000 C 
ENDBRANCH  25  26
ENDBRANCH   2  25
TORSDOF 8
ENDMDL
MODEL 2
REMARK VINA RESULT:      -9.0      5.758     11.142
REMARK  Name = 17755050
REMARK  8 active torsions:
REMARK  status: ('A' for Active; 'I' for Inactive)
REMARK    1  A    between atoms: C_2  and  C_25
REMARK    2  A    between atoms: C_4  and  O_16
REMARK    3  A    between atoms: C_13  and  O_18
REMARK    4  A    between atoms: C_14  and  O_20
REMARK    5  A    between atoms: O_20  and  C_21
REMARK    6  A    between atoms: C_21  and  C_22
REMARK    7  A    between atoms: C_22  and  C_24
REMARK    8  A    between atoms: C_25  and  C_26
REMARK                            x       y       z     vdW  Elec       q    Type
REMARK                         _______ _______ _______ _____ _____    ______ ____
ROOT
ATOM      1  N   UNL     1      35.603 -20.980 -19.304  0.00  0.00    +0.391 N 
ATOM      2  C   UNL     1      34.544 -19.652 -21.101  0.00  0.00    +0.006 C 
ATOM      3  C   UNL     1      34.390 -21.814 -19.103  0.00  0.00    -0.032 C 
ATOM      4  C   UNL     1      33.220 -20.384 -20.858  0.00  0.00    +0.107 C 
ATOM      5  C   UNL     1      35.729 -20.542 -20.702  0.00  0.00    -0.074 C 
ATOM      6  C   UNL     1      33.159 -20.944 -19.434  0.00  0.00    +0.013 C 
ATOM      7  C   UNL     1      36.806 -21.697 -18.875  0.00  0.00    -0.072 C 
ATOM      8  C   UNL     1      34.316 -22.425 -17.705  0.00  0.00    -0.042 C 
ATOM      9  C   UNL     1      36.764 -21.875 -17.359  0.00  0.00    +0.003 C 
ATOM     10  C   UNL     1      35.465 -22.472 -16.889  0.00  0.00    -0.027 C 
ATOM     11  C   UNL     1      33.140 -23.031 -17.233  0.00  0.00    +0.033 C 
ATOM     12  C   UNL     1      35.401 -23.048 -15.611  0.00  0.00    +0.035 C 
ATOM     13  C   UNL     1      33.087 -23.614 -15.965  0.00  0.00    +0.172 C 
ATOM     14  C   UNL     1      34.214 -23.615 -15.151  0.00  0.00    +0.172 C 
ATOM     15  H   UNL     1      35.501 -20.145 -18.726  0.00  0.00    -0.079 HD
ENDROOT
BRANCH   4  16
ATOM     16  O   UNL     1      32.135 -19.483 -21.055  0.00  0.00    -0.385 OA
ATOM     17  H   UNL     1      31.409 -19.944 -21.503  0.00  0.00    +0.210 HD
ENDBRANCH   4  16
BRANCH  13  18
ATOM     18  O   UNL     1      31.925 -24.181 -15.538  0.00  0.00    -0.468 OA
ATOM     19  C   UNL     1      30.745 -23.383 -15.621  0.00  0.00    +0.253 C 
ENDBRANCH  13  18
BRANCH  14  20
ATOM     20  O   UNL     1      34.175 -24.175 -13.910  0.00  0.00    -0.472 OA
BRANCH  20  21
ATOM     21  C   UNL     1      35.424 -24.516 -13.312  0.00  0.00    +0.208 C 
BRANCH  21  22
ATOM     22  C   UNL     1      35.505 -23.870 -11.937  0.00  0.00    +0.085 C 
BRANCH  22  24
ATOM     23  F   UNL     1      37.398 -22.904 -12.931  0.00  0.00    -0.234 F 
ATOM     24  C   UNL     1      36.826 -23.156 -11.724  0.00  0.00    +0.197 C 
ENDBRANCH  22  24
ENDBRANCH  21  22
ENDBRANCH  20  21
ENDBRANCH  14  20
BRANCH   2  25
ATOM     25  C   UNL     1      34.675 -19.206 -22.559  0.00  0.00    +0.000 C 
BRANCH  25  26
ATOM     26  C   UNL     1      35.286 -17.806 -22.715  0.00  0.00    +0.000 C 
ATOM     27  C   UNL     1      34.874 -17.130 -24.023  0.00  0.00    +0.000 C 
ATOM     28  C   UNL     1      34.872 -16.933 -21.529  0.00  0.00    +0.000 C 
ENDBRANCH  25  26
ENDBRANCH   2  25
TORSDOF 8
ENDMDL
MODEL 3
REMARK VINA RESULT:      -8.4      3.512      9.259
REMARK  Name = 17755050
REMARK  8 active torsions:
REMARK  status: ('A' for Active; 'I' for Inactive)
REMARK    1  A    between atoms: C_2  and  C_25
REMARK    2  A    between atoms: C_4  and  O_16
REMARK    3  A    between atoms: C_13  and  O_18
REMARK    4  A    between atoms: C_14  and  O_20
REMARK    5  A    between atoms: O_20  and  C_21
REMARK    6  A    between atoms: C_21  and  C_22
REMARK    7  A    between atoms: C_22  and  C_24
REMARK    8  A    between atoms: C_25  and  C_26
REMARK                            x       y       z     vdW  Elec       q    Type
REMARK                         _______ _______ _______ _____ _____    ______ ____
ROOT
ATOM      1  N   UNL     1      33.295  -9.455 -23.326  0.00  0.00    +0.391 N 
ATOM      2  C   UNL     1      32.820  -7.594 -21.769  0.00  0.00    +0.006 C 
ATOM      3  C   UNL     1      32.389 -10.388 -22.606  0.00  0.00    -0.032 C 
ATOM      4  C   UNL     1      31.975  -8.538 -20.904  0.00  0.00    +0.107 C 
ATOM      5  C   UNL     1      32.823  -8.066 -23.229  0.00  0.00    -0.074 C 
ATOM      6  C   UNL     1      32.396  -9.994 -21.114  0.00  0.00    +0.013 C 
ATOM      7  C   UNL     1      33.447  -9.853 -24.727  0.00  0.00    -0.072 C 
ATOM      8  C   UNL     1      32.754 -11.855 -22.827  0.00  0.00    -0.042 C 
ATOM      9  C   UNL     1      34.207 -11.177 -24.787  0.00  0.00    +0.003 C 
ATOM     10  C   UNL     1      33.604 -12.223 -23.890  0.00  0.00    -0.027 C 
ATOM     11  C   UNL     1      32.188 -12.875 -22.044  0.00  0.00    +0.033 C 
ATOM     12  C   UNL     1      33.925 -13.573 -24.101  0.00  0.00    +0.035 C 
ATOM     13  C   UNL     1      32.503 -14.216 -22.268  0.00  0.00    +0.172 C 
ATOM     14  C   UNL     1      33.378 -14.565 -23.291  0.00  0.00    +0.172 C 
ATOM     15  H   UNL     1      34.208  -9.504 -22.875  0.00  0.00    -0.079 HD
ENDROOT
BRANCH   4  16
ATOM     16  O   UNL     1      32.134  -8.195 -19.531  0.00  0.00    -0.385 OA
ATOM     17  H   UNL     1      33.031  -8.425 -19.242  0.00  0.00    +0.210 HD
ENDBRANCH   4  16
BRANCH  13  18
ATOM     18  O   UNL     1      31.943 -15.175 -21.479  0.00  0.00    -0.468 OA
ATOM     19  C   UNL     1      32.602 -15.468 -20.249  0.00  0.00    +0.253 C 
ENDBRANCH  13  18
BRANCH  14  20
ATOM     20  O   UNL     1      33.698 -15.869 -23.518  0.00  0.00    -0.472 OA
BRANCH  20  21
ATOM     21  C   UNL     1      34.181 -16.202 -24.818  0.00  0.00    +0.208 C 
BRANCH  21  22
ATOM     22  C   UNL     1      34.569 -17.673 -24.837  0.00  0.00    +0.085 C 
BRANCH  22  24
ATOM     23  F   UNL     1      34.561 -19.340 -23.187  0.00  0.00    -0.234 F 
ATOM     24  C   UNL     1      35.106 -18.134 -23.496  0.00  0.00    +0.197 C 
ENDBRANCH  22  24
ENDBRANCH  21  22
ENDBRANCH  20  21
ENDBRANCH  14  20
BRANCH   2  25
ATOM     25  C   UNL     1      32.319  -6.152 -21.671  0.00  0.00    +0.000 C 
BRANCH  25  26
ATOM     26  C   UNL     1      30.996  -5.915 -22.412  0.00  0.00    +0.000 C 
ATOM     27  C   UNL     1      29.973  -5.164 -21.559  0.00  0.00    +0.000 C 
ATOM     28  C   UNL     1      31.263  -5.139 -23.703  0.00  0.00    +0.000 C 
ENDBRANCH  25  26
ENDBRANCH   2  25
TORSDOF 8
ENDMDL
MODEL 4
REMARK VINA RESULT:      -8.4      3.021      8.193
REMARK  Name = 17755050
REMARK  8 active torsions:
REMARK  status: ('A' for Active; 'I' for Inactive)
REMARK    1  A    between atoms: C_2  and  C_25
REMARK    2  A    between atoms: C_4  and  O_16
REMARK    3  A    between atoms: C_13  and  O_18
REMARK    4  A    between atoms: C_14  and  O_20
REMARK    5  A    between atoms: O_20  and  C_21
REMARK    6  A    between atoms: C_21  and  C_22
REMARK    7  A    between atoms: C_22  and  C_24
REMARK    8  A    between atoms: C_25  and  C_26
REMARK                            x       y       z     vdW  Elec       q    Type
REMARK                         _______ _______ _______ _____ _____    ______ ____
ROOT
ATOM      1  N   UNL     1      33.838 -14.127 -22.713  0.00  0.00    +0.391 N 
ATOM      2  C   UNL     1      33.247 -12.621 -24.582  0.00  0.00    +0.006 C 
ATOM      3  C   UNL     1      34.473 -15.121 -23.616  0.00  0.00    -0.032 C 
ATOM      4  C   UNL     1      33.766 -13.661 -25.580  0.00  0.00    +0.107 C 
ATOM      5  C   UNL     1      33.973 -12.760 -23.237  0.00  0.00    -0.074 C 
ATOM      6  C   UNL     1      33.736 -15.065 -24.971  0.00  0.00    +0.013 C 
ATOM      7  C   UNL     1      34.395 -14.220 -21.361  0.00  0.00    -0.072 C 
ATOM      8  C   UNL     1      34.500 -16.529 -23.022  0.00  0.00    -0.042 C 
ATOM      9  C   UNL     1      33.979 -15.553 -20.743  0.00  0.00    +0.003 C 
ATOM     10  C   UNL     1      34.288 -16.721 -21.641  0.00  0.00    -0.027 C 
ATOM     11  C   UNL     1      34.823 -17.648 -23.807  0.00  0.00    +0.033 C 
ATOM     12  C   UNL     1      34.329 -18.012 -21.094  0.00  0.00    +0.035 C 
ATOM     13  C   UNL     1      34.874 -18.928 -23.252  0.00  0.00    +0.172 C 
ATOM     14  C   UNL     1      34.619 -19.112 -21.898  0.00  0.00    +0.172 C 
ATOM     15  H   UNL     1      32.843 -14.345 -22.667  0.00  0.00    -0.079 HD
ENDROOT
BRANCH   4  16
ATOM     16  O   UNL     1      32.957 -13.641 -26.752  0.00  0.00    -0.385 OA
ATOM     17  H   UNL     1      32.040 -13.849 -26.516  0.00  0.00    +0.210 HD
ENDBRANCH   4  16
BRANCH  13  18
ATOM     18  O   UNL     1      35.178 -19.990 -24.050  0.00  0.00    -0.468 OA
ATOM     19  C   UNL     1      34.612 -20.002 -25.358  0.00  0.00    +0.253 C 
ENDBRANCH  13  18
BRANCH  14  20
ATOM     20  O   UNL     1      34.660 -20.355 -21.345  0.00  0.00    -0.472 OA
BRANCH  20  21
ATOM     21  C   UNL     1      35.638 -20.583 -20.332  0.00  0.00    +0.208 C 
BRANCH  21  22
ATOM     22  C   UNL     1      35.057 -21.525 -19.289  0.00  0.00    +0.085 C 
BRANCH  22  24
ATOM     23  F   UNL     1      32.837 -20.779 -19.159  0.00  0.00    -0.234 F 
ATOM     24  C   UNL     1      33.596 -21.834 -19.556  0.00  0.00    +0.197 C 
ENDBRANCH  22  24
ENDBRANCH  21  22
ENDBRANCH  20  21
ENDBRANCH  14  20
BRANCH   2  25
ATOM     25  C   UNL     1      33.398 -11.200 -25.129  0.00  0.00    +0.000 C 
BRANCH  25  26
ATOM     26  C   UNL     1      34.785 -10.593 -24.871  0.00  0.00    +0.000 C 
ATOM     27  C   UNL     1      35.585 -10.394 -26.159  0.00  0.00    +0.000 C 
ATOM     28  C   UNL     1      34.631  -9.255 -24.145  0.00  0.00    +0.000 C 
ENDBRANCH  25  26
ENDBRANCH   2  25
TORSDOF 8
ENDMDL
MODEL 5
REMARK VINA RESULT:      -8.3      5.537     10.824
REMARK  Name = 17755050
REMARK  8 active torsions:
REMARK  status: ('A' for Active; 'I' for Inactive)
REMARK    1  A    between atoms: C_2  and  C_25
REMARK    2  A    between atoms: C_4  and  O_16
REMARK    3  A    between atoms: C_13  and  O_18
REMARK    4  A    between atoms: C_14  and  O_20
REMARK    5  A    between atoms: O_20  and  C_21
REMARK    6  A    between atoms: C_21  and  C_22
REMARK    7  A    between atoms: C_22  and  C_24
REMARK    8  A    between atoms: C_25  and  C_26
REMARK                            x       y       z     vdW  Elec       q    Type
REMARK                         _______ _______ _______ _____ _____    ______ ____
ROOT
ATOM      1  N   UNL     1      35.617 -20.693 -19.554  0.00  0.00    +0.391 N 
ATOM      2  C   UNL     1      34.795 -19.078 -21.237  0.00  0.00    +0.006 C 
ATOM      3  C   UNL     1      34.335 -21.444 -19.540  0.00  0.00    -0.032 C 
ATOM      4  C   UNL     1      33.407 -19.725 -21.174  0.00  0.00    +0.107 C 
ATOM      5  C   UNL     1      35.880 -20.102 -20.875  0.00  0.00    -0.074 C 
ATOM      6  C   UNL     1      33.199 -20.444 -19.839  0.00  0.00    +0.013 C 
ATOM      7  C   UNL     1      36.729 -21.551 -19.140  0.00  0.00    -0.072 C 
ATOM      8  C   UNL     1      34.113 -22.211 -18.237  0.00  0.00    -0.042 C 
ATOM      9  C   UNL     1      36.561 -21.905 -17.665  0.00  0.00    +0.003 C 
ATOM     10  C   UNL     1      35.191 -22.448 -17.360  0.00  0.00    -0.027 C 
ATOM     11  C   UNL     1      32.864 -22.772 -17.923  0.00  0.00    +0.033 C 
ATOM     12  C   UNL     1      34.989 -23.166 -16.171  0.00  0.00    +0.035 C 
ATOM     13  C   UNL     1      32.674 -23.496 -16.744  0.00  0.00    +0.172 C 
ATOM     14  C   UNL     1      33.734 -23.686 -15.864  0.00  0.00    +0.172 C 
ATOM     15  H   UNL     1      35.533 -19.928 -18.884  0.00  0.00    -0.079 HD
ENDROOT
BRANCH   4  16
ATOM     16  O   UNL     1      32.408 -18.722 -21.328  0.00  0.00    -0.385 OA
ATOM     17  H   UNL     1      32.796 -17.850 -21.158  0.00  0.00    +0.210 HD
ENDBRANCH   4  16
BRANCH  13  18
ATOM     18  O   UNL     1      31.445 -24.014 -16.469  0.00  0.00    -0.468 OA
ATOM     19  C   UNL     1      30.346 -23.106 -16.457  0.00  0.00    +0.253 C 
ENDBRANCH  13  18
BRANCH  14  20
ATOM     20  O   UNL     1      33.561 -24.385 -14.708  0.00  0.00    -0.472 OA
BRANCH  20  21
ATOM     21  C   UNL     1      33.395 -23.629 -13.511  0.00  0.00    +0.208 C 
BRANCH  21  22
ATOM     22  C   UNL     1      31.911 -23.542 -13.186  0.00  0.00    +0.085 C 
BRANCH  22  24
ATOM     23  F   UNL     1      29.920 -24.701 -13.629  0.00  0.00    -0.234 F 
ATOM     24  C   UNL     1      31.226 -24.890 -13.303  0.00  0.00    +0.197 C 
ENDBRANCH  22  24
ENDBRANCH  21  22
ENDBRANCH  20  21
ENDBRANCH  14  20
BRANCH   2  25
ATOM     25  C   UNL     1      35.067 -18.473 -22.615  0.00  0.00    +0.000 C 
BRANCH  25  26
ATOM     26  C   UNL     1      35.339 -16.963 -22.574  0.00  0.00    +0.000 C 
ATOM     27  C   UNL     1      34.636 -16.210 -23.704  0.00  0.00    +0.000 C 
ATOM     28  C   UNL     1      34.895 -16.400 -21.222  0.00  0.00    +0.000 C 
ENDBRANCH  25  26
ENDBRANCH   2  25
TORSDOF 8
ENDMDL
MODEL 6
REMARK VINA RESULT:      -8.1      2.903      8.288
REMARK  Name = 17755050
REMARK  8 active torsions:
REMARK  status: ('A' for Active; 'I' for Inactive)
REMARK    1  A    between atoms: C_2  and  C_25
REMARK    2  A    between atoms: C_4  and  O_16
REMARK    3  A    between atoms: C_13  and  O_18
REMARK    4  A    between atoms: C_14  and  O_20
REMARK    5  A    between atoms: O_20  and  C_21
REMARK    6  A    between atoms: C_21  and  C_22
REMARK    7  A    between atoms: C_22  and  C_24
REMARK    8  A    between atoms: C_25  and  C_26
REMARK                            x       y       z     vdW  Elec       q    Type
REMARK                         _______ _______ _______ _____ _____    ______ ____
ROOT
ATOM      1  N   UNL     1      32.725 -13.213 -21.913  0.00  0.00    +0.391 N 
ATOM      2  C   UNL     1      32.712 -11.383 -23.574  0.00  0.00    +0.006 C 
ATOM      3  C   UNL     1      33.874 -13.896 -22.562  0.00  0.00    -0.032 C 
ATOM      4  C   UNL     1      33.810 -12.099 -24.368  0.00  0.00    +0.107 C 
ATOM      5  C   UNL     1      32.796 -11.756 -22.088  0.00  0.00    -0.074 C 
ATOM      6  C   UNL     1      33.803 -13.602 -24.076  0.00  0.00    +0.013 C 
ATOM      7  C   UNL     1      32.647 -13.562 -20.492  0.00  0.00    -0.072 C 
ATOM      8  C   UNL     1      33.924 -15.392 -22.258  0.00  0.00    -0.042 C 
ATOM      9  C   UNL     1      32.282 -15.038 -20.362  0.00  0.00    +0.003 C 
ATOM     10  C   UNL     1      33.178 -15.923 -21.186  0.00  0.00    -0.027 C 
ATOM     11  C   UNL     1      34.773 -16.255 -22.970  0.00  0.00    +0.033 C 
ATOM     12  C   UNL     1      33.237 -17.296 -20.897  0.00  0.00    +0.035 C 
ATOM     13  C   UNL     1      34.835 -17.617 -22.668  0.00  0.00    +0.172 C 
ATOM     14  C   UNL     1      34.061 -18.139 -21.638  0.00  0.00    +0.172 C 
ATOM     15  H   UNL     1      31.874 -13.540 -22.372  0.00  0.00    -0.079 HD
ENDROOT
BRANCH   4  16
ATOM     16  O   UNL     1      33.603 -11.890 -25.761  0.00  0.00    -0.385 OA
ATOM     17  H   UNL     1      33.284 -12.711 -26.168  0.00  0.00    +0.210 HD
ENDBRANCH   4  16
BRANCH  13  18
ATOM     18  O   UNL     1      35.662 -18.424 -23.390  0.00  0.00    -0.468 OA
ATOM     19  C   UNL     1      35.070 -19.185 -24.441  0.00  0.00    +0.253 C 
ENDBRANCH  13  18
BRANCH  14  20
ATOM     20  O   UNL     1      34.109 -19.466 -21.336  0.00  0.00    -0.472 OA
BRANCH  20  21
ATOM     21  C   UNL     1      32.951 -20.035 -20.729  0.00  0.00    +0.208 C 
BRANCH  21  22
ATOM     22  C   UNL     1      33.388 -21.114 -19.749  0.00  0.00    +0.085 C 
BRANCH  22  24
ATOM     23  F   UNL     1      35.236 -22.558 -19.666  0.00  0.00    -0.234 F 
ATOM     24  C   UNL     1      34.898 -21.241 -19.685  0.00  0.00    +0.197 C 
ENDBRANCH  22  24
ENDBRANCH  21  22
ENDBRANCH  20  21
ENDBRANCH  14  20
BRANCH   2  25
ATOM     25  C   UNL     1      32.796  -9.865 -23.752  0.00  0.00    +0.000 C 
BRANCH  25  26
ATOM     26  C   UNL     1      31.876  -9.089 -22.799  0.00  0.00    +0.000 C 
ATOM     27  C   UNL     1      32.656  -8.313 -21.737  0.00  0.00    +0.000 C 
ATOM     28  C   UNL     1      30.999  -8.128 -23.604  0.00  0.00    +0.000 C 
ENDBRANCH  25  26
ENDBRANCH   2  25
TORSDOF 8
ENDMDL
MODEL 7
REMARK VINA RESULT:      -7.9      3.265      5.542
REMARK  Name = 17755050
REMARK  8 active torsions:
REMARK  status: ('A' for Active; 'I' for Inactive)
REMARK    1  A    between atoms: C_2  and  C_25
REMARK    2  A    between atoms: C_4  and  O_16
REMARK    3  A    between atoms: C_13  and  O_18
REMARK    4  A    between atoms: C_14  and  O_20
REMARK    5  A    between atoms: O_20  and  C_21
REMARK    6  A    between atoms: C_21  and  C_22
REMARK    7  A    between atoms: C_22  and  C_24
REMARK    8  A    between atoms: C_25  and  C_26
REMARK                            x       y       z     vdW  Elec       q    Type
REMARK                         _______ _______ _______ _____ _____    ______ ____
ROOT
ATOM      1  N   UNL     1      32.176 -11.639 -20.935  0.00  0.00    +0.391 N 
ATOM      2  C   UNL     1      32.954 -13.787 -21.880  0.00  0.00    +0.006 C 
ATOM      3  C   UNL     1      31.976 -11.035 -22.278  0.00  0.00    -0.032 C 
ATOM      4  C   UNL     1      32.897 -13.185 -23.288  0.00  0.00    +0.107 C 
ATOM      5  C   UNL     1      31.944 -13.090 -20.958  0.00  0.00    -0.074 C 
ATOM      6  C   UNL     1      33.013 -11.660 -23.235  0.00  0.00    +0.013 C 
ATOM      7  C   UNL     1      31.318 -10.993 -19.940  0.00  0.00    -0.072 C 
ATOM      8  C   UNL     1      32.043  -9.509 -22.257  0.00  0.00    -0.042 C 
ATOM      9  C   UNL     1      31.787  -9.554 -19.737  0.00  0.00    +0.003 C 
ATOM     10  C   UNL     1      31.925  -8.810 -21.038  0.00  0.00    -0.027 C 
ATOM     11  C   UNL     1      32.131  -8.764 -23.445  0.00  0.00    +0.033 C 
ATOM     12  C   UNL     1      31.971  -7.407 -21.021  0.00  0.00    +0.035 C 
ATOM     13  C   UNL     1      32.163  -7.368 -23.421  0.00  0.00    +0.172 C 
ATOM     14  C   UNL     1      32.091  -6.690 -22.209  0.00  0.00    +0.172 C 
ATOM     15  H   UNL     1      33.149 -11.484 -20.671  0.00  0.00    -0.079 HD
ENDROOT
BRANCH   4  16
ATOM     16  O   UNL     1      33.962 -13.710 -24.074  0.00  0.00    -0.385 OA
ATOM     17  H   UNL     1      33.616 -14.012 -24.928  0.00  0.00    +0.210 HD
ENDBRANCH   4  16
BRANCH  13  18
ATOM     18  O   UNL     1      32.261  -6.682 -24.593  0.00  0.00    -0.468 OA
ATOM     19  C   UNL     1      33.565  -6.264 -24.992  0.00  0.00    +0.253 C 
ENDBRANCH  13  18
BRANCH  14  20
ATOM     20  O   UNL     1      32.127  -5.329 -22.171  0.00  0.00    -0.472 OA
BRANCH  20  21
ATOM     21  C   UNL     1      30.911  -4.640 -22.457  0.00  0.00    +0.208 C 
BRANCH  21  22
ATOM     22  C   UNL     1      31.244  -3.283 -23.058  0.00  0.00    +0.085 C 
BRANCH  22  24
ATOM     23  F   UNL     1      30.417  -4.287 -25.010  0.00  0.00    -0.234 F 
ATOM     24  C   UNL     1      31.272  -3.325 -24.574  0.00  0.00    +0.197 C 
ENDBRANCH  22  24
ENDBRANCH  21  22
ENDBRANCH  20  21
ENDBRANCH  14  20
BRANCH   2  25
ATOM     25  C   UNL     1      32.704 -15.296 -21.908  0.00  0.00    +0.000 C 
BRANCH  25  26
ATOM     26  C   UNL     1      33.890 -16.120 -21.388  0.00  0.00    +0.000 C 
ATOM     27  C   UNL     1      34.807 -16.600 -22.513  0.00  0.00    +0.000 C 
ATOM     28  C   UNL     1      34.692 -15.286 -20.387  0.00  0.00    +0.000 C 
ENDBRANCH  25  26
ENDBRANCH   2  25
TORSDOF 8
ENDMDL
MODEL 8
REMARK VINA RESULT:      -7.9      5.506      9.035
REMARK  Name = 17755050
REMARK  8 active torsions:
REMARK  status: ('A' for Active; 'I' for Inactive)
REMARK    1  A    between atoms: C_2  and  C_25
REMARK    2  A    between atoms: C_4  and  O_16
REMARK    3  A    between atoms: C_13  and  O_18
REMARK    4  A    between atoms: C_14  and  O_20
REMARK    5  A    between atoms: O_20  and  C_21
REMARK    6  A    between atoms: C_21  and  C_22
REMARK    7  A    between atoms: C_22  and  C_24
REMARK    8  A    between atoms: C_25  and  C_26
REMARK                            x       y       z     vdW  Elec       q    Type
REMARK                         _______ _______ _______ _____ _____    ______ ____
ROOT
ATOM      1  N   UNL     1      34.102 -23.151 -16.341  0.00  0.00    +0.391 N 
ATOM      2  C   UNL     1      35.616 -23.698 -14.465  0.00  0.00    +0.006 C 
ATOM      3  C   UNL     1      35.229 -22.931 -17.285  0.00  0.00    -0.032 C 
ATOM      4  C   UNL     1      36.825 -23.360 -15.346  0.00  0.00    +0.107 C 
ATOM      5  C   UNL     1      34.437 -24.164 -15.330  0.00  0.00    -0.074 C 
ATOM      6  C   UNL     1      36.428 -22.402 -16.472  0.00  0.00    +0.013 C 
ATOM      7  C   UNL     1      32.883 -23.522 -17.063  0.00  0.00    -0.072 C 
ATOM      8  C   UNL     1      34.857 -22.012 -18.447  0.00  0.00    -0.042 C 
ATOM      9  C   UNL     1      32.408 -22.327 -17.885  0.00  0.00    +0.003 C 
ATOM     10  C   UNL     1      33.503 -21.751 -18.741  0.00  0.00    -0.027 C 
ATOM     11  C   UNL     1      35.837 -21.480 -19.301  0.00  0.00    +0.033 C 
ATOM     12  C   UNL     1      33.162 -20.919 -19.819  0.00  0.00    +0.035 C 
ATOM     13  C   UNL     1      35.490 -20.663 -20.379  0.00  0.00    +0.172 C 
ATOM     14  C   UNL     1      34.153 -20.376 -20.633  0.00  0.00    +0.172 C 
ATOM     15  H   UNL     1      33.933 -22.270 -15.854  0.00  0.00    -0.079 HD
ENDROOT
BRANCH   4  16
ATOM     16  O   UNL     1      37.840 -22.756 -14.550  0.00  0.00    -0.385 OA
ATOM     17  H   UNL     1      38.344 -23.446 -14.091  0.00  0.00    +0.210 HD
ENDBRANCH   4  16
BRANCH  13  18
ATOM     18  O   UNL     1      36.471 -20.157 -21.177  0.00  0.00    -0.468 OA
ATOM     19  C   UNL     1      37.278 -19.116 -20.631  0.00  0.00    +0.253 C 
ENDBRANCH  13  18
BRANCH  14  20
ATOM     20  O   UNL     1      33.800 -19.577 -21.678  0.00  0.00    -0.472 OA
BRANCH  20  21
ATOM     21  C   UNL     1      33.742 -18.173 -21.431  0.00  0.00    +0.208 C 
BRANCH  21  22
ATOM     22  C   UNL     1      34.535 -17.450 -22.509  0.00  0.00    +0.085 C 
BRANCH  22  24
ATOM     23  F   UNL     1      36.082 -18.675 -23.778  0.00  0.00    -0.234 F 
ATOM     24  C   UNL     1      34.769 -18.328 -23.724  0.00  0.00    +0.197 C 
ENDBRANCH  22  24
ENDBRANCH  21  22
ENDBRANCH  20  21
ENDBRANCH  14  20
BRANCH   2  25
ATOM     25  C   UNL     1      35.968 -24.759 -13.420  0.00  0.00    +0.000 C 
BRANCH  25  26
ATOM     26  C   UNL     1      37.264 -25.518 -13.737  0.00  0.00    +0.000 C 
ATOM     27  C   UNL     1      38.139 -25.724 -12.499  0.00  0.00    +0.000 C 
ATOM     28  C   UNL     1      36.925 -26.873 -14.362  0.00  0.00    +0.000 C 
ENDBRANCH  25  26
ENDBRANCH   2  25
TORSDOF 8
ENDMDL
MODEL 9
REMARK VINA RESULT:      -7.8      3.490      9.502
REMARK  Name = 17755050
REMARK  8 active torsions:
REMARK  status: ('A' for Active; 'I' for Inactive)
REMARK    1  A    between atoms: C_2  and  C_25
REMARK    2  A    between atoms: C_4  and  O_16
REMARK    3  A    between atoms: C_13  and  O_18
REMARK    4  A    between atoms: C_14  and  O_20
REMARK    5  A    between atoms: O_20  and  C_21
REMARK    6  A    between atoms: C_21  and  C_22
REMARK    7  A    between atoms: C_22  and  C_24
REMARK    8  A    between atoms: C_25  and  C_26
REMARK                            x       y       z     vdW  Elec       q    Type
REMARK                         _______ _______ _______ _____ _____    ______ ____
ROOT
ATOM      1  N   UNL     1      31.746  -8.506 -21.395  0.00  0.00    +0.391 N 
ATOM      2  C   UNL     1      31.740  -6.417 -22.715  0.00  0.00    +0.006 C 
ATOM      3  C   UNL     1      32.667  -9.189 -22.339  0.00  0.00    -0.032 C 
ATOM      4  C   UNL     1      32.584  -7.101 -23.797  0.00  0.00    +0.107 C 
ATOM      5  C   UNL     1      32.000  -7.060 -21.346  0.00  0.00    -0.074 C 
ATOM      6  C   UNL     1      32.403  -8.620 -23.749  0.00  0.00    +0.013 C 
ATOM      7  C   UNL     1      31.841  -9.094 -20.056  0.00  0.00    -0.072 C 
ATOM      8  C   UNL     1      32.545 -10.712 -22.290  0.00  0.00    -0.042 C 
ATOM      9  C   UNL     1      31.290 -10.518 -20.098  0.00  0.00    +0.003 C 
ATOM     10  C   UNL     1      31.907 -11.337 -21.199  0.00  0.00    -0.027 C 
ATOM     11  C   UNL     1      33.137 -11.525 -23.270  0.00  0.00    +0.033 C 
ATOM     12  C   UNL     1      31.809 -12.737 -21.146  0.00  0.00    +0.035 C 
ATOM     13  C   UNL     1      33.047 -12.917 -23.204  0.00  0.00    +0.172 C 
ATOM     14  C   UNL     1      32.376 -13.522 -22.147  0.00  0.00    +0.172 C 
ATOM     15  H   UNL     1      30.795  -8.643 -21.740  0.00  0.00    -0.079 HD
ENDROOT
BRANCH   4  16
ATOM     16  O   UNL     1      32.193  -6.621 -25.079  0.00  0.00    -0.385 OA
ATOM     17  H   UNL     1      32.957  -6.637 -25.677  0.00  0.00    +0.210 HD
ENDBRANCH   4  16
BRANCH  13  18
ATOM     18  O   UNL     1      33.623 -13.671 -24.181  0.00  0.00    -0.468 OA
ATOM     19  C   UNL     1      32.855 -13.902 -25.360  0.00  0.00    +0.253 C 
ENDBRANCH  13  18
BRANCH  14  20
ATOM     20  O   UNL     1      32.276 -14.878 -22.073  0.00  0.00    -0.472 OA
BRANCH  20  21
ATOM     21  C   UNL     1      32.693 -15.494 -20.856  0.00  0.00    +0.208 C 
BRANCH  21  22
ATOM     22  C   UNL     1      34.212 -15.467 -20.786  0.00  0.00    +0.085 C 
BRANCH  22  24
ATOM     23  F   UNL     1      35.260 -15.870 -22.846  0.00  0.00    -0.234 F 
ATOM     24  C   UNL     1      34.841 -16.491 -21.712  0.00  0.00    +0.197 C 
ENDBRANCH  22  24
ENDBRANCH  21  22
ENDBRANCH  20  21
ENDBRANCH  14  20
BRANCH   2  25
ATOM     25  C   UNL     1      32.015  -4.912 -22.663  0.00  0.00    +0.000 C 
BRANCH  25  26
ATOM     26  C   UNL     1      30.931  -4.072 -23.353  0.00  0.00    +0.000 C 
ATOM     27  C   UNL     1      30.464  -2.898 -22.492  0.00  0.00    +0.000 C 
ATOM     28  C   UNL     1      31.461  -3.553 -24.691  0.00  0.00    +0.000 C 
ENDBRANCH  25  26
ENDBRANCH   2  25
TORSDOF 8
ENDMDL
