MODEL 1
REMARK VINA RESULT:      -8.0      0.000      0.000
REMARK  Name = 657043
REMARK  6 active torsions:
REMARK  status: ('A' for Active; 'I' for Inactive)
REMARK    1  A    between atoms: C_2  and  O_13
REMARK    2  A    between atoms: C_3  and  O_15
REMARK    3  A    between atoms: C_4  and  O_17
REMARK    4  A    between atoms: C_5  and  C_19
REMARK    5  A    between atoms: C_6  and  C_10
REMARK    6  A    between atoms: C_19  and  O_20
REMARK                            x       y       z     vdW  Elec       q    Type
REMARK                         _______ _______ _______ _____ _____    ______ ____
ROOT
ATOM      1  O   UNL     1      31.558 -22.848 -16.651  0.00  0.00    -0.342 OA
ATOM      2  C   UNL     1      32.950 -23.966 -14.393  0.00  0.00    +0.169 C 
ATOM      3  C   UNL     1      31.534 -23.399 -14.289  0.00  0.00    +0.169 C 
ATOM      4  C   UNL     1      33.699 -23.374 -15.591  0.00  0.00    +0.176 C 
ATOM      5  C   UNL     1      30.805 -23.504 -15.630  0.00  0.00    +0.174 C 
ATOM      6  C   UNL     1      32.842 -23.443 -16.862  0.00  0.00    +0.222 C 
ENDROOT
BRANCH   6  10
ATOM      7  O   UNL     1      32.663 -21.864 -18.716  0.00  0.00    -0.421 OA
ATOM      8  N   UNL     1      34.705 -22.742 -18.456  0.00  0.00    -0.109 NA
ATOM      9  N   UNL     1      34.747 -21.875 -19.531  0.00  0.00    -0.112 NA
ATOM     10  C   UNL     1      33.476 -22.697 -18.021  0.00  0.00    +0.255 A 
ATOM     11  C   UNL     1      33.535 -21.385 -19.646  0.00  0.00    +0.227 A 
ATOM     12  C   UNL     1      33.005 -20.416 -20.614  0.00  0.00    +0.097 C 
ENDBRANCH   6  10
BRANCH   2  13
ATOM     13  O   UNL     1      33.646 -23.638 -13.189  0.00  0.00    -0.379 OA
ATOM     14  H   UNL     1      33.409 -24.273 -12.496  0.00  0.00    +0.211 HD
ENDBRANCH   2  13
BRANCH   3  15
ATOM     15  O   UNL     1      30.809 -24.126 -13.302  0.00  0.00    -0.379 OA
ATOM     16  H   UNL     1      30.225 -23.521 -12.817  0.00  0.00    +0.211 HD
ENDBRANCH   3  15
BRANCH   4  17
ATOM     17  O   UNL     1      34.896 -24.120 -15.807  0.00  0.00    -0.379 OA
ATOM     18  H   UNL     1      35.615 -23.738 -15.278  0.00  0.00    +0.211 HD
ENDBRANCH   4  17
BRANCH   5  19
ATOM     19  C   UNL     1      29.431 -22.846 -15.580  0.00  0.00    +0.169 C 
BRANCH  19  20
ATOM     20  O   UNL     1      29.126 -22.340 -16.868  0.00  0.00    -0.379 OA
ATOM     21  H   UNL     1      28.231 -21.966 -16.865  0.00  0.00    +0.211 HD
ENDBRANCH  19  20
ENDBRANCH   5  19
TORSDOF 6
ENDMDL
MODEL 2
REMARK VINA RESULT:      -7.8      3.107      5.478
REMARK  Name = 657043
REMARK  6 active torsions:
REMARK  status: ('A' for Active; 'I' for Inactive)
REMARK    1  A    between atoms: C_2  and  O_13
REMARK    2  A    between atoms: C_3  and  O_15
REMARK    3  A    between atoms: C_4  and  O_17
REMARK    4  A    between atoms: C_5  and  C_19
REMARK    5  A    between atoms: C_6  and  C_10
REMARK    6  A    between atoms: C_19  and  O_20
REMARK                            x       y       z     vdW  Elec       q    Type
REMARK                         _______ _______ _______ _____ _____    ______ ____
ROOT
ATOM      1  O   UNL     1      36.336 -24.604 -14.912  0.00  0.00    -0.342 OA
ATOM      2  C   UNL     1      35.817 -24.623 -12.082  0.00  0.00    +0.169 C 
ATOM      3  C   UNL     1      36.945 -25.436 -12.717  0.00  0.00    +0.169 C 
ATOM      4  C   UNL     1      34.720 -24.303 -13.101  0.00  0.00    +0.176 C 
ATOM      5  C   UNL     1      37.429 -24.777 -14.011  0.00  0.00    +0.174 C 
ATOM      6  C   UNL     1      35.322 -23.738 -14.395  0.00  0.00    +0.222 C 
ENDROOT
BRANCH   6  10
ATOM      7  O   UNL     1      33.004 -23.399 -15.085  0.00  0.00    -0.421 OA
ATOM      8  N   UNL     1      34.441 -23.620 -16.785  0.00  0.00    -0.109 NA
ATOM      9  N   UNL     1      33.178 -23.438 -17.315  0.00  0.00    -0.112 NA
ATOM     10  C   UNL     1      34.283 -23.588 -15.491  0.00  0.00    +0.255 A 
ATOM     11  C   UNL     1      32.372 -23.313 -16.287  0.00  0.00    +0.227 A 
ATOM     12  C   UNL     1      30.919 -23.096 -16.258  0.00  0.00    +0.097 C 
ENDBRANCH   6  10
BRANCH   2  13
ATOM     13  O   UNL     1      35.263 -25.395 -11.015  0.00  0.00    -0.379 OA
ATOM     14  H   UNL     1      35.838 -26.154 -10.834  0.00  0.00    +0.211 HD
ENDBRANCH   2  13
BRANCH   3  15
ATOM     15  O   UNL     1      38.032 -25.526 -11.801  0.00  0.00    -0.379 OA
ATOM     16  H   UNL     1      38.861 -25.313 -12.259  0.00  0.00    +0.211 HD
ENDBRANCH   3  15
BRANCH   4  17
ATOM     17  O   UNL     1      33.838 -23.327 -12.546  0.00  0.00    -0.379 OA
ATOM     18  H   UNL     1      32.922 -23.642 -12.618  0.00  0.00    +0.211 HD
ENDBRANCH   4  17
BRANCH   5  19
ATOM     19  C   UNL     1      38.478 -25.627 -14.720  0.00  0.00    +0.169 C 
BRANCH  19  20
ATOM     20  O   UNL     1      38.188 -26.993 -14.480  0.00  0.00    -0.379 OA
ATOM     21  H   UNL     1      38.305 -27.497 -15.300  0.00  0.00    +0.211 HD
ENDBRANCH  19  20
ENDBRANCH   5  19
TORSDOF 6
ENDMDL
MODEL 3
REMARK VINA RESULT:      -7.8      3.569      5.618
REMARK  Name = 657043
REMARK  6 active torsions:
REMARK  status: ('A' for Active; 'I' for Inactive)
REMARK    1  A    between atoms: C_2  and  O_13
REMARK    2  A    between atoms: C_3  and  O_15
REMARK    3  A    between atoms: C_4  and  O_17
REMARK    4  A    between atoms: C_5  and  C_19
REMARK    5  A    between atoms: C_6  and  C_10
REMARK    6  A    between atoms: C_19  and  O_20
REMARK                            x       y       z     vdW  Elec       q    Type
REMARK                         _______ _______ _______ _____ _____    ______ ____
ROOT
ATOM      1  O   UNL     1      35.910 -23.810 -13.563  0.00  0.00    -0.342 OA
ATOM      2  C   UNL     1      37.471 -26.203 -13.906  0.00  0.00    +0.169 C 
ATOM      3  C   UNL     1      37.824 -25.132 -12.874  0.00  0.00    +0.169 C 
ATOM      4  C   UNL     1      36.621 -25.624 -15.041  0.00  0.00    +0.176 C 
ATOM      5  C   UNL     1      36.572 -24.372 -12.429  0.00  0.00    +0.174 C 
ATOM      6  C   UNL     1      35.450 -24.803 -14.484  0.00  0.00    +0.222 C 
ENDROOT
BRANCH   6  10
ATOM      7  O   UNL     1      33.360 -23.947 -15.415  0.00  0.00    -0.421 OA
ATOM      8  N   UNL     1      35.164 -23.513 -16.665  0.00  0.00    -0.109 NA
ATOM      9  N   UNL     1      34.062 -22.979 -17.305  0.00  0.00    -0.112 NA
ATOM     10  C   UNL     1      34.702 -24.061 -15.576  0.00  0.00    +0.255 A 
ATOM     11  C   UNL     1      33.033 -23.255 -16.540  0.00  0.00    +0.227 A 
ATOM     12  C   UNL     1      31.613 -22.927 -16.726  0.00  0.00    +0.097 C 
ENDBRANCH   6  10
BRANCH   2  13
ATOM     13  O   UNL     1      38.691 -26.718 -14.443  0.00  0.00    -0.379 OA
ATOM     14  H   UNL     1      38.606 -26.815 -15.403  0.00  0.00    +0.211 HD
ENDBRANCH   2  13
BRANCH   3  15
ATOM     15  O   UNL     1      38.425 -25.751 -11.742  0.00  0.00    -0.379 OA
ATOM     16  H   UNL     1      38.356 -25.161 -10.975  0.00  0.00    +0.211 HD
ENDBRANCH   3  15
BRANCH   4  17
ATOM     17  O   UNL     1      36.094 -26.696 -15.822  0.00  0.00    -0.379 OA
ATOM     18  H   UNL     1      35.193 -26.475 -16.109  0.00  0.00    +0.211 HD
ENDBRANCH   4  17
BRANCH   5  19
ATOM     19  C   UNL     1      36.914 -23.226 -11.484  0.00  0.00    +0.169 C 
BRANCH  19  20
ATOM     20  O   UNL     1      38.280 -22.893 -11.654  0.00  0.00    -0.379 OA
ATOM     21  H   UNL     1      38.657 -23.427 -12.371  0.00  0.00    +0.211 HD
ENDBRANCH  19  20
ENDBRANCH   5  19
TORSDOF 6
ENDMDL
MODEL 4
REMARK VINA RESULT:      -7.7      2.904      3.763
REMARK  Name = 657043
REMARK  6 active torsions:
REMARK  status: ('A' for Active; 'I' for Inactive)
REMARK    1  A    between atoms: C_2  and  O_13
REMARK    2  A    between atoms: C_3  and  O_15
REMARK    3  A    between atoms: C_4  and  O_17
REMARK    4  A    between atoms: C_5  and  C_19
REMARK    5  A    between atoms: C_6  and  C_10
REMARK    6  A    between atoms: C_19  and  O_20
REMARK                            x       y       z     vdW  Elec       q    Type
REMARK                         _______ _______ _______ _____ _____    ______ ____
ROOT
ATOM      1  O   UNL     1      34.733 -23.320 -14.954  0.00  0.00    -0.342 OA
ATOM      2  C   UNL     1      36.683 -24.219 -13.039  0.00  0.00    +0.169 C 
ATOM      3  C   UNL     1      35.201 -24.065 -12.694  0.00  0.00    +0.169 C 
ATOM      4  C   UNL     1      37.070 -23.344 -14.234  0.00  0.00    +0.176 C 
ATOM      5  C   UNL     1      34.332 -24.243 -13.940  0.00  0.00    +0.174 C 
ATOM      6  C   UNL     1      36.079 -23.528 -15.391  0.00  0.00    +0.222 C 
ENDROOT
BRANCH   6  10
ATOM      7  O   UNL     1      35.563 -22.693 -17.628  0.00  0.00    -0.421 OA
ATOM      8  N   UNL     1      37.171 -21.549 -16.573  0.00  0.00    -0.109 NA
ATOM      9  N   UNL     1      36.984 -20.976 -17.816  0.00  0.00    -0.112 NA
ATOM     10  C   UNL     1      36.323 -22.538 -16.516  0.00  0.00    +0.255 A 
ATOM     11  C   UNL     1      36.037 -21.675 -18.396  0.00  0.00    +0.227 A 
ATOM     12  C   UNL     1      35.434 -21.511 -19.725  0.00  0.00    +0.097 C 
ENDBRANCH   6  10
BRANCH   2  13
ATOM     13  O   UNL     1      37.445 -23.825 -11.896  0.00  0.00    -0.379 OA
ATOM     14  H   UNL     1      36.846 -23.503 -11.204  0.00  0.00    +0.211 HD
ENDBRANCH   2  13
BRANCH   3  15
ATOM     15  O   UNL     1      34.840 -25.045 -11.726  0.00  0.00    -0.379 OA
ATOM     16  H   UNL     1      34.091 -24.721 -11.201  0.00  0.00    +0.211 HD
ENDBRANCH   3  15
BRANCH   4  17
ATOM     17  O   UNL     1      38.371 -23.720 -14.685  0.00  0.00    -0.379 OA
ATOM     18  H   UNL     1      38.407 -23.658 -15.653  0.00  0.00    +0.211 HD
ENDBRANCH   4  17
BRANCH   5  19
ATOM     19  C   UNL     1      32.859 -23.984 -13.643  0.00  0.00    +0.169 C 
BRANCH  19  20
ATOM     20  O   UNL     1      32.265 -25.197 -13.216  0.00  0.00    -0.379 OA
ATOM     21  H   UNL     1      32.541 -25.390 -12.307  0.00  0.00    +0.211 HD
ENDBRANCH  19  20
ENDBRANCH   5  19
TORSDOF 6
ENDMDL
MODEL 5
REMARK VINA RESULT:      -7.7      3.282      5.114
REMARK  Name = 657043
REMARK  6 active torsions:
REMARK  status: ('A' for Active; 'I' for Inactive)
REMARK    1  A    between atoms: C_2  and  O_13
REMARK    2  A    between atoms: C_3  and  O_15
REMARK    3  A    between atoms: C_4  and  O_17
REMARK    4  A    between atoms: C_5  and  C_19
REMARK    5  A    between atoms: C_6  and  C_10
REMARK    6  A    between atoms: C_19  and  O_20
REMARK                            x       y       z     vdW  Elec       q    Type
REMARK                         _______ _______ _______ _____ _____    ______ ____
ROOT
ATOM      1  O   UNL     1      37.080 -24.264 -15.467  0.00  0.00    -0.342 OA
ATOM      2  C   UNL     1      35.455 -24.368 -13.094  0.00  0.00    +0.169 C 
ATOM      3  C   UNL     1      36.637 -25.311 -13.324  0.00  0.00    +0.169 C 
ATOM      4  C   UNL     1      34.916 -23.819 -14.417  0.00  0.00    +0.176 C 
ATOM      5  C   UNL     1      37.682 -24.661 -14.234  0.00  0.00    +0.174 C 
ATOM      6  C   UNL     1      36.057 -23.280 -15.292  0.00  0.00    +0.222 C 
ENDROOT
BRANCH   6  10
ATOM      7  O   UNL     1      36.449 -22.190 -17.442  0.00  0.00    -0.421 OA
ATOM      8  N   UNL     1      34.443 -23.165 -17.263  0.00  0.00    -0.109 NA
ATOM      9  N   UNL     1      34.528 -22.591 -18.517  0.00  0.00    -0.112 NA
ATOM     10  C   UNL     1      35.581 -22.903 -16.683  0.00  0.00    +0.255 A 
ATOM     11  C   UNL     1      35.715 -22.034 -18.578  0.00  0.00    +0.227 A 
ATOM     12  C   UNL     1      36.344 -21.287 -19.676  0.00  0.00    +0.097 C 
ENDBRANCH   6  10
BRANCH   2  13
ATOM     13  O   UNL     1      34.426 -25.106 -12.432  0.00  0.00    -0.379 OA
ATOM     14  H   UNL     1      34.702 -25.300 -11.522  0.00  0.00    +0.211 HD
ENDBRANCH   2  13
BRANCH   3  15
ATOM     15  O   UNL     1      37.236 -25.627 -12.071  0.00  0.00    -0.379 OA
ATOM     16  H   UNL     1      36.665 -26.244 -11.586  0.00  0.00    +0.211 HD
ENDBRANCH   3  15
BRANCH   4  17
ATOM     17  O   UNL     1      34.009 -22.751 -14.144  0.00  0.00    -0.379 OA
ATOM     18  H   UNL     1      33.492 -22.961 -13.349  0.00  0.00    +0.211 HD
ENDBRANCH   4  17
BRANCH   5  19
ATOM     19  C   UNL     1      38.817 -25.623 -14.568  0.00  0.00    +0.169 C 
BRANCH  19  20
ATOM     20  O   UNL     1      38.289 -26.936 -14.639  0.00  0.00    -0.379 OA
ATOM     21  H   UNL     1      37.582 -27.036 -13.983  0.00  0.00    +0.211 HD
ENDBRANCH  19  20
ENDBRANCH   5  19
TORSDOF 6
ENDMDL
MODEL 6
REMARK VINA RESULT:      -7.5      5.730      9.496
REMARK  Name = 657043
REMARK  6 active torsions:
REMARK  status: ('A' for Active; 'I' for Inactive)
REMARK    1  A    between atoms: C_2  and  O_13
REMARK    2  A    between atoms: C_3  and  O_15
REMARK    3  A    between atoms: C_4  and  O_17
REMARK    4  A    between atoms: C_5  and  C_19
REMARK    5  A    between atoms: C_6  and  C_10
REMARK    6  A    between atoms: C_19  and  O_20
REMARK                            x       y       z     vdW  Elec       q    Type
REMARK                         _______ _______ _______ _____ _____    ______ ____
ROOT
ATOM      1  O   UNL     1      34.170 -16.326 -21.533  0.00  0.00    -0.342 OA
ATOM      2  C   UNL     1      34.535 -16.223 -24.385  0.00  0.00    +0.169 C 
ATOM      3  C   UNL     1      33.638 -15.239 -23.634  0.00  0.00    +0.169 C 
ATOM      4  C   UNL     1      34.721 -17.521 -23.594  0.00  0.00    +0.176 C 
ATOM      5  C   UNL     1      34.114 -15.060 -22.191  0.00  0.00    +0.174 C 
ATOM      6  C   UNL     1      35.103 -17.225 -22.138  0.00  0.00    +0.222 C 
ENDROOT
BRANCH   6  10
ATOM      7  O   UNL     1      33.915 -19.098 -21.116  0.00  0.00    -0.421 OA
ATOM      8  N   UNL     1      36.107 -19.053 -20.671  0.00  0.00    -0.109 NA
ATOM      9  N   UNL     1      35.565 -20.154 -20.035  0.00  0.00    -0.112 NA
ATOM     10  C   UNL     1      35.109 -18.478 -21.282  0.00  0.00    +0.255 A 
ATOM     11  C   UNL     1      34.284 -20.141 -20.323  0.00  0.00    +0.227 A 
ATOM     12  C   UNL     1      33.224 -21.074 -19.918  0.00  0.00    +0.097 C 
ENDBRANCH   6  10
BRANCH   2  13
ATOM     13  O   UNL     1      33.916 -16.516 -25.639  0.00  0.00    -0.379 OA
ATOM     14  H   UNL     1      32.989 -16.231 -25.616  0.00  0.00    +0.211 HD
ENDBRANCH   2  13
BRANCH   3  15
ATOM     15  O   UNL     1      33.666 -13.978 -24.298  0.00  0.00    -0.379 OA
ATOM     16  H   UNL     1      33.457 -14.103 -25.237  0.00  0.00    +0.211 HD
ENDBRANCH   3  15
BRANCH   4  17
ATOM     17  O   UNL     1      35.766 -18.286 -24.193  0.00  0.00    -0.379 OA
ATOM     18  H   UNL     1      35.591 -19.232 -24.061  0.00  0.00    +0.211 HD
ENDBRANCH   4  17
BRANCH   5  19
ATOM     19  C   UNL     1      33.171 -14.169 -21.391  0.00  0.00    +0.169 C 
BRANCH  19  20
ATOM     20  O   UNL     1      31.930 -14.100 -22.071  0.00  0.00    -0.379 OA
ATOM     21  H   UNL     1      31.881 -13.272 -22.572  0.00  0.00    +0.211 HD
ENDBRANCH  19  20
ENDBRANCH   5  19
TORSDOF 6
ENDMDL
MODEL 7
REMARK VINA RESULT:      -7.5      3.674      5.542
REMARK  Name = 657043
REMARK  6 active torsions:
REMARK  status: ('A' for Active; 'I' for Inactive)
REMARK    1  A    between atoms: C_2  and  O_13
REMARK    2  A    between atoms: C_3  and  O_15
REMARK    3  A    between atoms: C_4  and  O_17
REMARK    4  A    between atoms: C_5  and  C_19
REMARK    5  A    between atoms: C_6  and  C_10
REMARK    6  A    between atoms: C_19  and  O_20
REMARK                            x       y       z     vdW  Elec       q    Type
REMARK                         _______ _______ _______ _____ _____    ______ ____
ROOT
ATOM      1  O   UNL     1      35.553 -23.855 -15.574  0.00  0.00    -0.342 OA
ATOM      2  C   UNL     1      33.268 -23.903 -13.825  0.00  0.00    +0.169 C 
ATOM      3  C   UNL     1      33.267 -23.157 -15.160  0.00  0.00    +0.169 C 
ATOM      4  C   UNL     1      34.692 -24.098 -13.298  0.00  0.00    +0.176 C 
ATOM      5  C   UNL     1      34.245 -23.803 -16.145  0.00  0.00    +0.174 C 
ATOM      6  C   UNL     1      35.610 -24.659 -14.392  0.00  0.00    +0.222 C 
ENDROOT
BRANCH   6  10
ATOM      7  O   UNL     1      37.918 -25.366 -14.764  0.00  0.00    -0.421 OA
ATOM      8  N   UNL     1      37.622 -24.146 -12.913  0.00  0.00    -0.109 NA
ATOM      9  N   UNL     1      38.961 -24.476 -12.998  0.00  0.00    -0.112 NA
ATOM     10  C   UNL     1      37.064 -24.686 -13.960  0.00  0.00    +0.255 A 
ATOM     11  C   UNL     1      39.088 -25.187 -14.093  0.00  0.00    +0.227 A 
ATOM     12  C   UNL     1      40.288 -25.799 -14.678  0.00  0.00    +0.097 C 
ENDBRANCH   6  10
BRANCH   2  13
ATOM     13  O   UNL     1      32.516 -23.130 -12.888  0.00  0.00    -0.379 OA
ATOM     14  H   UNL     1      33.091 -22.461 -12.486  0.00  0.00    +0.211 HD
ENDBRANCH   2  13
BRANCH   3  15
ATOM     15  O   UNL     1      31.955 -23.186 -15.713  0.00  0.00    -0.379 OA
ATOM     16  H   UNL     1      31.302 -23.206 -14.996  0.00  0.00    +0.211 HD
ENDBRANCH   3  15
BRANCH   4  17
ATOM     17  O   UNL     1      34.664 -25.021 -12.209  0.00  0.00    -0.379 OA
ATOM     18  H   UNL     1      33.751 -25.315 -12.059  0.00  0.00    +0.211 HD
ENDBRANCH   4  17
BRANCH   5  19
ATOM     19  C   UNL     1      34.343 -23.011 -17.444  0.00  0.00    +0.169 C 
BRANCH  19  20
ATOM     20  O   UNL     1      33.565 -23.664 -18.431  0.00  0.00    -0.379 OA
ATOM     21  H   UNL     1      33.553 -23.129 -19.239  0.00  0.00    +0.211 HD
ENDBRANCH  19  20
ENDBRANCH   5  19
TORSDOF 6
ENDMDL
MODEL 8
REMARK VINA RESULT:      -7.4      3.642      5.690
REMARK  Name = 657043
REMARK  6 active torsions:
REMARK  status: ('A' for Active; 'I' for Inactive)
REMARK    1  A    between atoms: C_2  and  O_13
REMARK    2  A    between atoms: C_3  and  O_15
REMARK    3  A    between atoms: C_4  and  O_17
REMARK    4  A    between atoms: C_5  and  C_19
REMARK    5  A    between atoms: C_6  and  C_10
REMARK    6  A    between atoms: C_19  and  O_20
REMARK                            x       y       z     vdW  Elec       q    Type
REMARK                         _______ _______ _______ _____ _____    ______ ____
ROOT
ATOM      1  O   UNL     1      34.370 -24.194 -12.691  0.00  0.00    -0.342 OA
ATOM      2  C   UNL     1      36.157 -23.476 -14.829  0.00  0.00    +0.169 C 
ATOM      3  C   UNL     1      36.531 -23.317 -13.355  0.00  0.00    +0.169 C 
ATOM      4  C   UNL     1      34.637 -23.491 -15.018  0.00  0.00    +0.176 C 
ATOM      5  C   UNL     1      35.777 -24.330 -12.490  0.00  0.00    +0.174 C 
ATOM      6  C   UNL     1      33.973 -24.467 -14.038  0.00  0.00    +0.222 C 
ENDROOT
BRANCH   6  10
ATOM      7  O   UNL     1      31.933 -23.486 -14.954  0.00  0.00    -0.421 OA
ATOM      8  N   UNL     1      31.576 -25.009 -13.355  0.00  0.00    -0.109 NA
ATOM      9  N   UNL     1      30.348 -24.539 -13.779  0.00  0.00    -0.112 NA
ATOM     10  C   UNL     1      32.459 -24.367 -14.068  0.00  0.00    +0.255 A 
ATOM     11  C   UNL     1      30.604 -23.653 -14.712  0.00  0.00    +0.227 A 
ATOM     12  C   UNL     1      29.677 -22.841 -15.511  0.00  0.00    +0.097 C 
ENDBRANCH   6  10
BRANCH   2  13
ATOM     13  O   UNL     1      36.713 -22.373 -15.547  0.00  0.00    -0.379 OA
ATOM     14  H   UNL     1      37.661 -22.522 -15.684  0.00  0.00    +0.211 HD
ENDBRANCH   2  13
BRANCH   3  15
ATOM     15  O   UNL     1      37.933 -23.521 -13.203  0.00  0.00    -0.379 OA
ATOM     16  H   UNL     1      38.179 -23.398 -12.272  0.00  0.00    +0.211 HD
ENDBRANCH   3  15
BRANCH   4  17
ATOM     17  O   UNL     1      34.337 -23.909 -16.350  0.00  0.00    -0.379 OA
ATOM     18  H   UNL     1      33.417 -24.217 -16.392  0.00  0.00    +0.211 HD
ENDBRANCH   4  17
BRANCH   5  19
ATOM     19  C   UNL     1      36.051 -24.118 -11.005  0.00  0.00    +0.169 C 
BRANCH  19  20
ATOM     20  O   UNL     1      35.274 -25.045 -10.267  0.00  0.00    -0.379 OA
ATOM     21  H   UNL     1      35.029 -24.654  -9.414  0.00  0.00    +0.211 HD
ENDBRANCH  19  20
ENDBRANCH   5  19
TORSDOF 6
ENDMDL
MODEL 9
REMARK VINA RESULT:      -7.2      3.289      5.359
REMARK  Name = 657043
REMARK  6 active torsions:
REMARK  status: ('A' for Active; 'I' for Inactive)
REMARK    1  A    between atoms: C_2  and  O_13
REMARK    2  A    between atoms: C_3  and  O_15
REMARK    3  A    between atoms: C_4  and  O_17
REMARK    4  A    between atoms: C_5  and  C_19
REMARK    5  A    between atoms: C_6  and  C_10
REMARK    6  A    between atoms: C_19  and  O_20
REMARK                            x       y       z     vdW  Elec       q    Type
REMARK                         _______ _______ _______ _____ _____    ______ ____
ROOT
ATOM      1  O   UNL     1      32.922 -23.906 -13.820  0.00  0.00    -0.342 OA
ATOM      2  C   UNL     1      33.487 -23.271 -16.569  0.00  0.00    +0.169 C 
ATOM      3  C   UNL     1      32.071 -23.552 -16.063  0.00  0.00    +0.169 C 
ATOM      4  C   UNL     1      34.539 -23.902 -15.654  0.00  0.00    +0.176 C 
ATOM      5  C   UNL     1      31.943 -23.196 -14.580  0.00  0.00    +0.174 C 
ATOM      6  C   UNL     1      34.262 -23.562 -14.183  0.00  0.00    +0.222 C 
ENDROOT
BRANCH   6  10
ATOM      7  O   UNL     1      36.404 -24.635 -13.710  0.00  0.00    -0.421 OA
ATOM      8  N   UNL     1      34.939 -24.736 -12.023  0.00  0.00    -0.109 NA
ATOM      9  N   UNL     1      36.096 -25.377 -11.623  0.00  0.00    -0.112 NA
ATOM     10  C   UNL     1      35.172 -24.325 -13.238  0.00  0.00    +0.255 A 
ATOM     11  C   UNL     1      36.923 -25.293 -12.638  0.00  0.00    +0.227 A 
ATOM     12  C   UNL     1      38.296 -25.798 -12.771  0.00  0.00    +0.097 C 
ENDBRANCH   6  10
BRANCH   2  13
ATOM     13  O   UNL     1      33.604 -23.826 -17.881  0.00  0.00    -0.379 OA
ATOM     14  H   UNL     1      33.504 -23.121 -18.539  0.00  0.00    +0.211 HD
ENDBRANCH   2  13
BRANCH   3  15
ATOM     15  O   UNL     1      31.143 -22.775 -16.814  0.00  0.00    -0.379 OA
ATOM     16  H   UNL     1      30.903 -21.981 -16.311  0.00  0.00    +0.211 HD
ENDBRANCH   3  15
BRANCH   4  17
ATOM     17  O   UNL     1      35.827 -23.394 -16.003  0.00  0.00    -0.379 OA
ATOM     18  H   UNL     1      36.025 -22.615 -15.458  0.00  0.00    +0.211 HD
ENDBRANCH   4  17
BRANCH   5  19
ATOM     19  C   UNL     1      30.573 -23.571 -14.026  0.00  0.00    +0.169 C 
BRANCH  19  20
ATOM     20  O   UNL     1      30.738 -24.613 -13.081  0.00  0.00    -0.379 OA
ATOM     21  H   UNL     1      31.568 -25.081 -13.258  0.00  0.00    +0.211 HD
ENDBRANCH  19  20
ENDBRANCH   5  19
TORSDOF 6
ENDMDL
