MODEL 1
REMARK VINA RESULT:      -9.4      0.000      0.000
REMARK  Name = 11717074
REMARK  7 active torsions:
REMARK  status: ('A' for Active; 'I' for Inactive)
REMARK    1  A    between atoms: C_1  and  C_19
REMARK    2  A    between atoms: C_2  and  C_11
REMARK    3  A    between atoms: C_10  and  O_17
REMARK    4  A    between atoms: C_19  and  N_20
REMARK    5  A    between atoms: N_20  and  C_23
REMARK    6  A    between atoms: C_23  and  C_25
REMARK    7  A    between atoms: C_25  and  O_26
REMARK                            x       y       z     vdW  Elec       q    Type
REMARK                         _______ _______ _______ _____ _____    ______ ____
ROOT
ATOM      1  C   UNL     1      35.556 -18.112 -22.920  0.00  0.00    -0.012 C 
ATOM      2  C   UNL     1      34.259 -18.269 -22.075  0.00  0.00    +0.042 C 
ATOM      3  C   UNL     1      36.811 -18.212 -22.048  0.00  0.00    +0.003 C 
ATOM      4  C   UNL     1      34.342 -19.461 -21.127  0.00  0.00    -0.022 C 
ATOM      5  C   UNL     1      36.881 -19.568 -21.351  0.00  0.00    +0.026 C 
ATOM      6  C   UNL     1      35.574 -20.033 -20.761  0.00  0.00    -0.023 C 
ATOM      7  C   UNL     1      33.155 -19.983 -20.581  0.00  0.00    -0.001 C 
ATOM      8  C   UNL     1      35.592 -21.117 -19.868  0.00  0.00    +0.032 C 
ATOM      9  C   UNL     1      33.189 -21.054 -19.688  0.00  0.00    +0.037 C 
ATOM     10  C   UNL     1      34.408 -21.621 -19.331  0.00  0.00    +0.138 C 
ENDROOT
BRANCH   2  11
ATOM     11  C   UNL     1      33.804 -16.995 -21.366  0.00  0.00    -0.019 C 
ATOM     12  C   UNL     1      32.448 -16.767 -21.167  0.00  0.00    -0.004 C 
ATOM     13  C   UNL     1      34.750 -16.077 -20.928  0.00  0.00    -0.004 C 
ATOM     14  C   UNL     1      32.032 -15.603 -20.519  0.00  0.00    -0.000 C 
ATOM     15  C   UNL     1      34.335 -14.914 -20.279  0.00  0.00    -0.000 C 
ATOM     16  C   UNL     1      32.975 -14.677 -20.076  0.00  0.00    -0.000 C 
ENDBRANCH   2  11
BRANCH  10  17
ATOM     17  O   UNL     1      34.446 -22.669 -18.465  0.00  0.00    -0.471 OA
ATOM     18  C   UNL     1      33.252 -22.951 -17.735  0.00  0.00    +0.252 C 
ENDBRANCH  10  17
BRANCH   1  19
ATOM     19  C   UNL     1      35.587 -16.846 -23.778  0.00  0.00    -0.076 C 
BRANCH  19  20
ATOM     20  N   UNL     1      34.740 -16.996 -24.950  0.00  0.00    +0.393 N 
ATOM     21  C   UNL     1      34.275 -18.379 -25.082  0.00  0.00    -0.100 C 
ATOM     22  H   UNL     1      35.298 -16.760 -25.771  0.00  0.00    -0.079 HD
BRANCH  20  23
ATOM     23  C   UNL     1      33.595 -16.083 -24.886  0.00  0.00    +0.035 C 
BRANCH  23  25
ATOM     24  O   UNL     1      33.824 -14.788 -26.906  0.00  0.00    -0.253 OA
ATOM     25  C   UNL     1      33.235 -15.664 -26.284  0.00  0.00    +0.293 C 
BRANCH  25  26
ATOM     26  O   UNL     1      32.160 -16.330 -26.777  0.00  0.00    -0.482 OA
ATOM     27  H   UNL     1      31.860 -16.155 -27.647  0.00  0.00    +0.295 HD
ENDBRANCH  25  26
ENDBRANCH  23  25
ENDBRANCH  20  23
ENDBRANCH  19  20
ENDBRANCH   1  19
TORSDOF 7
ENDMDL
MODEL 2
REMARK VINA RESULT:      -9.4      7.256     10.595
REMARK  Name = 11717074
REMARK  7 active torsions:
REMARK  status: ('A' for Active; 'I' for Inactive)
REMARK    1  A    between atoms: C_1  and  C_19
REMARK    2  A    between atoms: C_2  and  C_11
REMARK    3  A    between atoms: C_10  and  O_17
REMARK    4  A    between atoms: C_19  and  N_20
REMARK    5  A    between atoms: N_20  and  C_23
REMARK    6  A    between atoms: C_23  and  C_25
REMARK    7  A    between atoms: C_25  and  O_26
REMARK                            x       y       z     vdW  Elec       q    Type
REMARK                         _______ _______ _______ _____ _____    ______ ____
ROOT
ATOM      1  C   UNL     1      34.924 -24.649 -14.772  0.00  0.00    -0.012 C 
ATOM      2  C   UNL     1      34.246 -24.064 -16.045  0.00  0.00    +0.042 C 
ATOM      3  C   UNL     1      34.775 -23.708 -13.573  0.00  0.00    +0.003 C 
ATOM      4  C   UNL     1      32.843 -23.543 -15.752  0.00  0.00    -0.022 C 
ATOM      5  C   UNL     1      33.303 -23.478 -13.242  0.00  0.00    +0.026 C 
ATOM      6  C   UNL     1      32.426 -23.232 -14.444  0.00  0.00    -0.023 C 
ATOM      7  C   UNL     1      31.952 -23.342 -16.821  0.00  0.00    -0.001 C 
ATOM      8  C   UNL     1      31.129 -22.737 -14.234  0.00  0.00    +0.032 C 
ATOM      9  C   UNL     1      30.669 -22.841 -16.599  0.00  0.00    +0.037 C 
ATOM     10  C   UNL     1      30.258 -22.538 -15.305  0.00  0.00    +0.138 C 
ENDROOT
BRANCH   2  11
ATOM     11  C   UNL     1      35.095 -23.047 -16.805  0.00  0.00    -0.019 C 
ATOM     12  C   UNL     1      34.736 -22.681 -18.097  0.00  0.00    -0.004 C 
ATOM     13  C   UNL     1      36.217 -22.496 -16.198  0.00  0.00    -0.004 C 
ATOM     14  C   UNL     1      35.510 -21.752 -18.792  0.00  0.00    -0.000 C 
ATOM     15  C   UNL     1      36.991 -21.566 -16.892  0.00  0.00    -0.000 C 
ATOM     16  C   UNL     1      36.638 -21.195 -18.189  0.00  0.00    -0.000 C 
ENDBRANCH   2  11
BRANCH  10  17
ATOM     17  O   UNL     1      29.006 -22.054 -15.083  0.00  0.00    -0.471 OA
ATOM     18  C   UNL     1      27.982 -22.465 -15.989  0.00  0.00    +0.252 C 
ENDBRANCH  10  17
BRANCH   1  19
ATOM     19  C   UNL     1      36.387 -25.047 -14.976  0.00  0.00    -0.076 C 
BRANCH  19  20
ATOM     20  N   UNL     1      36.980 -25.490 -13.724  0.00  0.00    +0.393 N 
ATOM     21  C   UNL     1      37.294 -26.920 -13.775  0.00  0.00    -0.100 C 
ATOM     22  H   UNL     1      36.298 -25.332 -12.982  0.00  0.00    -0.079 HD
BRANCH  20  23
ATOM     23  C   UNL     1      38.188 -24.719 -13.419  0.00  0.00    +0.035 C 
BRANCH  23  25
ATOM     24  O   UNL     1      37.306 -24.658 -11.177  0.00  0.00    -0.253 OA
ATOM     25  C   UNL     1      38.096 -24.220 -12.004  0.00  0.00    +0.293 C 
BRANCH  25  26
ATOM     26  O   UNL     1      38.955 -23.201 -11.744  0.00  0.00    -0.482 OA
ATOM     27  H   UNL     1      38.621 -22.348 -11.546  0.00  0.00    +0.295 HD
ENDBRANCH  25  26
ENDBRANCH  23  25
ENDBRANCH  20  23
ENDBRANCH  19  20
ENDBRANCH   1  19
TORSDOF 7
ENDMDL
MODEL 3
REMARK VINA RESULT:      -8.8      4.557      7.069
REMARK  Name = 11717074
REMARK  7 active torsions:
REMARK  status: ('A' for Active; 'I' for Inactive)
REMARK    1  A    between atoms: C_1  and  C_19
REMARK    2  A    between atoms: C_2  and  C_11
REMARK    3  A    between atoms: C_10  and  O_17
REMARK    4  A    between atoms: C_19  and  N_20
REMARK    5  A    between atoms: N_20  and  C_23
REMARK    6  A    between atoms: C_23  and  C_25
REMARK    7  A    between atoms: C_25  and  O_26
REMARK                            x       y       z     vdW  Elec       q    Type
REMARK                         _______ _______ _______ _____ _____    ______ ____
ROOT
ATOM      1  C   UNL     1      33.053 -11.907 -22.596  0.00  0.00    -0.012 C 
ATOM      2  C   UNL     1      33.903 -12.961 -23.363  0.00  0.00    +0.042 C 
ATOM      3  C   UNL     1      31.721 -12.498 -22.120  0.00  0.00    +0.003 C 
ATOM      4  C   UNL     1      33.970 -14.288 -22.616  0.00  0.00    -0.022 C 
ATOM      5  C   UNL     1      31.956 -13.673 -21.175  0.00  0.00    +0.026 C 
ATOM      6  C   UNL     1      33.030 -14.630 -21.625  0.00  0.00    -0.023 C 
ATOM      7  C   UNL     1      34.982 -15.209 -22.946  0.00  0.00    -0.001 C 
ATOM      8  C   UNL     1      33.129 -15.875 -20.983  0.00  0.00    +0.032 C 
ATOM      9  C   UNL     1      35.061 -16.445 -22.306  0.00  0.00    +0.037 C 
ATOM     10  C   UNL     1      34.134 -16.778 -21.325  0.00  0.00    +0.138 C 
ENDROOT
BRANCH   2  11
ATOM     11  C   UNL     1      33.518 -13.141 -24.830  0.00  0.00    -0.019 C 
ATOM     12  C   UNL     1      33.883 -12.174 -25.760  0.00  0.00    -0.004 C 
ATOM     13  C   UNL     1      32.808 -14.269 -25.222  0.00  0.00    -0.004 C 
ATOM     14  C   UNL     1      33.532 -12.338 -27.100  0.00  0.00    -0.000 C 
ATOM     15  C   UNL     1      32.457 -14.434 -26.562  0.00  0.00    -0.000 C 
ATOM     16  C   UNL     1      32.819 -13.468 -27.501  0.00  0.00    -0.000 C 
ENDBRANCH   2  11
BRANCH  10  17
ATOM     17  O   UNL     1      34.211 -17.981 -20.694  0.00  0.00    -0.471 OA
ATOM     18  C   UNL     1      34.375 -19.136 -21.516  0.00  0.00    +0.252 C 
ENDBRANCH  10  17
BRANCH   1  19
ATOM     19  C   UNL     1      32.827 -10.609 -23.371  0.00  0.00    -0.076 C 
BRANCH  19  20
ATOM     20  N   UNL     1      33.196  -9.456 -22.566  0.00  0.00    +0.393 N 
ATOM     21  C   UNL     1      33.842  -8.431 -23.390  0.00  0.00    -0.100 C 
ATOM     22  H   UNL     1      33.859  -9.769 -21.856  0.00  0.00    -0.079 HD
BRANCH  20  23
ATOM     23  C   UNL     1      32.022  -8.895 -21.892  0.00  0.00    +0.035 C 
BRANCH  23  25
ATOM     24  O   UNL     1      31.777  -9.851 -19.692  0.00  0.00    -0.253 OA
ATOM     25  C   UNL     1      32.239  -8.969 -20.406  0.00  0.00    +0.293 C 
BRANCH  25  26
ATOM     26  O   UNL     1      32.970  -7.932 -19.924  0.00  0.00    -0.482 OA
ATOM     27  H   UNL     1      33.681  -7.586 -20.429  0.00  0.00    +0.295 HD
ENDBRANCH  25  26
ENDBRANCH  23  25
ENDBRANCH  20  23
ENDBRANCH  19  20
ENDBRANCH   1  19
TORSDOF 7
ENDMDL
MODEL 4
REMARK VINA RESULT:      -8.6      7.786     11.923
REMARK  Name = 11717074
REMARK  7 active torsions:
REMARK  status: ('A' for Active; 'I' for Inactive)
REMARK    1  A    between atoms: C_1  and  C_19
REMARK    2  A    between atoms: C_2  and  C_11
REMARK    3  A    between atoms: C_10  and  O_17
REMARK    4  A    between atoms: C_19  and  N_20
REMARK    5  A    between atoms: N_20  and  C_23
REMARK    6  A    between atoms: C_23  and  C_25
REMARK    7  A    between atoms: C_25  and  O_26
REMARK                            x       y       z     vdW  Elec       q    Type
REMARK                         _______ _______ _______ _____ _____    ______ ____
ROOT
ATOM      1  C   UNL     1      32.088  -8.828 -20.987  0.00  0.00    -0.012 C 
ATOM      2  C   UNL     1      31.918  -8.652 -22.524  0.00  0.00    +0.042 C 
ATOM      3  C   UNL     1      32.938  -7.705 -20.383  0.00  0.00    +0.003 C 
ATOM      4  C   UNL     1      31.528  -7.223 -22.890  0.00  0.00    -0.022 C 
ATOM      5  C   UNL     1      32.286  -6.345 -20.618  0.00  0.00    +0.026 C 
ATOM      6  C   UNL     1      31.743  -6.147 -22.010  0.00  0.00    -0.023 C 
ATOM      7  C   UNL     1      30.964  -6.972 -24.155  0.00  0.00    -0.001 C 
ATOM      8  C   UNL     1      31.383  -4.849 -22.408  0.00  0.00    +0.032 C 
ATOM      9  C   UNL     1      30.620  -5.676 -24.540  0.00  0.00    +0.037 C 
ATOM     10  C   UNL     1      30.830  -4.615 -23.666  0.00  0.00    +0.138 C 
ENDROOT
BRANCH   2  11
ATOM     11  C   UNL     1      33.092  -9.163 -23.356  0.00  0.00    -0.019 C 
ATOM     12  C   UNL     1      33.041 -10.438 -23.906  0.00  0.00    -0.004 C 
ATOM     13  C   UNL     1      34.201  -8.349 -23.555  0.00  0.00    -0.004 C 
ATOM     14  C   UNL     1      34.113 -10.906 -24.666  0.00  0.00    -0.000 C 
ATOM     15  C   UNL     1      35.273  -8.816 -24.315  0.00  0.00    -0.000 C 
ATOM     16  C   UNL     1      35.229 -10.095 -24.870  0.00  0.00    -0.000 C 
ENDBRANCH   2  11
BRANCH  10  17
ATOM     17  O   UNL     1      30.490  -3.350 -24.035  0.00  0.00    -0.471 OA
ATOM     18  C   UNL     1      31.219  -2.281 -23.434  0.00  0.00    +0.252 C 
ENDBRANCH  10  17
BRANCH   1  19
ATOM     19  C   UNL     1      32.625 -10.200 -20.577  0.00  0.00    -0.076 C 
BRANCH  19  20
ATOM     20  N   UNL     1      31.555 -11.041 -20.066  0.00  0.00    +0.393 N 
ATOM     21  C   UNL     1      30.528 -10.231 -19.405  0.00  0.00    -0.100 C 
ATOM     22  H   UNL     1      31.958 -11.679 -19.380  0.00  0.00    -0.079 HD
BRANCH  20  23
ATOM     23  C   UNL     1      30.956 -11.833 -21.144  0.00  0.00    +0.035 C 
BRANCH  23  25
ATOM     24  O   UNL     1      32.551 -13.561 -20.613  0.00  0.00    -0.253 OA
ATOM     25  C   UNL     1      31.865 -12.990 -21.453  0.00  0.00    +0.293 C 
BRANCH  25  26
ATOM     26  O   UNL     1      31.881 -13.315 -22.770  0.00  0.00    -0.482 OA
ATOM     27  H   UNL     1      32.439 -12.847 -23.361  0.00  0.00    +0.295 HD
ENDBRANCH  25  26
ENDBRANCH  23  25
ENDBRANCH  20  23
ENDBRANCH  19  20
ENDBRANCH   1  19
TORSDOF 7
ENDMDL
MODEL 5
REMARK VINA RESULT:      -8.1      4.309      7.541
REMARK  Name = 11717074
REMARK  7 active torsions:
REMARK  status: ('A' for Active; 'I' for Inactive)
REMARK    1  A    between atoms: C_1  and  C_19
REMARK    2  A    between atoms: C_2  and  C_11
REMARK    3  A    between atoms: C_10  and  O_17
REMARK    4  A    between atoms: C_19  and  N_20
REMARK    5  A    between atoms: N_20  and  C_23
REMARK    6  A    between atoms: C_23  and  C_25
REMARK    7  A    between atoms: C_25  and  O_26
REMARK                            x       y       z     vdW  Elec       q    Type
REMARK                         _______ _______ _______ _____ _____    ______ ____
ROOT
ATOM      1  C   UNL     1      35.378 -22.559 -17.700  0.00  0.00    -0.012 C 
ATOM      2  C   UNL     1      34.816 -23.714 -16.822  0.00  0.00    +0.042 C 
ATOM      3  C   UNL     1      36.154 -21.540 -16.859  0.00  0.00    +0.003 C 
ATOM      4  C   UNL     1      35.872 -24.271 -15.873  0.00  0.00    -0.022 C 
ATOM      5  C   UNL     1      37.339 -22.203 -16.161  0.00  0.00    +0.026 C 
ATOM      6  C   UNL     1      37.027 -23.539 -15.537  0.00  0.00    -0.023 C 
ATOM      7  C   UNL     1      35.673 -25.539 -15.296  0.00  0.00    -0.001 C 
ATOM      8  C   UNL     1      37.957 -24.093 -14.643  0.00  0.00    +0.032 C 
ATOM      9  C   UNL     1      36.601 -26.072 -14.402  0.00  0.00    +0.037 C 
ATOM     10  C   UNL     1      37.743 -25.348 -14.075  0.00  0.00    +0.138 C 
ENDROOT
BRANCH   2  11
ATOM     11  C   UNL     1      33.508 -23.388 -16.104  0.00  0.00    -0.019 C 
ATOM     12  C   UNL     1      32.328 -23.301 -16.833  0.00  0.00    -0.004 C 
ATOM     13  C   UNL     1      33.510 -23.181 -14.731  0.00  0.00    -0.004 C 
ATOM     14  C   UNL     1      31.133 -23.003 -16.179  0.00  0.00    -0.000 C 
ATOM     15  C   UNL     1      32.315 -22.884 -14.075  0.00  0.00    -0.000 C 
ATOM     16  C   UNL     1      31.126 -22.794 -14.800  0.00  0.00    -0.000 C 
ENDBRANCH   2  11
BRANCH  10  17
ATOM     17  O   UNL     1      38.654 -25.867 -13.208  0.00  0.00    -0.471 OA
ATOM     18  C   UNL     1      40.016 -25.892 -13.635  0.00  0.00    +0.252 C 
ENDBRANCH  10  17
BRANCH   1  19
ATOM     19  C   UNL     1      34.322 -21.865 -18.561  0.00  0.00    -0.076 C 
BRANCH  19  20
ATOM     20  N   UNL     1      34.942 -20.914 -19.470  0.00  0.00    +0.393 N 
ATOM     21  C   UNL     1      36.011 -21.553 -20.241  0.00  0.00    -0.100 C 
ATOM     22  H   UNL     1      35.348 -20.164 -18.910  0.00  0.00    -0.079 HD
BRANCH  20  23
ATOM     23  C   UNL     1      33.946 -20.334 -20.375  0.00  0.00    +0.035 C 
BRANCH  23  25
ATOM     24  O   UNL     1      35.261 -18.340 -20.702  0.00  0.00    -0.253 OA
ATOM     25  C   UNL     1      34.606 -19.254 -21.188  0.00  0.00    +0.293 C 
BRANCH  25  26
ATOM     26  O   UNL     1      34.367 -19.372 -22.519  0.00  0.00    -0.482 OA
ATOM     27  H   UNL     1      35.019 -19.101 -23.136  0.00  0.00    +0.295 HD
ENDBRANCH  25  26
ENDBRANCH  23  25
ENDBRANCH  20  23
ENDBRANCH  19  20
ENDBRANCH   1  19
TORSDOF 7
ENDMDL
MODEL 6
REMARK VINA RESULT:      -8.1      3.629      7.168
REMARK  Name = 11717074
REMARK  7 active torsions:
REMARK  status: ('A' for Active; 'I' for Inactive)
REMARK    1  A    between atoms: C_1  and  C_19
REMARK    2  A    between atoms: C_2  and  C_11
REMARK    3  A    between atoms: C_10  and  O_17
REMARK    4  A    between atoms: C_19  and  N_20
REMARK    5  A    between atoms: N_20  and  C_23
REMARK    6  A    between atoms: C_23  and  C_25
REMARK    7  A    between atoms: C_25  and  O_26
REMARK                            x       y       z     vdW  Elec       q    Type
REMARK                         _______ _______ _______ _____ _____    ______ ____
ROOT
ATOM      1  C   UNL     1      33.526 -15.198 -23.086  0.00  0.00    -0.012 C 
ATOM      2  C   UNL     1      32.685 -13.966 -23.529  0.00  0.00    +0.042 C 
ATOM      3  C   UNL     1      34.590 -14.811 -22.054  0.00  0.00    +0.003 C 
ATOM      4  C   UNL     1      32.216 -13.141 -22.336  0.00  0.00    -0.022 C 
ATOM      5  C   UNL     1      33.945 -14.223 -20.802  0.00  0.00    +0.026 C 
ATOM      6  C   UNL     1      32.838 -13.237 -21.077  0.00  0.00    -0.023 C 
ATOM      7  C   UNL     1      31.149 -12.239 -22.506  0.00  0.00    -0.001 C 
ATOM      8  C   UNL     1      32.376 -12.439 -20.018  0.00  0.00    +0.032 C 
ATOM      9  C   UNL     1      30.708 -11.446 -21.447  0.00  0.00    +0.037 C 
ATOM     10  C   UNL     1      31.322 -11.545 -20.203  0.00  0.00    +0.138 C 
ENDROOT
BRANCH   2  11
ATOM     11  C   UNL     1      33.341 -13.105 -24.607  0.00  0.00    -0.019 C 
ATOM     12  C   UNL     1      34.036 -11.958 -24.241  0.00  0.00    -0.004 C 
ATOM     13  C   UNL     1      33.237 -13.475 -25.942  0.00  0.00    -0.004 C 
ATOM     14  C   UNL     1      34.635 -11.171 -25.224  0.00  0.00    -0.000 C 
ATOM     15  C   UNL     1      33.836 -12.688 -26.926  0.00  0.00    -0.000 C 
ATOM     16  C   UNL     1      34.535 -11.536 -26.566  0.00  0.00    -0.000 C 
ENDBRANCH   2  11
BRANCH  10  17
ATOM     17  O   UNL     1      30.890 -10.778 -19.166  0.00  0.00    -0.471 OA
ATOM     18  C   UNL     1      31.469  -9.479 -19.035  0.00  0.00    +0.252 C 
ENDBRANCH  10  17
BRANCH   1  19
ATOM     19  C   UNL     1      34.148 -15.975 -24.247  0.00  0.00    -0.076 C 
BRANCH  19  20
ATOM     20  N   UNL     1      34.234 -17.392 -23.933  0.00  0.00    +0.393 N 
ATOM     21  C   UNL     1      34.253 -18.195 -25.158  0.00  0.00    -0.100 C 
ATOM     22  H   UNL     1      33.406 -17.643 -23.392  0.00  0.00    -0.079 HD
BRANCH  20  23
ATOM     23  C   UNL     1      35.424 -17.676 -23.125  0.00  0.00    +0.035 C 
BRANCH  23  25
ATOM     24  O   UNL     1      34.238 -19.410 -21.944  0.00  0.00    -0.253 OA
ATOM     25  C   UNL     1      35.004 -18.455 -21.910  0.00  0.00    +0.293 C 
BRANCH  25  26
ATOM     26  O   UNL     1      35.533 -17.967 -20.759  0.00  0.00    -0.482 OA
ATOM     27  H   UNL     1      35.540 -17.042 -20.603  0.00  0.00    +0.295 HD
ENDBRANCH  25  26
ENDBRANCH  23  25
ENDBRANCH  20  23
ENDBRANCH  19  20
ENDBRANCH   1  19
TORSDOF 7
ENDMDL
MODEL 7
REMARK VINA RESULT:      -7.9      4.489      6.898
REMARK  Name = 11717074
REMARK  7 active torsions:
REMARK  status: ('A' for Active; 'I' for Inactive)
REMARK    1  A    between atoms: C_1  and  C_19
REMARK    2  A    between atoms: C_2  and  C_11
REMARK    3  A    between atoms: C_10  and  O_17
REMARK    4  A    between atoms: C_19  and  N_20
REMARK    5  A    between atoms: N_20  and  C_23
REMARK    6  A    between atoms: C_23  and  C_25
REMARK    7  A    between atoms: C_25  and  O_26
REMARK                            x       y       z     vdW  Elec       q    Type
REMARK                         _______ _______ _______ _____ _____    ______ ____
ROOT
ATOM      1  C   UNL     1      33.101 -12.088 -22.456  0.00  0.00    -0.012 C 
ATOM      2  C   UNL     1      33.951 -13.097 -23.282  0.00  0.00    +0.042 C 
ATOM      3  C   UNL     1      31.768 -12.704 -22.017  0.00  0.00    +0.003 C 
ATOM      4  C   UNL     1      34.015 -14.465 -22.612  0.00  0.00    -0.022 C 
ATOM      5  C   UNL     1      32.000 -13.932 -21.141  0.00  0.00    +0.026 C 
ATOM      6  C   UNL     1      33.074 -14.863 -21.644  0.00  0.00    -0.023 C 
ATOM      7  C   UNL     1      35.027 -15.366 -22.994  0.00  0.00    -0.001 C 
ATOM      8  C   UNL     1      33.170 -16.143 -21.075  0.00  0.00    +0.032 C 
ATOM      9  C   UNL     1      35.104 -16.638 -22.426  0.00  0.00    +0.037 C 
ATOM     10  C   UNL     1      34.175 -17.026 -21.467  0.00  0.00    +0.138 C 
ENDROOT
BRANCH   2  11
ATOM     11  C   UNL     1      33.569 -13.191 -24.757  0.00  0.00    -0.019 C 
ATOM     12  C   UNL     1      33.947 -12.179 -25.631  0.00  0.00    -0.004 C 
ATOM     13  C   UNL     1      32.846 -14.287 -25.212  0.00  0.00    -0.004 C 
ATOM     14  C   UNL     1      33.598 -12.265 -26.979  0.00  0.00    -0.000 C 
ATOM     15  C   UNL     1      32.497 -14.374 -26.560  0.00  0.00    -0.000 C 
ATOM     16  C   UNL     1      32.873 -13.362 -27.443  0.00  0.00    -0.000 C 
ENDBRANCH   2  11
BRANCH  10  17
ATOM     17  O   UNL     1      34.250 -18.263 -20.906  0.00  0.00    -0.471 OA
ATOM     18  C   UNL     1      34.667 -19.335 -21.752  0.00  0.00    +0.252 C 
ENDBRANCH  10  17
BRANCH   1  19
ATOM     19  C   UNL     1      32.878 -10.747 -23.155  0.00  0.00    -0.076 C 
BRANCH  19  20
ATOM     20  N   UNL     1      31.796 -10.009 -22.523  0.00  0.00    +0.393 N 
ATOM     21  C   UNL     1      32.205  -9.517 -21.205  0.00  0.00    -0.100 C 
ATOM     22  H   UNL     1      31.010 -10.647 -22.403  0.00  0.00    -0.079 HD
BRANCH  20  23
ATOM     23  C   UNL     1      31.366  -8.890 -23.367  0.00  0.00    +0.035 C 
BRANCH  23  25
ATOM     24  O   UNL     1      33.294  -7.451 -23.219  0.00  0.00    -0.253 OA
ATOM     25  C   UNL     1      32.117  -7.656 -22.950  0.00  0.00    +0.293 C 
BRANCH  25  26
ATOM     26  O   UNL     1      31.366  -6.805 -22.206  0.00  0.00    -0.482 OA
ATOM     27  H   UNL     1      30.551  -6.484 -22.541  0.00  0.00    +0.295 HD
ENDBRANCH  25  26
ENDBRANCH  23  25
ENDBRANCH  20  23
ENDBRANCH  19  20
ENDBRANCH   1  19
TORSDOF 7
ENDMDL
MODEL 8
REMARK VINA RESULT:      -7.7      4.057      7.302
REMARK  Name = 11717074
REMARK  7 active torsions:
REMARK  status: ('A' for Active; 'I' for Inactive)
REMARK    1  A    between atoms: C_1  and  C_19
REMARK    2  A    between atoms: C_2  and  C_11
REMARK    3  A    between atoms: C_10  and  O_17
REMARK    4  A    between atoms: C_19  and  N_20
REMARK    5  A    between atoms: N_20  and  C_23
REMARK    6  A    between atoms: C_23  and  C_25
REMARK    7  A    between atoms: C_25  and  O_26
REMARK                            x       y       z     vdW  Elec       q    Type
REMARK                         _______ _______ _______ _____ _____    ______ ____
ROOT
ATOM      1  C   UNL     1      33.472 -14.532 -23.576  0.00  0.00    -0.012 C 
ATOM      2  C   UNL     1      32.829 -13.140 -23.841  0.00  0.00    +0.042 C 
ATOM      3  C   UNL     1      34.375 -14.507 -22.338  0.00  0.00    +0.003 C 
ATOM      4  C   UNL     1      32.235 -12.539 -22.571  0.00  0.00    -0.022 C 
ATOM      5  C   UNL     1      33.578 -14.127 -21.093  0.00  0.00    +0.026 C 
ATOM      6  C   UNL     1      32.623 -12.977 -21.291  0.00  0.00    -0.023 C 
ATOM      7  C   UNL     1      31.295 -11.498 -22.683  0.00  0.00    -0.001 C 
ATOM      8  C   UNL     1      32.058 -12.374 -20.156  0.00  0.00    +0.032 C 
ATOM      9  C   UNL     1      30.749 -10.902 -21.546  0.00  0.00    +0.037 C 
ATOM     10  C   UNL     1      31.131 -11.340 -20.283  0.00  0.00    +0.138 C 
ENDROOT
BRANCH   2  11
ATOM     11  C   UNL     1      33.730 -12.154 -24.582  0.00  0.00    -0.019 C 
ATOM     12  C   UNL     1      34.315 -11.102 -23.887  0.00  0.00    -0.004 C 
ATOM     13  C   UNL     1      33.957 -12.319 -25.943  0.00  0.00    -0.004 C 
ATOM     14  C   UNL     1      35.138 -10.202 -24.563  0.00  0.00    -0.000 C 
ATOM     15  C   UNL     1      34.781 -11.419 -26.619  0.00  0.00    -0.000 C 
ATOM     16  C   UNL     1      35.371 -10.360 -25.929  0.00  0.00    -0.000 C 
ENDBRANCH   2  11
BRANCH  10  17
ATOM     17  O   UNL     1      30.597 -10.766 -19.171  0.00  0.00    -0.471 OA
ATOM     18  C   UNL     1      31.275  -9.628 -18.639  0.00  0.00    +0.252 C 
ENDBRANCH  10  17
BRANCH   1  19
ATOM     19  C   UNL     1      34.214 -15.112 -24.781  0.00  0.00    -0.076 C 
BRANCH  19  20
ATOM     20  N   UNL     1      33.657 -16.400 -25.159  0.00  0.00    +0.393 N 
ATOM     21  C   UNL     1      32.848 -16.279 -26.376  0.00  0.00    -0.100 C 
ATOM     22  H   UNL     1      33.055 -16.716 -24.399  0.00  0.00    -0.079 HD
BRANCH  20  23
ATOM     23  C   UNL     1      34.719 -17.390 -25.357  0.00  0.00    +0.035 C 
BRANCH  23  25
ATOM     24  O   UNL     1      34.352 -19.048 -23.647  0.00  0.00    -0.253 OA
ATOM     25  C   UNL     1      34.984 -18.078 -24.047  0.00  0.00    +0.293 C 
BRANCH  25  26
ATOM     26  O   UNL     1      35.974 -17.490 -23.329  0.00  0.00    -0.482 OA
ATOM     27  H   UNL     1      36.135 -16.570 -23.421  0.00  0.00    +0.295 HD
ENDBRANCH  25  26
ENDBRANCH  23  25
ENDBRANCH  20  23
ENDBRANCH  19  20
ENDBRANCH   1  19
TORSDOF 7
ENDMDL
MODEL 9
REMARK VINA RESULT:      -7.7      5.177      8.955
REMARK  Name = 11717074
REMARK  7 active torsions:
REMARK  status: ('A' for Active; 'I' for Inactive)
REMARK    1  A    between atoms: C_1  and  C_19
REMARK    2  A    between atoms: C_2  and  C_11
REMARK    3  A    between atoms: C_10  and  O_17
REMARK    4  A    between atoms: C_19  and  N_20
REMARK    5  A    between atoms: N_20  and  C_23
REMARK    6  A    between atoms: C_23  and  C_25
REMARK    7  A    between atoms: C_25  and  O_26
REMARK                            x       y       z     vdW  Elec       q    Type
REMARK                         _______ _______ _______ _____ _____    ______ ____
ROOT
ATOM      1  C   UNL     1      35.086 -22.460 -16.542  0.00  0.00    -0.012 C 
ATOM      2  C   UNL     1      34.811 -23.108 -15.154  0.00  0.00    +0.042 C 
ATOM      3  C   UNL     1      34.421 -23.252 -17.673  0.00  0.00    +0.003 C 
ATOM      4  C   UNL     1      33.338 -23.458 -14.974  0.00  0.00    -0.022 C 
ATOM      5  C   UNL     1      32.908 -23.303 -17.484  0.00  0.00    +0.026 C 
ATOM      6  C   UNL     1      32.466 -23.588 -16.071  0.00  0.00    -0.023 C 
ATOM      7  C   UNL     1      32.843 -23.683 -13.676  0.00  0.00    -0.001 C 
ATOM      8  C   UNL     1      31.123 -23.931 -15.847  0.00  0.00    +0.032 C 
ATOM      9  C   UNL     1      31.508 -24.032 -13.470  0.00  0.00    +0.037 C 
ATOM     10  C   UNL     1      30.649 -24.157 -14.555  0.00  0.00    +0.138 C 
ENDROOT
BRANCH   2  11
ATOM     11  C   UNL     1      35.730 -24.277 -14.806  0.00  0.00    -0.019 C 
ATOM     12  C   UNL     1      36.711 -24.114 -13.835  0.00  0.00    -0.004 C 
ATOM     13  C   UNL     1      35.577 -25.492 -15.463  0.00  0.00    -0.004 C 
ATOM     14  C   UNL     1      37.551 -25.181 -13.517  0.00  0.00    -0.000 C 
ATOM     15  C   UNL     1      36.416 -26.560 -15.144  0.00  0.00    -0.000 C 
ATOM     16  C   UNL     1      37.404 -26.404 -14.172  0.00  0.00    -0.000 C 
ENDBRANCH   2  11
BRANCH  10  17
ATOM     17  O   UNL     1      29.345 -24.491 -14.358  0.00  0.00    -0.471 OA
ATOM     18  C   UNL     1      28.487 -24.459 -15.499  0.00  0.00    +0.252 C 
ENDBRANCH  10  17
BRANCH   1  19
ATOM     19  C   UNL     1      36.569 -22.229 -16.836  0.00  0.00    -0.076 C 
BRANCH  19  20
ATOM     20  N   UNL     1      36.752 -21.052 -17.671  0.00  0.00    +0.393 N 
ATOM     21  C   UNL     1      37.918 -20.281 -17.233  0.00  0.00    -0.100 C 
ATOM     22  H   UNL     1      35.921 -20.469 -17.575  0.00  0.00    -0.079 HD
BRANCH  20  23
ATOM     23  C   UNL     1      36.897 -21.431 -19.079  0.00  0.00    +0.035 C 
BRANCH  23  25
ATOM     24  O   UNL     1      34.823 -20.854 -20.163  0.00  0.00    -0.253 OA
ATOM     25  C   UNL     1      35.986 -20.567 -19.906  0.00  0.00    +0.293 C 
BRANCH  25  26
ATOM     26  O   UNL     1      36.596 -19.449 -20.374  0.00  0.00    -0.482 OA
ATOM     27  H   UNL     1      37.493 -19.280 -20.158  0.00  0.00    +0.295 HD
ENDBRANCH  25  26
ENDBRANCH  23  25
ENDBRANCH  20  23
ENDBRANCH  19  20
ENDBRANCH   1  19
TORSDOF 7
ENDMDL
