MODEL 1
REMARK VINA RESULT:      -9.7      0.000      0.000
REMARK  Name = 448978
REMARK  6 active torsions:
REMARK  status: ('A' for Active; 'I' for Inactive)
REMARK    1  A    between atoms: C_1  and  O_7
REMARK    2  A    between atoms: C_2  and  O_14
REMARK    3  A    between atoms: O_7  and  C_8
REMARK    4  A    between atoms: C_8  and  C_11
REMARK    5  A    between atoms: C_11  and  O_12
REMARK    6  A    between atoms: O_14  and  C_17
REMARK                            x       y       z     vdW  Elec       q    Type
REMARK                         _______ _______ _______ _____ _____    ______ ____
ROOT
ATOM      1  C   UNL     1      33.505 -21.513 -19.499  0.00  0.00    +0.139 C 
ATOM      2  C   UNL     1      35.115 -19.641 -20.798  0.00  0.00    +0.146 C 
ATOM      3  C   UNL     1      34.893 -21.645 -19.466  0.00  0.00    +0.040 C 
ATOM      4  C   UNL     1      32.922 -20.446 -20.182  0.00  0.00    +0.040 C 
ATOM      5  C   UNL     1      35.699 -20.708 -20.115  0.00  0.00    +0.041 C 
ATOM      6  C   UNL     1      33.727 -19.510 -20.831  0.00  0.00    +0.041 C 
ENDROOT
BRANCH   1   7
ATOM      7  O   UNL     1      32.719 -22.427 -18.867  0.00  0.00    -0.468 OA
BRANCH   7   8
ATOM      8  C   UNL     1      32.852 -22.527 -17.450  0.00  0.00    +0.263 C 
ATOM      9  C   UNL     1      33.846 -23.635 -17.148  0.00  0.00    +0.060 C 
BRANCH   8  11
ATOM     10  O   UNL     1      30.451 -22.268 -17.172  0.00  0.00    -0.246 OA
ATOM     11  C   UNL     1      31.490 -22.835 -16.861  0.00  0.00    +0.354 C 
BRANCH  11  12
ATOM     12  O   UNL     1      31.540 -23.839 -15.949  0.00  0.00    -0.478 OA
ATOM     13  H   UNL     1      32.173 -23.816 -15.259  0.00  0.00    +0.295 HD
ENDBRANCH  11  12
ENDBRANCH   8  11
ENDBRANCH   7   8
ENDBRANCH   1   7
BRANCH   2  14
ATOM     14  O   UNL     1      35.900 -18.728 -21.431  0.00  0.00    -0.453 OA
BRANCH  14  17
ATOM     15 CL   UNL     1      34.864 -16.015 -20.652  0.00  0.00    -0.079 Cl
ATOM     16 CL   UNL     1      33.507 -15.693 -25.854  0.00  0.00    -0.082 Cl
ATOM     17  C   UNL     1      35.333 -17.993 -22.459  0.00  0.00    +0.156 C 
ATOM     18  C   UNL     1      34.820 -16.731 -22.221  0.00  0.00    +0.093 C 
ATOM     19  C   UNL     1      35.296 -18.565 -23.720  0.00  0.00    +0.039 C 
ATOM     20  C   UNL     1      34.254 -16.015 -23.275  0.00  0.00    +0.026 C 
ATOM     21  C   UNL     1      34.728 -17.849 -24.774  0.00  0.00    +0.015 C 
ATOM     22  C   UNL     1      34.208 -16.574 -24.552  0.00  0.00    +0.059 C 
ENDBRANCH  14  17
ENDBRANCH   2  14
TORSDOF 6
ENDMDL
MODEL 2
REMARK VINA RESULT:      -9.7      3.654      7.956
REMARK  Name = 448978
REMARK  6 active torsions:
REMARK  status: ('A' for Active; 'I' for Inactive)
REMARK    1  A    between atoms: C_1  and  O_7
REMARK    2  A    between atoms: C_2  and  O_14
REMARK    3  A    between atoms: O_7  and  C_8
REMARK    4  A    between atoms: C_8  and  C_11
REMARK    5  A    between atoms: C_11  and  O_12
REMARK    6  A    between atoms: O_14  and  C_17
REMARK                            x       y       z     vdW  Elec       q    Type
REMARK                         _______ _______ _______ _____ _____    ______ ____
ROOT
ATOM      1  C   UNL     1      34.217 -19.329 -20.898  0.00  0.00    +0.139 C 
ATOM      2  C   UNL     1      34.636 -21.700 -19.489  0.00  0.00    +0.146 C 
ATOM      3  C   UNL     1      35.517 -19.758 -20.627  0.00  0.00    +0.040 C 
ATOM      4  C   UNL     1      33.128 -20.083 -20.464  0.00  0.00    +0.040 C 
ATOM      5  C   UNL     1      35.726 -20.945 -19.923  0.00  0.00    +0.041 C 
ATOM      6  C   UNL     1      33.337 -21.268 -19.760  0.00  0.00    +0.041 C 
ENDROOT
BRANCH   1   7
ATOM      7  O   UNL     1      34.013 -18.171 -21.585  0.00  0.00    -0.468 OA
BRANCH   7   8
ATOM      8  C   UNL     1      35.075 -17.219 -21.580  0.00  0.00    +0.263 C 
ATOM      9  C   UNL     1      34.669 -16.066 -20.678  0.00  0.00    +0.060 C 
BRANCH   8  11
ATOM     10  O   UNL     1      35.256 -15.581 -23.367  0.00  0.00    -0.246 OA
ATOM     11  C   UNL     1      35.303 -16.748 -23.003  0.00  0.00    +0.354 C 
BRANCH  11  12
ATOM     12  O   UNL     1      35.590 -17.774 -23.844  0.00  0.00    -0.478 OA
ATOM     13  H   UNL     1      34.896 -18.243 -24.265  0.00  0.00    +0.295 HD
ENDBRANCH  11  12
ENDBRANCH   8  11
ENDBRANCH   7   8
ENDBRANCH   1   7
BRANCH   2  14
ATOM     14  O   UNL     1      34.839 -22.856 -18.801  0.00  0.00    -0.453 OA
BRANCH  14  17
ATOM     15 CL   UNL     1      36.695 -22.581 -16.452  0.00  0.00    -0.079 Cl
ATOM     16 CL   UNL     1      32.217 -23.401 -13.574  0.00  0.00    -0.082 Cl
ATOM     17  C   UNL     1      34.242 -22.980 -17.558  0.00  0.00    +0.156 C 
ATOM     18  C   UNL     1      34.995 -22.873 -16.403  0.00  0.00    +0.093 C 
ATOM     19  C   UNL     1      32.878 -23.214 -17.515  0.00  0.00    +0.039 C 
ATOM     20  C   UNL     1      34.367 -23.003 -15.165  0.00  0.00    +0.026 C 
ATOM     21  C   UNL     1      32.250 -23.345 -16.276  0.00  0.00    +0.015 C 
ATOM     22  C   UNL     1      32.994 -23.239 -15.101  0.00  0.00    +0.059 C 
ENDBRANCH  14  17
ENDBRANCH   2  14
TORSDOF 6
ENDMDL
MODEL 3
REMARK VINA RESULT:      -9.4      1.274      1.824
REMARK  Name = 448978
REMARK  6 active torsions:
REMARK  status: ('A' for Active; 'I' for Inactive)
REMARK    1  A    between atoms: C_1  and  O_7
REMARK    2  A    between atoms: C_2  and  O_14
REMARK    3  A    between atoms: O_7  and  C_8
REMARK    4  A    between atoms: C_8  and  C_11
REMARK    5  A    between atoms: C_11  and  O_12
REMARK    6  A    between atoms: O_14  and  C_17
REMARK                            x       y       z     vdW  Elec       q    Type
REMARK                         _______ _______ _______ _____ _____    ______ ____
ROOT
ATOM      1  C   UNL     1      33.618 -21.812 -19.324  0.00  0.00    +0.139 C 
ATOM      2  C   UNL     1      35.143 -19.926 -20.703  0.00  0.00    +0.146 C 
ATOM      3  C   UNL     1      35.009 -21.917 -19.340  0.00  0.00    +0.040 C 
ATOM      4  C   UNL     1      32.990 -20.765 -19.998  0.00  0.00    +0.040 C 
ATOM      5  C   UNL     1      35.772 -20.973 -20.029  0.00  0.00    +0.041 C 
ATOM      6  C   UNL     1      33.752 -19.822 -20.687  0.00  0.00    +0.041 C 
ENDROOT
BRANCH   1   7
ATOM      7  O   UNL     1      32.873 -22.732 -18.652  0.00  0.00    -0.468 OA
BRANCH   7   8
ATOM      8  C   UNL     1      32.823 -22.613 -17.232  0.00  0.00    +0.263 C 
ATOM      9  C   UNL     1      33.796 -23.619 -16.641  0.00  0.00    +0.060 C 
BRANCH   8  11
ATOM     10  O   UNL     1      30.416 -22.281 -17.165  0.00  0.00    -0.246 OA
ATOM     11  C   UNL     1      31.404 -22.890 -16.778  0.00  0.00    +0.354 C 
BRANCH  11  12
ATOM     12  O   UNL     1      31.338 -23.919 -15.895  0.00  0.00    -0.478 OA
ATOM     13  H   UNL     1      32.126 -24.308 -15.568  0.00  0.00    +0.295 HD
ENDBRANCH  11  12
ENDBRANCH   8  11
ENDBRANCH   7   8
ENDBRANCH   1   7
BRANCH   2  14
ATOM     14  O   UNL     1      35.886 -19.006 -21.375  0.00  0.00    -0.453 OA
BRANCH  14  17
ATOM     15 CL   UNL     1      35.048 -18.968 -24.262  0.00  0.00    -0.079 Cl
ATOM     16 CL   UNL     1      33.215 -14.050 -23.051  0.00  0.00    -0.082 Cl
ATOM     17  C   UNL     1      35.253 -17.847 -21.793  0.00  0.00    +0.156 C 
ATOM     18  C   UNL     1      34.823 -17.713 -23.100  0.00  0.00    +0.093 C 
ATOM     19  C   UNL     1      35.070 -16.837 -20.862  0.00  0.00    +0.039 C 
ATOM     20  C   UNL     1      34.189 -16.534 -23.492  0.00  0.00    +0.026 C 
ATOM     21  C   UNL     1      34.437 -15.658 -21.255  0.00  0.00    +0.015 C 
ATOM     22  C   UNL     1      33.995 -15.506 -22.569  0.00  0.00    +0.059 C 
ENDBRANCH  14  17
ENDBRANCH   2  14
TORSDOF 6
ENDMDL
MODEL 4
REMARK VINA RESULT:      -9.3      4.144      6.642
REMARK  Name = 448978
REMARK  6 active torsions:
REMARK  status: ('A' for Active; 'I' for Inactive)
REMARK    1  A    between atoms: C_1  and  O_7
REMARK    2  A    between atoms: C_2  and  O_14
REMARK    3  A    between atoms: O_7  and  C_8
REMARK    4  A    between atoms: C_8  and  C_11
REMARK    5  A    between atoms: C_11  and  O_12
REMARK    6  A    between atoms: O_14  and  C_17
REMARK                            x       y       z     vdW  Elec       q    Type
REMARK                         _______ _______ _______ _____ _____    ______ ____
ROOT
ATOM      1  C   UNL     1      34.554 -16.270 -21.354  0.00  0.00    +0.139 C 
ATOM      2  C   UNL     1      32.995 -14.340 -22.629  0.00  0.00    +0.146 C 
ATOM      3  C   UNL     1      33.759 -15.407 -20.600  0.00  0.00    +0.040 C 
ATOM      4  C   UNL     1      34.571 -16.168 -22.744  0.00  0.00    +0.040 C 
ATOM      5  C   UNL     1      32.978 -14.442 -21.238  0.00  0.00    +0.041 C 
ATOM      6  C   UNL     1      33.791 -15.203 -23.382  0.00  0.00    +0.041 C 
ENDROOT
BRANCH   1   7
ATOM      7  O   UNL     1      35.316 -17.211 -20.732  0.00  0.00    -0.468 OA
BRANCH   7   8
ATOM      8  C   UNL     1      35.387 -18.497 -21.345  0.00  0.00    +0.263 C 
ATOM      9  C   UNL     1      34.138 -19.271 -20.961  0.00  0.00    +0.060 C 
BRANCH   8  11
ATOM     10  O   UNL     1      37.758 -19.029 -21.316  0.00  0.00    -0.246 OA
ATOM     11  C   UNL     1      36.638 -19.195 -20.852  0.00  0.00    +0.354 C 
BRANCH  11  12
ATOM     12  O   UNL     1      36.387 -20.025 -19.808  0.00  0.00    -0.478 OA
ATOM     13  H   UNL     1      36.811 -20.859 -19.759  0.00  0.00    +0.295 HD
ENDBRANCH  11  12
ENDBRANCH   8  11
ENDBRANCH   7   8
ENDBRANCH   1   7
BRANCH   2  14
ATOM     14  O   UNL     1      32.234 -13.399 -23.252  0.00  0.00    -0.453 OA
BRANCH  14  17
ATOM     15 CL   UNL     1      30.938 -11.322 -21.507  0.00  0.00    -0.079 Cl
ATOM     16 CL   UNL     1      34.511  -8.013 -23.807  0.00  0.00    -0.082 Cl
ATOM     17  C   UNL     1      32.757 -12.121 -23.365  0.00  0.00    +0.156 C 
ATOM     18  C   UNL     1      32.240 -11.082 -22.613  0.00  0.00    +0.093 C 
ATOM     19  C   UNL     1      33.802 -11.925 -24.252  0.00  0.00    +0.039 C 
ATOM     20  C   UNL     1      32.785  -9.806 -22.748  0.00  0.00    +0.026 C 
ATOM     21  C   UNL     1      34.347 -10.647 -24.388  0.00  0.00    +0.015 C 
ATOM     22  C   UNL     1      33.839  -9.588 -23.637  0.00  0.00    +0.059 C 
ENDBRANCH  14  17
ENDBRANCH   2  14
TORSDOF 6
ENDMDL
MODEL 5
REMARK VINA RESULT:      -9.2      1.877      3.187
REMARK  Name = 448978
REMARK  6 active torsions:
REMARK  status: ('A' for Active; 'I' for Inactive)
REMARK    1  A    between atoms: C_1  and  O_7
REMARK    2  A    between atoms: C_2  and  O_14
REMARK    3  A    between atoms: O_7  and  C_8
REMARK    4  A    between atoms: C_8  and  C_11
REMARK    5  A    between atoms: C_11  and  O_12
REMARK    6  A    between atoms: O_14  and  C_17
REMARK                            x       y       z     vdW  Elec       q    Type
REMARK                         _______ _______ _______ _____ _____    ______ ____
ROOT
ATOM      1  C   UNL     1      35.509 -20.883 -20.227  0.00  0.00    +0.139 C 
ATOM      2  C   UNL     1      35.637 -18.546 -21.745  0.00  0.00    +0.146 C 
ATOM      3  C   UNL     1      34.364 -20.400 -20.862  0.00  0.00    +0.040 C 
ATOM      4  C   UNL     1      36.716 -20.197 -20.350  0.00  0.00    +0.040 C 
ATOM      5  C   UNL     1      34.429 -19.231 -21.622  0.00  0.00    +0.041 C 
ATOM      6  C   UNL     1      36.781 -19.029 -21.109  0.00  0.00    +0.041 C 
ENDROOT
BRANCH   1   7
ATOM      7  O   UNL     1      35.445 -22.023 -19.485  0.00  0.00    -0.468 OA
BRANCH   7   8
ATOM      8  C   UNL     1      34.995 -21.896 -18.138  0.00  0.00    +0.263 C 
ATOM      9  C   UNL     1      36.160 -22.222 -17.220  0.00  0.00    +0.060 C 
BRANCH   8  11
ATOM     10  O   UNL     1      33.921 -23.917 -17.320  0.00  0.00    -0.246 OA
ATOM     11  C   UNL     1      33.842 -22.856 -17.925  0.00  0.00    +0.354 C 
BRANCH  11  12
ATOM     12  O   UNL     1      32.685 -22.399 -18.468  0.00  0.00    -0.478 OA
ATOM     13  H   UNL     1      32.010 -23.002 -18.709  0.00  0.00    +0.295 HD
ENDBRANCH  11  12
ENDBRANCH   8  11
ENDBRANCH   7   8
ENDBRANCH   1   7
BRANCH   2  14
ATOM     14  O   UNL     1      35.701 -17.406 -22.485  0.00  0.00    -0.453 OA
BRANCH  14  17
ATOM     15 CL   UNL     1      34.180 -16.233 -24.798  0.00  0.00    -0.079 Cl
ATOM     16 CL   UNL     1      32.043 -13.053 -21.013  0.00  0.00    -0.082 Cl
ATOM     17  C   UNL     1      34.831 -16.378 -22.160  0.00  0.00    +0.156 C 
ATOM     18  C   UNL     1      34.077 -15.760 -23.142  0.00  0.00    +0.093 C 
ATOM     19  C   UNL     1      34.746 -15.996 -20.832  0.00  0.00    +0.039 C 
ATOM     20  C   UNL     1      33.210 -14.728 -22.786  0.00  0.00    +0.026 C 
ATOM     21  C   UNL     1      33.879 -14.962 -20.477  0.00  0.00    +0.015 C 
ATOM     22  C   UNL     1      33.111 -14.328 -21.453  0.00  0.00    +0.059 C 
ENDBRANCH  14  17
ENDBRANCH   2  14
TORSDOF 6
ENDMDL
MODEL 6
REMARK VINA RESULT:      -9.2      1.049      1.303
REMARK  Name = 448978
REMARK  6 active torsions:
REMARK  status: ('A' for Active; 'I' for Inactive)
REMARK    1  A    between atoms: C_1  and  O_7
REMARK    2  A    between atoms: C_2  and  O_14
REMARK    3  A    between atoms: O_7  and  C_8
REMARK    4  A    between atoms: C_8  and  C_11
REMARK    5  A    between atoms: C_11  and  O_12
REMARK    6  A    between atoms: O_14  and  C_17
REMARK                            x       y       z     vdW  Elec       q    Type
REMARK                         _______ _______ _______ _____ _____    ______ ____
ROOT
ATOM      1  C   UNL     1      33.663 -20.910 -19.960  0.00  0.00    +0.139 C 
ATOM      2  C   UNL     1      35.084 -18.871 -21.227  0.00  0.00    +0.146 C 
ATOM      3  C   UNL     1      35.058 -20.923 -19.952  0.00  0.00    +0.040 C 
ATOM      4  C   UNL     1      32.979 -19.878 -20.602  0.00  0.00    +0.040 C 
ATOM      5  C   UNL     1      35.769 -19.903 -20.586  0.00  0.00    +0.041 C 
ATOM      6  C   UNL     1      33.689 -18.858 -21.235  0.00  0.00    +0.041 C 
ENDROOT
BRANCH   1   7
ATOM      7  O   UNL     1      32.969 -21.905 -19.343  0.00  0.00    -0.468 OA
BRANCH   7   8
ATOM      8  C   UNL     1      33.716 -22.806 -18.527  0.00  0.00    +0.263 C 
ATOM      9  C   UNL     1      33.916 -24.093 -19.309  0.00  0.00    +0.060 C 
BRANCH   8  11
ATOM     10  O   UNL     1      33.409 -23.532 -16.228  0.00  0.00    -0.246 OA
ATOM     11  C   UNL     1      32.937 -23.054 -17.251  0.00  0.00    +0.354 C 
BRANCH  11  12
ATOM     12  O   UNL     1      31.641 -22.666 -17.356  0.00  0.00    -0.478 OA
ATOM     13  H   UNL     1      31.156 -22.855 -18.135  0.00  0.00    +0.295 HD
ENDBRANCH  11  12
ENDBRANCH   8  11
ENDBRANCH   7   8
ENDBRANCH   1   7
BRANCH   2  14
ATOM     14  O   UNL     1      35.777 -17.876 -21.845  0.00  0.00    -0.453 OA
BRANCH  14  17
ATOM     15 CL   UNL     1      34.598 -15.207 -21.120  0.00  0.00    -0.079 Cl
ATOM     16 CL   UNL     1      33.143 -15.106 -26.305  0.00  0.00    -0.082 Cl
ATOM     17  C   UNL     1      35.152 -17.204 -22.883  0.00  0.00    +0.156 C 
ATOM     18  C   UNL     1      34.571 -15.967 -22.669  0.00  0.00    +0.093 C 
ATOM     19  C   UNL     1      35.128 -17.811 -24.127  0.00  0.00    +0.039 C 
ATOM     20  C   UNL     1      33.948 -15.314 -23.732  0.00  0.00    +0.026 C 
ATOM     21  C   UNL     1      34.504 -17.158 -25.190  0.00  0.00    +0.015 C 
ATOM     22  C   UNL     1      33.914 -15.910 -24.993  0.00  0.00    +0.059 C 
ENDBRANCH  14  17
ENDBRANCH   2  14
TORSDOF 6
ENDMDL
MODEL 7
REMARK VINA RESULT:      -9.2      3.520      8.193
REMARK  Name = 448978
REMARK  6 active torsions:
REMARK  status: ('A' for Active; 'I' for Inactive)
REMARK    1  A    between atoms: C_1  and  O_7
REMARK    2  A    between atoms: C_2  and  O_14
REMARK    3  A    between atoms: O_7  and  C_8
REMARK    4  A    between atoms: C_8  and  C_11
REMARK    5  A    between atoms: C_11  and  O_12
REMARK    6  A    between atoms: O_14  and  C_17
REMARK                            x       y       z     vdW  Elec       q    Type
REMARK                         _______ _______ _______ _____ _____    ______ ____
ROOT
ATOM      1  C   UNL     1      34.901 -19.875 -20.750  0.00  0.00    +0.139 C 
ATOM      2  C   UNL     1      33.524 -21.830 -19.313  0.00  0.00    +0.146 C 
ATOM      3  C   UNL     1      33.515 -19.792 -20.612  0.00  0.00    +0.040 C 
ATOM      4  C   UNL     1      35.598 -20.935 -20.172  0.00  0.00    +0.040 C 
ATOM      5  C   UNL     1      32.827 -20.770 -19.893  0.00  0.00    +0.041 C 
ATOM      6  C   UNL     1      34.910 -21.912 -19.453  0.00  0.00    +0.041 C 
ENDROOT
BRANCH   1   7
ATOM      7  O   UNL     1      35.573 -18.922 -21.452  0.00  0.00    -0.468 OA
BRANCH   7   8
ATOM      8  C   UNL     1      34.834 -18.200 -22.436  0.00  0.00    +0.263 C 
ATOM      9  C   UNL     1      35.263 -18.699 -23.806  0.00  0.00    +0.060 C 
BRANCH   8  11
ATOM     10  O   UNL     1      34.940 -16.082 -21.248  0.00  0.00    -0.246 OA
ATOM     11  C   UNL     1      35.133 -16.723 -22.272  0.00  0.00    +0.354 C 
BRANCH  11  12
ATOM     12  O   UNL     1      35.665 -16.179 -23.395  0.00  0.00    -0.478 OA
ATOM     13  H   UNL     1      36.479 -16.499 -23.732  0.00  0.00    +0.295 HD
ENDBRANCH  11  12
ENDBRANCH   8  11
ENDBRANCH   7   8
ENDBRANCH   1   7
BRANCH   2  14
ATOM     14  O   UNL     1      32.853 -22.784 -18.613  0.00  0.00    -0.453 OA
BRANCH  14  17
ATOM     15 CL   UNL     1      30.633 -22.906 -16.589  0.00  0.00    -0.079 Cl
ATOM     16 CL   UNL     1      34.649 -23.810 -13.115  0.00  0.00    -0.082 Cl
ATOM     17  C   UNL     1      33.253 -23.026 -17.309  0.00  0.00    +0.156 C 
ATOM     18  C   UNL     1      32.321 -23.103 -16.290  0.00  0.00    +0.093 C 
ATOM     19  C   UNL     1      34.608 -23.185 -17.066  0.00  0.00    +0.039 C 
ATOM     20  C   UNL     1      32.753 -23.348 -14.987  0.00  0.00    +0.026 C 
ATOM     21  C   UNL     1      35.040 -23.429 -15.762  0.00  0.00    +0.015 C 
ATOM     22  C   UNL     1      34.114 -23.510 -14.723  0.00  0.00    +0.059 C 
ENDBRANCH  14  17
ENDBRANCH   2  14
TORSDOF 6
ENDMDL
MODEL 8
REMARK VINA RESULT:      -9.1      5.805      8.615
REMARK  Name = 448978
REMARK  6 active torsions:
REMARK  status: ('A' for Active; 'I' for Inactive)
REMARK    1  A    between atoms: C_1  and  O_7
REMARK    2  A    between atoms: C_2  and  O_14
REMARK    3  A    between atoms: O_7  and  C_8
REMARK    4  A    between atoms: C_8  and  C_11
REMARK    5  A    between atoms: C_11  and  O_12
REMARK    6  A    between atoms: O_14  and  C_17
REMARK                            x       y       z     vdW  Elec       q    Type
REMARK                         _______ _______ _______ _____ _____    ______ ____
ROOT
ATOM      1  C   UNL     1      34.115 -14.727 -22.809  0.00  0.00    +0.139 C 
ATOM      2  C   UNL     1      32.139 -12.970 -21.919  0.00  0.00    +0.146 C 
ATOM      3  C   UNL     1      33.728 -14.734 -21.469  0.00  0.00    +0.040 C 
ATOM      4  C   UNL     1      33.515 -13.841 -23.703  0.00  0.00    +0.040 C 
ATOM      5  C   UNL     1      32.739 -13.856 -21.024  0.00  0.00    +0.041 C 
ATOM      6  C   UNL     1      32.527 -12.963 -23.259  0.00  0.00    +0.041 C 
ENDROOT
BRANCH   1   7
ATOM      7  O   UNL     1      35.080 -15.584 -23.243  0.00  0.00    -0.468 OA
BRANCH   7   8
ATOM      8  C   UNL     1      34.725 -16.962 -23.346  0.00  0.00    +0.263 C 
ATOM      9  C   UNL     1      35.753 -17.770 -22.573  0.00  0.00    +0.060 C 
BRANCH   8  11
ATOM     10  O   UNL     1      34.857 -16.561 -25.739  0.00  0.00    -0.246 OA
ATOM     11  C   UNL     1      34.713 -17.346 -24.811  0.00  0.00    +0.354 C 
BRANCH  11  12
ATOM     12  O   UNL     1      34.542 -18.680 -24.992  0.00  0.00    -0.478 OA
ATOM     13  H   UNL     1      35.086 -19.145 -25.598  0.00  0.00    +0.295 HD
ENDBRANCH  11  12
ENDBRANCH   8  11
ENDBRANCH   7   8
ENDBRANCH   1   7
BRANCH   2  14
ATOM     14  O   UNL     1      31.176 -12.113 -21.485  0.00  0.00    -0.453 OA
BRANCH  14  17
ATOM     15 CL   UNL     1      31.558 -10.970 -18.731  0.00  0.00    -0.079 Cl
ATOM     16 CL   UNL     1      32.481  -6.386 -21.405  0.00  0.00    -0.082 Cl
ATOM     17  C   UNL     1      31.486 -10.763 -21.443  0.00  0.00    +0.156 C 
ATOM     18  C   UNL     1      31.683 -10.126 -20.231  0.00  0.00    +0.093 C 
ATOM     19  C   UNL     1      31.587 -10.083 -22.645  0.00  0.00    +0.039 C 
ATOM     20  C   UNL     1      31.994  -8.767 -20.218  0.00  0.00    +0.026 C 
ATOM     21  C   UNL     1      31.897  -8.723 -22.632  0.00  0.00    +0.015 C 
ATOM     22  C   UNL     1      32.101  -8.064 -21.419  0.00  0.00    +0.059 C 
ENDBRANCH  14  17
ENDBRANCH   2  14
TORSDOF 6
ENDMDL
MODEL 9
REMARK VINA RESULT:      -9.1      3.745      7.646
REMARK  Name = 448978
REMARK  6 active torsions:
REMARK  status: ('A' for Active; 'I' for Inactive)
REMARK    1  A    between atoms: C_1  and  O_7
REMARK    2  A    between atoms: C_2  and  O_14
REMARK    3  A    between atoms: O_7  and  C_8
REMARK    4  A    between atoms: C_8  and  C_11
REMARK    5  A    between atoms: C_11  and  O_12
REMARK    6  A    between atoms: O_14  and  C_17
REMARK                            x       y       z     vdW  Elec       q    Type
REMARK                         _______ _______ _______ _____ _____    ______ ____
ROOT
ATOM      1  C   UNL     1      34.621 -15.316 -22.242  0.00  0.00    +0.139 C 
ATOM      2  C   UNL     1      35.210 -18.039 -22.102  0.00  0.00    +0.146 C 
ATOM      3  C   UNL     1      34.777 -16.057 -23.414  0.00  0.00    +0.040 C 
ATOM      4  C   UNL     1      34.761 -15.936 -21.001  0.00  0.00    +0.040 C 
ATOM      5  C   UNL     1      35.071 -17.419 -23.344  0.00  0.00    +0.041 C 
ATOM      6  C   UNL     1      35.054 -17.297 -20.931  0.00  0.00    +0.041 C 
ENDROOT
BRANCH   1   7
ATOM      7  O   UNL     1      34.335 -13.987 -22.311  0.00  0.00    -0.468 OA
BRANCH   7   8
ATOM      8  C   UNL     1      33.081 -13.622 -22.885  0.00  0.00    +0.263 C 
ATOM      9  C   UNL     1      33.344 -12.606 -23.983  0.00  0.00    +0.060 C 
BRANCH   8  11
ATOM     10  O   UNL     1      32.337 -13.263 -20.599  0.00  0.00    -0.246 OA
ATOM     11  C   UNL     1      32.206 -13.038 -21.795  0.00  0.00    +0.354 C 
BRANCH  11  12
ATOM     12  O   UNL     1      31.254 -12.206 -22.289  0.00  0.00    -0.478 OA
ATOM     13  H   UNL     1      30.637 -12.522 -22.919  0.00  0.00    +0.295 HD
ENDBRANCH  11  12
ENDBRANCH   8  11
ENDBRANCH   7   8
ENDBRANCH   1   7
BRANCH   2  14
ATOM     14  O   UNL     1      35.497 -19.367 -22.033  0.00  0.00    -0.453 OA
BRANCH  14  17
ATOM     15 CL   UNL     1      37.308 -20.913 -20.197  0.00  0.00    -0.079 Cl
ATOM     16 CL   UNL     1      32.685 -22.510 -17.944  0.00  0.00    -0.082 Cl
ATOM     17  C   UNL     1      34.855 -20.115 -21.059  0.00  0.00    +0.156 C 
ATOM     18  C   UNL     1      35.584 -20.869 -20.157  0.00  0.00    +0.093 C 
ATOM     19  C   UNL     1      33.471 -20.082 -21.024  0.00  0.00    +0.039 C 
ATOM     20  C   UNL     1      34.911 -21.612 -19.189  0.00  0.00    +0.026 C 
ATOM     21  C   UNL     1      32.798 -20.826 -20.055  0.00  0.00    +0.015 C 
ATOM     22  C   UNL     1      33.517 -21.591 -19.137  0.00  0.00    +0.059 C 
ENDBRANCH  14  17
ENDBRANCH   2  14
TORSDOF 6
ENDMDL
