MODEL 1
REMARK VINA RESULT:      -5.5      0.000      0.000
REMARK  Name = 16842
REMARK  1 active torsions:
REMARK  status: ('A' for Active; 'I' for Inactive)
REMARK    1  A    between atoms: N_3  and  C_8
REMARK                            x       y       z     vdW  Elec       q    Type
REMARK                         _______ _______ _______ _____ _____    ______ ____
ROOT
ATOM      1  O   UNL     1      36.213 -19.174 -21.127  0.00  0.00    -0.269 OA
ATOM      2  O   UNL     1      33.025 -22.081 -19.471  0.00  0.00    -0.269 OA
ATOM      3  N   UNL     1      34.878 -20.849 -20.186  0.00  0.00    -0.223 N 
ATOM      4  C   UNL     1      33.815 -18.966 -21.052  0.00  0.00    +0.063 C 
ATOM      5  C   UNL     1      32.765 -19.920 -20.505  0.00  0.00    +0.063 C 
ATOM      6  C   UNL     1      35.130 -19.646 -20.807  0.00  0.00    +0.255 C 
ATOM      7  C   UNL     1      33.539 -21.095 -19.982  0.00  0.00    +0.255 C 
ENDROOT
BRANCH   3   8
ATOM      8  C   UNL     1      35.918 -21.784 -19.799  0.00  0.00    +0.102 C 
ATOM      9  C   UNL     1      36.407 -21.507 -18.388  0.00  0.00    +0.024 C 
ENDBRANCH   3   8
TORSDOF 1
ENDMDL
MODEL 2
REMARK VINA RESULT:      -5.5      0.150      2.535
REMARK  Name = 16842
REMARK  1 active torsions:
REMARK  status: ('A' for Active; 'I' for Inactive)
REMARK    1  A    between atoms: N_3  and  C_8
REMARK                            x       y       z     vdW  Elec       q    Type
REMARK                         _______ _______ _______ _____ _____    ______ ____
ROOT
ATOM      1  O   UNL     1      33.007 -22.127 -19.676  0.00  0.00    -0.269 OA
ATOM      2  O   UNL     1      36.240 -19.049 -20.869  0.00  0.00    -0.269 OA
ATOM      3  N   UNL     1      34.881 -20.826 -20.192  0.00  0.00    -0.223 N 
ATOM      4  C   UNL     1      32.776 -19.912 -20.592  0.00  0.00    +0.063 C 
ATOM      5  C   UNL     1      33.838 -18.900 -20.987  0.00  0.00    +0.063 C 
ATOM      6  C   UNL     1      33.537 -21.107 -20.093  0.00  0.00    +0.255 C 
ATOM      7  C   UNL     1      35.148 -19.570 -20.688  0.00  0.00    +0.255 C 
ENDROOT
BRANCH   3   8
ATOM      8  C   UNL     1      35.924 -21.753 -19.794  0.00  0.00    +0.102 C 
ATOM      9  C   UNL     1      36.281 -21.579 -18.327  0.00  0.00    +0.024 C 
ENDBRANCH   3   8
TORSDOF 1
ENDMDL
MODEL 3
REMARK VINA RESULT:      -5.3      1.337      2.830
REMARK  Name = 16842
REMARK  1 active torsions:
REMARK  status: ('A' for Active; 'I' for Inactive)
REMARK    1  A    between atoms: N_3  and  C_8
REMARK                            x       y       z     vdW  Elec       q    Type
REMARK                         _______ _______ _______ _____ _____    ______ ____
ROOT
ATOM      1  O   UNL     1      37.006 -19.867 -20.391  0.00  0.00    -0.269 OA
ATOM      2  O   UNL     1      32.426 -20.456 -20.573  0.00  0.00    -0.269 OA
ATOM      3  N   UNL     1      34.690 -19.889 -20.715  0.00  0.00    -0.223 N 
ATOM      4  C   UNL     1      35.614 -21.526 -19.339  0.00  0.00    +0.063 C 
ATOM      5  C   UNL     1      34.108 -21.723 -19.401  0.00  0.00    +0.063 C 
ATOM      6  C   UNL     1      35.889 -20.331 -20.206  0.00  0.00    +0.255 C 
ATOM      7  C   UNL     1      33.606 -20.627 -20.295  0.00  0.00    +0.255 C 
ENDROOT
BRANCH   3   8
ATOM      8  C   UNL     1      34.568 -18.743 -21.597  0.00  0.00    +0.102 C 
ATOM      9  C   UNL     1      34.771 -19.143 -23.048  0.00  0.00    +0.024 C 
ENDBRANCH   3   8
TORSDOF 1
ENDMDL
MODEL 4
REMARK VINA RESULT:      -5.3      1.418      3.468
REMARK  Name = 16842
REMARK  1 active torsions:
REMARK  status: ('A' for Active; 'I' for Inactive)
REMARK    1  A    between atoms: N_3  and  C_8
REMARK                            x       y       z     vdW  Elec       q    Type
REMARK                         _______ _______ _______ _____ _____    ______ ____
ROOT
ATOM      1  O   UNL     1      32.317 -20.228 -20.622  0.00  0.00    -0.269 OA
ATOM      2  O   UNL     1      36.919 -20.335 -20.216  0.00  0.00    -0.269 OA
ATOM      3  N   UNL     1      34.643 -19.982 -20.615  0.00  0.00    -0.223 N 
ATOM      4  C   UNL     1      33.730 -21.738 -19.388  0.00  0.00    +0.063 C 
ATOM      5  C   UNL     1      35.244 -21.772 -19.251  0.00  0.00    +0.063 C 
ATOM      6  C   UNL     1      33.443 -20.564 -20.279  0.00  0.00    +0.255 C 
ATOM      7  C   UNL     1      35.738 -20.619 -20.076  0.00  0.00    +0.255 C 
ENDROOT
BRANCH   3   8
ATOM      8  C   UNL     1      34.756 -18.818 -21.475  0.00  0.00    +0.102 C 
ATOM      9  C   UNL     1      34.849 -19.222 -22.936  0.00  0.00    +0.024 C 
ENDBRANCH   3   8
TORSDOF 1
ENDMDL
MODEL 5
REMARK VINA RESULT:      -5.3      4.061      5.613
REMARK  Name = 16842
REMARK  1 active torsions:
REMARK  status: ('A' for Active; 'I' for Inactive)
REMARK    1  A    between atoms: N_3  and  C_8
REMARK                            x       y       z     vdW  Elec       q    Type
REMARK                         _______ _______ _______ _____ _____    ______ ____
ROOT
ATOM      1  O   UNL     1      34.546 -16.777 -25.870  0.00  0.00    -0.269 OA
ATOM      2  O   UNL     1      34.908 -17.536 -21.326  0.00  0.00    -0.269 OA
ATOM      3  N   UNL     1      34.713 -16.803 -23.537  0.00  0.00    -0.223 N 
ATOM      4  C   UNL     1      34.633 -18.849 -24.646  0.00  0.00    +0.063 C 
ATOM      5  C   UNL     1      34.749 -19.101 -23.152  0.00  0.00    +0.063 C 
ATOM      6  C   UNL     1      34.621 -17.356 -24.794  0.00  0.00    +0.255 C 
ATOM      7  C   UNL     1      34.802 -17.736 -22.528  0.00  0.00    +0.255 C 
ENDROOT
BRANCH   3   8
ATOM      8  C   UNL     1      34.735 -15.373 -23.290  0.00  0.00    +0.102 C 
ATOM      9  C   UNL     1      33.328 -14.824 -23.123  0.00  0.00    +0.024 C 
ENDBRANCH   3   8
TORSDOF 1
ENDMDL
MODEL 6
REMARK VINA RESULT:      -5.3      3.966      5.775
REMARK  Name = 16842
REMARK  1 active torsions:
REMARK  status: ('A' for Active; 'I' for Inactive)
REMARK    1  A    between atoms: N_3  and  C_8
REMARK                            x       y       z     vdW  Elec       q    Type
REMARK                         _______ _______ _______ _____ _____    ______ ____
ROOT
ATOM      1  O   UNL     1      34.728 -17.537 -21.237  0.00  0.00    -0.269 OA
ATOM      2  O   UNL     1      34.707 -16.909 -25.815  0.00  0.00    -0.269 OA
ATOM      3  N   UNL     1      34.744 -16.868 -23.478  0.00  0.00    -0.223 N 
ATOM      4  C   UNL     1      34.693 -19.152 -23.023  0.00  0.00    +0.063 C 
ATOM      5  C   UNL     1      34.690 -18.947 -24.529  0.00  0.00    +0.063 C 
ATOM      6  C   UNL     1      34.725 -17.770 -22.438  0.00  0.00    +0.255 C 
ATOM      7  C   UNL     1      34.715 -17.458 -24.722  0.00  0.00    +0.255 C 
ENDROOT
BRANCH   3   8
ATOM      8  C   UNL     1      34.772 -15.429 -23.291  0.00  0.00    +0.102 C 
ATOM      9  C   UNL     1      33.368 -14.870 -23.137  0.00  0.00    +0.024 C 
ENDBRANCH   3   8
TORSDOF 1
ENDMDL
MODEL 7
REMARK VINA RESULT:      -5.3      2.887      3.922
REMARK  Name = 16842
REMARK  1 active torsions:
REMARK  status: ('A' for Active; 'I' for Inactive)
REMARK    1  A    between atoms: N_3  and  C_8
REMARK                            x       y       z     vdW  Elec       q    Type
REMARK                         _______ _______ _______ _____ _____    ______ ____
ROOT
ATOM      1  O   UNL     1      35.105 -16.505 -20.386  0.00  0.00    -0.269 OA
ATOM      2  O   UNL     1      34.845 -19.418 -23.964  0.00  0.00    -0.269 OA
ATOM      3  N   UNL     1      34.971 -18.240 -21.948  0.00  0.00    -0.223 N 
ATOM      4  C   UNL     1      34.929 -16.052 -22.744  0.00  0.00    +0.063 C 
ATOM      5  C   UNL     1      34.840 -17.008 -23.922  0.00  0.00    +0.063 C 
ATOM      6  C   UNL     1      35.012 -16.930 -21.529  0.00  0.00    +0.255 C 
ATOM      7  C   UNL     1      34.883 -18.381 -23.315  0.00  0.00    +0.255 C 
ENDROOT
BRANCH   3   8
ATOM      8  C   UNL     1      35.034 -19.373 -21.044  0.00  0.00    +0.102 C 
ATOM      9  C   UNL     1      33.644 -19.893 -20.718  0.00  0.00    +0.024 C 
ENDBRANCH   3   8
TORSDOF 1
ENDMDL
MODEL 8
REMARK VINA RESULT:      -5.3      2.897      4.041
REMARK  Name = 16842
REMARK  1 active torsions:
REMARK  status: ('A' for Active; 'I' for Inactive)
REMARK    1  A    between atoms: N_3  and  C_8
REMARK                            x       y       z     vdW  Elec       q    Type
REMARK                         _______ _______ _______ _____ _____    ______ ____
ROOT
ATOM      1  O   UNL     1      34.918 -19.427 -24.019  0.00  0.00    -0.269 OA
ATOM      2  O   UNL     1      35.117 -16.538 -20.417  0.00  0.00    -0.269 OA
ATOM      3  N   UNL     1      35.062 -18.261 -21.996  0.00  0.00    -0.223 N 
ATOM      4  C   UNL     1      34.863 -17.020 -23.957  0.00  0.00    +0.063 C 
ATOM      5  C   UNL     1      34.932 -16.069 -22.774  0.00  0.00    +0.063 C 
ATOM      6  C   UNL     1      34.950 -18.395 -23.361  0.00  0.00    +0.255 C 
ATOM      7  C   UNL     1      35.049 -16.953 -21.566  0.00  0.00    +0.255 C 
ENDROOT
BRANCH   3   8
ATOM      8  C   UNL     1      35.164 -19.387 -21.086  0.00  0.00    +0.102 C 
ATOM      9  C   UNL     1      33.790 -19.921 -20.719  0.00  0.00    +0.024 C 
ENDBRANCH   3   8
TORSDOF 1
ENDMDL
MODEL 9
REMARK VINA RESULT:      -5.1      6.416      7.958
REMARK  Name = 16842
REMARK  1 active torsions:
REMARK  status: ('A' for Active; 'I' for Inactive)
REMARK    1  A    between atoms: N_3  and  C_8
REMARK                            x       y       z     vdW  Elec       q    Type
REMARK                         _______ _______ _______ _____ _____    ______ ____
ROOT
ATOM      1  O   UNL     1      32.720 -13.343 -23.673  0.00  0.00    -0.269 OA
ATOM      2  O   UNL     1      34.628 -16.938 -25.862  0.00  0.00    -0.269 OA
ATOM      3  N   UNL     1      33.498 -15.052 -25.068  0.00  0.00    -0.223 N 
ATOM      4  C   UNL     1      34.345 -14.943 -22.901  0.00  0.00    +0.063 C 
ATOM      5  C   UNL     1      34.976 -16.124 -23.621  0.00  0.00    +0.063 C 
ATOM      6  C   UNL     1      33.415 -14.323 -23.904  0.00  0.00    +0.255 C 
ATOM      7  C   UNL     1      34.367 -16.117 -24.993  0.00  0.00    +0.255 C 
ENDROOT
BRANCH   3   8
ATOM      8  C   UNL     1      32.730 -14.746 -26.261  0.00  0.00    +0.102 C 
ATOM      9  C   UNL     1      33.393 -13.646 -27.072  0.00  0.00    +0.024 C 
ENDBRANCH   3   8
TORSDOF 1
ENDMDL
