MODEL 1
REMARK VINA RESULT:      -7.0      0.000      0.000
REMARK  Name = 71587637
REMARK  5 active torsions:
REMARK  status: ('A' for Active; 'I' for Inactive)
REMARK    1  A    between atoms: N_1  and  C_21
REMARK    2  A    between atoms: C_4  and  C_18
REMARK    3  A    between atoms: C_5  and  C_11
REMARK    4  A    between atoms: C_18  and  O_19
REMARK    5  A    between atoms: C_21  and  C_23
REMARK                            x       y       z     vdW  Elec       q    Type
REMARK                         _______ _______ _______ _____ _____    ______ ____
ROOT
ATOM      1  N   UNL     1      34.270 -14.113 -22.460  0.00  0.00    +0.393 N 
ATOM      2  C   UNL     1      33.114 -14.959 -22.820  0.00  0.00    -0.047 C 
ATOM      3  C   UNL     1      34.263 -14.161 -20.988  0.00  0.00    -0.057 C 
ATOM      4  C   UNL     1      33.529 -16.441 -22.608  0.00  0.00    +0.084 C 
ATOM      5  C   UNL     1      34.001 -16.719 -21.154  0.00  0.00    +0.029 C 
ATOM      6  C   UNL     1      34.842 -15.540 -20.599  0.00  0.00    -0.016 C 
ATOM      7  C   UNL     1      32.021 -14.536 -21.830  0.00  0.00    -0.022 C 
ATOM      8  C   UNL     1      32.786 -14.017 -20.609  0.00  0.00    -0.023 C 
ATOM      9  H   UNL     1      35.146 -14.446 -22.864  0.00  0.00    -0.079 HD
ENDROOT
BRANCH   5  11
ATOM     10  F   UNL     1      36.164 -21.893 -20.465  0.00  0.00    -0.204 F 
ATOM     11  C   UNL     1      34.583 -18.112 -20.969  0.00  0.00    -0.022 C 
ATOM     12  C   UNL     1      33.735 -19.212 -20.837  0.00  0.00    -0.002 C 
ATOM     13  C   UNL     1      35.966 -18.291 -20.930  0.00  0.00    -0.002 C 
ATOM     14  C   UNL     1      34.268 -20.489 -20.667  0.00  0.00    +0.029 C 
ATOM     15  C   UNL     1      36.500 -19.568 -20.761  0.00  0.00    +0.029 C 
ATOM     16  C   UNL     1      35.650 -20.667 -20.628  0.00  0.00    +0.140 C 
ENDBRANCH   5  11
BRANCH   4  18
ATOM     17  O   UNL     1      35.666 -16.253 -23.714  0.00  0.00    -0.250 OA
ATOM     18  C   UNL     1      34.577 -16.801 -23.628  0.00  0.00    +0.315 C 
BRANCH  18  19
ATOM     19  O   UNL     1      34.115 -17.813 -24.417  0.00  0.00    -0.444 OA
ATOM     20  C   UNL     1      34.877 -19.024 -24.372  0.00  0.00    +0.256 C 
ENDBRANCH  18  19
ENDBRANCH   4  18
BRANCH   1  21
ATOM     21  C   UNL     1      34.168 -12.756 -22.986  0.00  0.00    -0.050 C 
BRANCH  21  23
ATOM     22  I   UNL     1      33.010 -13.432 -27.198  0.00  0.00    -0.043 I 
ATOM     23  C   UNL     1      33.502 -12.735 -24.330  0.00  0.00    -0.043 C 
ATOM     24  C   UNL     1      33.916 -13.473 -25.369  0.00  0.00    +0.029 C 
ENDBRANCH  21  23
ENDBRANCH   1  21
TORSDOF 5
ENDMDL
MODEL 2
REMARK VINA RESULT:      -6.6      2.148      3.463
REMARK  Name = 71587637
REMARK  5 active torsions:
REMARK  status: ('A' for Active; 'I' for Inactive)
REMARK    1  A    between atoms: N_1  and  C_21
REMARK    2  A    between atoms: C_4  and  C_18
REMARK    3  A    between atoms: C_5  and  C_11
REMARK    4  A    between atoms: C_18  and  O_19
REMARK    5  A    between atoms: C_21  and  C_23
REMARK                            x       y       z     vdW  Elec       q    Type
REMARK                         _______ _______ _______ _____ _____    ______ ____
ROOT
ATOM      1  N   UNL     1      33.668 -15.883 -23.701  0.00  0.00    +0.393 N 
ATOM      2  C   UNL     1      35.083 -15.766 -23.296  0.00  0.00    -0.047 C 
ATOM      3  C   UNL     1      33.664 -17.106 -24.521  0.00  0.00    -0.057 C 
ATOM      4  C   UNL     1      35.346 -16.821 -22.187  0.00  0.00    +0.084 C 
ATOM      5  C   UNL     1      35.010 -18.264 -22.655  0.00  0.00    +0.029 C 
ATOM      6  C   UNL     1      33.730 -18.289 -23.530  0.00  0.00    -0.016 C 
ATOM      7  C   UNL     1      35.864 -16.091 -24.576  0.00  0.00    -0.022 C 
ATOM      8  C   UNL     1      34.924 -16.991 -25.384  0.00  0.00    -0.023 C 
ATOM      9  H   UNL     1      33.031 -15.936 -22.905  0.00  0.00    -0.079 HD
ENDROOT
BRANCH   5  11
ATOM     10  F   UNL     1      35.284 -22.076 -18.492  0.00  0.00    -0.204 F 
ATOM     11  C   UNL     1      35.083 -19.291 -21.534  0.00  0.00    -0.022 C 
ATOM     12  C   UNL     1      36.315 -19.617 -20.966  0.00  0.00    -0.002 C 
ATOM     13  C   UNL     1      33.920 -19.906 -21.074  0.00  0.00    -0.002 C 
ATOM     14  C   UNL     1      36.383 -20.557 -19.939  0.00  0.00    +0.029 C 
ATOM     15  C   UNL     1      33.987 -20.847 -20.046  0.00  0.00    +0.029 C 
ATOM     16  C   UNL     1      35.220 -21.173 -19.479  0.00  0.00    +0.140 C 
ENDBRANCH   5  11
BRANCH   4  18
ATOM     17  O   UNL     1      35.103 -16.100 -19.896  0.00  0.00    -0.250 OA
ATOM     18  C   UNL     1      34.579 -16.427 -20.952  0.00  0.00    +0.315 C 
BRANCH  18  19
ATOM     19  O   UNL     1      33.242 -16.496 -21.205  0.00  0.00    -0.444 OA
ATOM     20  C   UNL     1      32.422 -15.617 -20.427  0.00  0.00    +0.256 C 
ENDBRANCH  18  19
ENDBRANCH   4  18
BRANCH   1  21
ATOM     21  C   UNL     1      33.183 -14.710 -24.423  0.00  0.00    -0.050 C 
BRANCH  21  23
ATOM     22  I   UNL     1      31.573 -11.591 -21.737  0.00  0.00    -0.043 I 
ATOM     23  C   UNL     1      32.315 -13.849 -23.555  0.00  0.00    -0.043 C 
ATOM     24  C   UNL     1      32.759 -12.754 -22.924  0.00  0.00    +0.029 C 
ENDBRANCH  21  23
ENDBRANCH   1  21
TORSDOF 5
ENDMDL
MODEL 3
REMARK VINA RESULT:      -6.6      4.217      5.883
REMARK  Name = 71587637
REMARK  5 active torsions:
REMARK  status: ('A' for Active; 'I' for Inactive)
REMARK    1  A    between atoms: N_1  and  C_21
REMARK    2  A    between atoms: C_4  and  C_18
REMARK    3  A    between atoms: C_5  and  C_11
REMARK    4  A    between atoms: C_18  and  O_19
REMARK    5  A    between atoms: C_21  and  C_23
REMARK                            x       y       z     vdW  Elec       q    Type
REMARK                         _______ _______ _______ _____ _____    ______ ____
ROOT
ATOM      1  N   UNL     1      32.496 -10.089 -21.533  0.00  0.00    +0.393 N 
ATOM      2  C   UNL     1      31.739 -10.241 -22.791  0.00  0.00    -0.047 C 
ATOM      3  C   UNL     1      31.994 -11.206 -20.714  0.00  0.00    -0.057 C 
ATOM      4  C   UNL     1      32.354 -11.432 -23.573  0.00  0.00    +0.084 C 
ATOM      5  C   UNL     1      32.345 -12.748 -22.747  0.00  0.00    +0.029 C 
ATOM      6  C   UNL     1      32.678 -12.480 -21.257  0.00  0.00    -0.016 C 
ATOM      7  C   UNL     1      30.309 -10.552 -22.329  0.00  0.00    -0.022 C 
ATOM      8  C   UNL     1      30.481 -11.203 -20.953  0.00  0.00    -0.023 C 
ATOM      9  H   UNL     1      33.507 -10.122 -21.672  0.00  0.00    -0.079 HD
ENDROOT
BRANCH   5  11
ATOM     10  F   UNL     1      35.169 -16.962 -25.237  0.00  0.00    -0.204 F 
ATOM     11  C   UNL     1      33.105 -13.883 -23.418  0.00  0.00    -0.022 C 
ATOM     12  C   UNL     1      34.143 -14.523 -22.740  0.00  0.00    -0.002 C 
ATOM     13  C   UNL     1      32.766 -14.282 -24.710  0.00  0.00    -0.002 C 
ATOM     14  C   UNL     1      34.840 -15.564 -23.354  0.00  0.00    +0.029 C 
ATOM     15  C   UNL     1      33.462 -15.323 -25.324  0.00  0.00    +0.029 C 
ATOM     16  C   UNL     1      34.501 -15.963 -24.646  0.00  0.00    +0.140 C 
ENDBRANCH   5  11
BRANCH   4  18
ATOM     17  O   UNL     1      34.584 -10.549 -23.297  0.00  0.00    -0.250 OA
ATOM     18  C   UNL     1      33.739 -11.051 -24.026  0.00  0.00    +0.315 C 
BRANCH  18  19
ATOM     19  O   UNL     1      33.885 -11.351 -25.348  0.00  0.00    -0.444 OA
ATOM     20  C   UNL     1      35.043 -10.796 -25.980  0.00  0.00    +0.256 C 
ENDBRANCH  18  19
ENDBRANCH   4  18
BRANCH   1  21
ATOM     21  C   UNL     1      32.301  -8.787 -20.903  0.00  0.00    -0.050 C 
BRANCH  21  23
ATOM     22  I   UNL     1      31.429  -5.280 -23.448  0.00  0.00    -0.043 I 
ATOM     23  C   UNL     1      32.349  -7.676 -21.909  0.00  0.00    -0.043 C 
ATOM     24  C   UNL     1      31.361  -6.785 -22.070  0.00  0.00    +0.029 C 
ENDBRANCH  21  23
ENDBRANCH   1  21
TORSDOF 5
ENDMDL
MODEL 4
REMARK VINA RESULT:      -6.6      1.794      1.944
REMARK  Name = 71587637
REMARK  5 active torsions:
REMARK  status: ('A' for Active; 'I' for Inactive)
REMARK    1  A    between atoms: N_1  and  C_21
REMARK    2  A    between atoms: C_4  and  C_18
REMARK    3  A    between atoms: C_5  and  C_11
REMARK    4  A    between atoms: C_18  and  O_19
REMARK    5  A    between atoms: C_21  and  C_23
REMARK                            x       y       z     vdW  Elec       q    Type
REMARK                         _______ _______ _______ _____ _____    ______ ____
ROOT
ATOM      1  N   UNL     1      34.198 -13.608 -23.674  0.00  0.00    +0.393 N 
ATOM      2  C   UNL     1      33.052 -14.493 -23.963  0.00  0.00    -0.047 C 
ATOM      3  C   UNL     1      34.118 -13.437 -22.214  0.00  0.00    -0.057 C 
ATOM      4  C   UNL     1      33.438 -15.928 -23.514  0.00  0.00    +0.084 C 
ATOM      5  C   UNL     1      33.835 -15.990 -22.013  0.00  0.00    +0.029 C 
ATOM      6  C   UNL     1      34.661 -14.746 -21.597  0.00  0.00    -0.016 C 
ATOM      7  C   UNL     1      31.916 -13.922 -23.103  0.00  0.00    -0.022 C 
ATOM      8  C   UNL     1      32.626 -13.231 -21.935  0.00  0.00    -0.023 C 
ATOM      9  H   UNL     1      35.089 -14.000 -23.980  0.00  0.00    -0.079 HD
ENDROOT
BRANCH   5  11
ATOM     10  F   UNL     1      35.900 -21.015 -20.460  0.00  0.00    -0.204 F 
ATOM     11  C   UNL     1      34.391 -17.343 -21.595  0.00  0.00    -0.022 C 
ATOM     12  C   UNL     1      33.522 -18.390 -21.288  0.00  0.00    -0.002 C 
ATOM     13  C   UNL     1      35.770 -17.537 -21.519  0.00  0.00    -0.002 C 
ATOM     14  C   UNL     1      34.031 -19.631 -20.905  0.00  0.00    +0.029 C 
ATOM     15  C   UNL     1      36.280 -18.777 -21.136  0.00  0.00    +0.029 C 
ATOM     16  C   UNL     1      35.410 -19.824 -20.828  0.00  0.00    +0.140 C 
ENDBRANCH   5  11
BRANCH   4  18
ATOM     17  O   UNL     1      35.684 -16.034 -24.393  0.00  0.00    -0.250 OA
ATOM     18  C   UNL     1      34.530 -16.440 -24.416  0.00  0.00    +0.315 C 
BRANCH  18  19
ATOM     19  O   UNL     1      34.027 -17.404 -25.238  0.00  0.00    -0.444 OA
ATOM     20  C   UNL     1      34.434 -18.743 -24.937  0.00  0.00    +0.256 C 
ENDBRANCH  18  19
ENDBRANCH   4  18
BRANCH   1  21
ATOM     21  C   UNL     1      34.139 -12.343 -24.400  0.00  0.00    -0.050 C 
BRANCH  21  23
ATOM     22  I   UNL     1      32.713  -8.548 -22.639  0.00  0.00    -0.043 I 
ATOM     23  C   UNL     1      33.811 -11.199 -23.487  0.00  0.00    -0.043 C 
ATOM     24  C   UNL     1      33.148 -10.105 -23.885  0.00  0.00    +0.029 C 
ENDBRANCH  21  23
ENDBRANCH   1  21
TORSDOF 5
ENDMDL
MODEL 5
REMARK VINA RESULT:      -6.5      5.364      7.597
REMARK  Name = 71587637
REMARK  5 active torsions:
REMARK  status: ('A' for Active; 'I' for Inactive)
REMARK    1  A    between atoms: N_1  and  C_21
REMARK    2  A    between atoms: C_4  and  C_18
REMARK    3  A    between atoms: C_5  and  C_11
REMARK    4  A    between atoms: C_18  and  O_19
REMARK    5  A    between atoms: C_21  and  C_23
REMARK                            x       y       z     vdW  Elec       q    Type
REMARK                         _______ _______ _______ _____ _____    ______ ____
ROOT
ATOM      1  N   UNL     1      31.670  -7.990 -22.822  0.00  0.00    +0.393 N 
ATOM      2  C   UNL     1      32.285  -8.620 -21.637  0.00  0.00    -0.047 C 
ATOM      3  C   UNL     1      32.796  -7.906 -23.768  0.00  0.00    -0.057 C 
ATOM      4  C   UNL     1      32.474 -10.129 -21.947  0.00  0.00    +0.084 C 
ATOM      5  C   UNL     1      33.331 -10.366 -23.222  0.00  0.00    +0.029 C 
ATOM      6  C   UNL     1      32.995  -9.332 -24.327  0.00  0.00    -0.016 C 
ATOM      7  C   UNL     1      33.635  -7.903 -21.494  0.00  0.00    -0.022 C 
ATOM      8  C   UNL     1      33.978  -7.440 -22.913  0.00  0.00    -0.023 C 
ATOM      9  H   UNL     1      30.881  -8.523 -23.190  0.00  0.00    -0.079 HD
ENDROOT
BRANCH   5  11
ATOM     10  F   UNL     1      33.503 -15.784 -24.815  0.00  0.00    -0.204 F 
ATOM     11  C   UNL     1      33.378 -11.825 -23.651  0.00  0.00    -0.022 C 
ATOM     12  C   UNL     1      33.284 -12.158 -25.002  0.00  0.00    -0.002 C 
ATOM     13  C   UNL     1      33.514 -12.830 -22.693  0.00  0.00    -0.002 C 
ATOM     14  C   UNL     1      33.326 -13.496 -25.396  0.00  0.00    +0.029 C 
ATOM     15  C   UNL     1      33.557 -14.167 -23.086  0.00  0.00    +0.029 C 
ATOM     16  C   UNL     1      33.462 -14.500 -24.438  0.00  0.00    +0.140 C 
ENDBRANCH   5  11
BRANCH   4  18
ATOM     17  O   UNL     1      30.252 -10.442 -22.839  0.00  0.00    -0.250 OA
ATOM     18  C   UNL     1      31.118 -10.778 -22.042  0.00  0.00    +0.315 C 
BRANCH  18  19
ATOM     19  O   UNL     1      31.024 -11.773 -21.115  0.00  0.00    -0.444 OA
ATOM     20  C   UNL     1      31.478 -11.434 -19.800  0.00  0.00    +0.256 C 
ENDBRANCH  18  19
ENDBRANCH   4  18
BRANCH   1  21
ATOM     21  C   UNL     1      31.071  -6.691 -22.531  0.00  0.00    -0.050 C 
BRANCH  21  23
ATOM     22  I   UNL     1      31.387  -3.269 -25.312  0.00  0.00    -0.043 I 
ATOM     23  C   UNL     1      31.090  -5.794 -23.734  0.00  0.00    -0.043 C 
ATOM     24  C   UNL     1      31.372  -4.486 -23.672  0.00  0.00    +0.029 C 
ENDBRANCH  21  23
ENDBRANCH   1  21
TORSDOF 5
ENDMDL
MODEL 6
REMARK VINA RESULT:      -6.5      6.650      9.978
REMARK  Name = 71587637
REMARK  5 active torsions:
REMARK  status: ('A' for Active; 'I' for Inactive)
REMARK    1  A    between atoms: N_1  and  C_21
REMARK    2  A    between atoms: C_4  and  C_18
REMARK    3  A    between atoms: C_5  and  C_11
REMARK    4  A    between atoms: C_18  and  O_19
REMARK    5  A    between atoms: C_21  and  C_23
REMARK                            x       y       z     vdW  Elec       q    Type
REMARK                         _______ _______ _______ _____ _____    ______ ____
ROOT
ATOM      1  N   UNL     1      32.134 -11.299 -22.310  0.00  0.00    +0.393 N 
ATOM      2  C   UNL     1      32.764 -10.428 -21.297  0.00  0.00    -0.047 C 
ATOM      3  C   UNL     1      30.701 -11.003 -22.147  0.00  0.00    -0.057 C 
ATOM      4  C   UNL     1      32.738  -8.975 -21.841  0.00  0.00    +0.084 C 
ATOM      5  C   UNL     1      31.298  -8.497 -22.179  0.00  0.00    +0.029 C 
ATOM      6  C   UNL     1      30.465  -9.634 -22.824  0.00  0.00    -0.016 C 
ATOM      7  C   UNL     1      31.865 -10.582 -20.063  0.00  0.00    -0.022 C 
ATOM      8  C   UNL     1      30.491 -10.953 -20.631  0.00  0.00    -0.023 C 
ATOM      9  H   UNL     1      32.473 -11.117 -23.255  0.00  0.00    -0.079 HD
ENDROOT
BRANCH   5  11
ATOM     10  F   UNL     1      31.168  -3.490 -24.793  0.00  0.00    -0.204 F 
ATOM     11  C   UNL     1      31.263  -7.148 -22.883  0.00  0.00    -0.022 C 
ATOM     12  C   UNL     1      31.008  -7.083 -24.253  0.00  0.00    -0.002 C 
ATOM     13  C   UNL     1      31.486  -5.978 -22.159  0.00  0.00    -0.002 C 
ATOM     14  C   UNL     1      30.976  -5.847 -24.898  0.00  0.00    +0.029 C 
ATOM     15  C   UNL     1      31.453  -4.741 -22.804  0.00  0.00    +0.029 C 
ATOM     16  C   UNL     1      31.199  -4.677 -24.174  0.00  0.00    +0.140 C 
ENDBRANCH   5  11
BRANCH   4  18
ATOM     17  O   UNL     1      33.679  -9.690 -23.946  0.00  0.00    -0.250 OA
ATOM     18  C   UNL     1      33.663  -8.884 -23.026  0.00  0.00    +0.315 C 
BRANCH  18  19
ATOM     19  O   UNL     1      34.456  -7.782 -22.901  0.00  0.00    -0.444 OA
ATOM     20  C   UNL     1      34.693  -7.053 -24.110  0.00  0.00    +0.256 C 
ENDBRANCH  18  19
ENDBRANCH   4  18
BRANCH   1  21
ATOM     21  C   UNL     1      32.449 -12.712 -22.122  0.00  0.00    -0.050 C 
BRANCH  21  23
ATOM     22  I   UNL     1      33.100 -14.478 -26.121  0.00  0.00    -0.043 I 
ATOM     23  C   UNL     1      32.335 -13.477 -23.407  0.00  0.00    -0.043 C 
ATOM     24  C   UNL     1      33.266 -13.441 -24.371  0.00  0.00    +0.029 C 
ENDBRANCH  21  23
ENDBRANCH   1  21
TORSDOF 5
ENDMDL
MODEL 7
REMARK VINA RESULT:      -6.4      8.895     11.269
REMARK  Name = 71587637
REMARK  5 active torsions:
REMARK  status: ('A' for Active; 'I' for Inactive)
REMARK    1  A    between atoms: N_1  and  C_21
REMARK    2  A    between atoms: C_4  and  C_18
REMARK    3  A    between atoms: C_5  and  C_11
REMARK    4  A    between atoms: C_18  and  O_19
REMARK    5  A    between atoms: C_21  and  C_23
REMARK                            x       y       z     vdW  Elec       q    Type
REMARK                         _______ _______ _______ _____ _____    ______ ____
ROOT
ATOM      1  N   UNL     1      32.814 -22.944 -14.161  0.00  0.00    +0.393 N 
ATOM      2  C   UNL     1      33.019 -23.827 -15.326  0.00  0.00    -0.047 C 
ATOM      3  C   UNL     1      32.860 -23.884 -13.028  0.00  0.00    -0.057 C 
ATOM      4  C   UNL     1      34.522 -24.211 -15.371  0.00  0.00    +0.084 C 
ATOM      5  C   UNL     1      34.996 -24.892 -14.057  0.00  0.00    +0.029 C 
ATOM      6  C   UNL     1      34.352 -24.227 -12.813  0.00  0.00    -0.016 C 
ATOM      7  C   UNL     1      32.137 -25.047 -15.027  0.00  0.00    -0.022 C 
ATOM      8  C   UNL     1      32.042 -25.089 -13.499  0.00  0.00    -0.023 C 
ATOM      9  H   UNL     1      33.517 -22.206 -14.094  0.00  0.00    -0.079 HD
ENDROOT
BRANCH   5  11
ATOM     10  F   UNL     1      40.584 -25.706 -13.860  0.00  0.00    -0.204 F 
ATOM     11  C   UNL     1      36.501 -25.111 -14.004  0.00  0.00    -0.022 C 
ATOM     12  C   UNL     1      37.132 -25.862 -14.995  0.00  0.00    -0.002 C 
ATOM     13  C   UNL     1      37.249 -24.561 -12.963  0.00  0.00    -0.002 C 
ATOM     14  C   UNL     1      38.512 -26.063 -14.947  0.00  0.00    +0.029 C 
ATOM     15  C   UNL     1      38.629 -24.762 -12.915  0.00  0.00    +0.029 C 
ATOM     16  C   UNL     1      39.260 -25.514 -13.907  0.00  0.00    +0.140 C 
ENDBRANCH   5  11
BRANCH   4  18
ATOM     17  O   UNL     1      35.630 -22.122 -14.883  0.00  0.00    -0.250 OA
ATOM     18  C   UNL     1      35.327 -22.981 -15.700  0.00  0.00    +0.315 C 
BRANCH  18  19
ATOM     19  O   UNL     1      35.649 -22.989 -17.025  0.00  0.00    -0.444 OA
ATOM     20  C   UNL     1      36.587 -21.989 -17.435  0.00  0.00    +0.256 C 
ENDBRANCH  18  19
ENDBRANCH   4  18
BRANCH   1  21
ATOM     21  C   UNL     1      31.565 -22.192 -14.227  0.00  0.00    -0.050 C 
BRANCH  21  23
ATOM     22  I   UNL     1      28.218 -23.297 -16.894  0.00  0.00    -0.043 I 
ATOM     23  C   UNL     1      30.711 -22.642 -15.375  0.00  0.00    -0.043 C 
ATOM     24  C   UNL     1      29.373 -22.674 -15.330  0.00  0.00    +0.029 C 
ENDBRANCH  21  23
ENDBRANCH   1  21
TORSDOF 5
ENDMDL
MODEL 8
REMARK VINA RESULT:      -6.4      8.348     10.506
REMARK  Name = 71587637
REMARK  5 active torsions:
REMARK  status: ('A' for Active; 'I' for Inactive)
REMARK    1  A    between atoms: N_1  and  C_21
REMARK    2  A    between atoms: C_4  and  C_18
REMARK    3  A    between atoms: C_5  and  C_11
REMARK    4  A    between atoms: C_18  and  O_19
REMARK    5  A    between atoms: C_21  and  C_23
REMARK                            x       y       z     vdW  Elec       q    Type
REMARK                         _______ _______ _______ _____ _____    ______ ____
ROOT
ATOM      1  N   UNL     1      30.265 -23.109 -14.924  0.00  0.00    +0.393 N 
ATOM      2  C   UNL     1      30.623 -24.384 -15.577  0.00  0.00    -0.047 C 
ATOM      3  C   UNL     1      30.837 -23.262 -13.575  0.00  0.00    -0.057 C 
ATOM      4  C   UNL     1      32.133 -24.327 -15.929  0.00  0.00    +0.084 C 
ATOM      5  C   UNL     1      33.021 -24.064 -14.681  0.00  0.00    +0.029 C 
ATOM      6  C   UNL     1      32.358 -23.039 -13.725  0.00  0.00    -0.016 C 
ATOM      7  C   UNL     1      30.336 -25.443 -14.504  0.00  0.00    -0.022 C 
ATOM      8  C   UNL     1      30.490 -24.699 -13.175  0.00  0.00    -0.023 C 
ATOM      9  H   UNL     1      30.629 -22.294 -15.420  0.00  0.00    -0.079 HD
ENDROOT
BRANCH   5  11
ATOM     10  F   UNL     1      38.451 -23.166 -15.958  0.00  0.00    -0.204 F 
ATOM     11  C   UNL     1      34.483 -23.822 -15.025  0.00  0.00    -0.022 C 
ATOM     12  C   UNL     1      34.934 -22.528 -15.284  0.00  0.00    -0.002 C 
ATOM     13  C   UNL     1      35.373 -24.895 -15.082  0.00  0.00    -0.002 C 
ATOM     14  C   UNL     1      36.275 -22.306 -15.599  0.00  0.00    +0.029 C 
ATOM     15  C   UNL     1      36.714 -24.673 -15.397  0.00  0.00    +0.029 C 
ATOM     16  C   UNL     1      37.164 -23.378 -15.656  0.00  0.00    +0.140 C 
ENDBRANCH   5  11
BRANCH   4  18
ATOM     17  O   UNL     1      31.671 -22.278 -17.119  0.00  0.00    -0.250 OA
ATOM     18  C   UNL     1      32.342 -23.295 -17.007  0.00  0.00    +0.315 C 
BRANCH  18  19
ATOM     19  O   UNL     1      33.374 -23.679 -17.811  0.00  0.00    -0.444 OA
ATOM     20  C   UNL     1      33.858 -22.676 -18.709  0.00  0.00    +0.256 C 
ENDBRANCH  18  19
ENDBRANCH   4  18
BRANCH   1  21
ATOM     21  C   UNL     1      28.827 -22.860 -14.909  0.00  0.00    -0.050 C 
BRANCH  21  23
ATOM     22  I   UNL     1      26.365 -21.600 -18.357  0.00  0.00    -0.043 I 
ATOM     23  C   UNL     1      28.322 -22.463 -16.264  0.00  0.00    -0.043 C 
ATOM     24  C   UNL     1      27.047 -22.131 -16.507  0.00  0.00    +0.029 C 
ENDBRANCH  21  23
ENDBRANCH   1  21
TORSDOF 5
ENDMDL
MODEL 9
REMARK VINA RESULT:      -6.0      3.373      4.415
REMARK  Name = 71587637
REMARK  5 active torsions:
REMARK  status: ('A' for Active; 'I' for Inactive)
REMARK    1  A    between atoms: N_1  and  C_21
REMARK    2  A    between atoms: C_4  and  C_18
REMARK    3  A    between atoms: C_5  and  C_11
REMARK    4  A    between atoms: C_18  and  O_19
REMARK    5  A    between atoms: C_21  and  C_23
REMARK                            x       y       z     vdW  Elec       q    Type
REMARK                         _______ _______ _______ _____ _____    ______ ____
ROOT
ATOM      1  N   UNL     1      32.287 -10.457 -21.507  0.00  0.00    +0.393 N 
ATOM      2  C   UNL     1      31.197 -11.297 -22.044  0.00  0.00    -0.047 C 
ATOM      3  C   UNL     1      32.281 -10.794 -20.073  0.00  0.00    -0.057 C 
ATOM      4  C   UNL     1      31.720 -12.757 -22.120  0.00  0.00    +0.084 C 
ATOM      5  C   UNL     1      32.209 -13.281 -20.741  0.00  0.00    +0.029 C 
ATOM      6  C   UNL     1      32.960 -12.177 -19.953  0.00  0.00    -0.016 C 
ATOM      7  C   UNL     1      30.075 -11.157 -21.007  0.00  0.00    -0.022 C 
ATOM      8  C   UNL     1      30.797 -10.834 -19.696  0.00  0.00    -0.023 C 
ATOM      9  H   UNL     1      33.186 -10.640 -21.954  0.00  0.00    -0.079 HD
ENDROOT
BRANCH   5  11
ATOM     10  F   UNL     1      34.748 -18.320 -21.047  0.00  0.00    -0.204 F 
ATOM     11  C   UNL     1      32.893 -14.638 -20.824  0.00  0.00    -0.022 C 
ATOM     12  C   UNL     1      32.127 -15.803 -20.883  0.00  0.00    -0.002 C 
ATOM     13  C   UNL     1      34.285 -14.718 -20.839  0.00  0.00    -0.002 C 
ATOM     14  C   UNL     1      32.753 -17.047 -20.959  0.00  0.00    +0.029 C 
ATOM     15  C   UNL     1      34.912 -15.962 -20.915  0.00  0.00    +0.029 C 
ATOM     16  C   UNL     1      34.145 -17.126 -20.974  0.00  0.00    +0.140 C 
ENDBRANCH   5  11
BRANCH   4  18
ATOM     17  O   UNL     1      33.768 -12.096 -23.214  0.00  0.00    -0.250 OA
ATOM     18  C   UNL     1      32.793 -12.834 -23.175  0.00  0.00    +0.315 C 
BRANCH  18  19
ATOM     19  O   UNL     1      32.498 -13.835 -24.051  0.00  0.00    -0.444 OA
ATOM     20  C   UNL     1      33.608 -14.644 -24.455  0.00  0.00    +0.256 C 
ENDBRANCH  18  19
ENDBRANCH   4  18
BRANCH   1  21
ATOM     21  C   UNL     1      32.086  -9.034 -21.758  0.00  0.00    -0.050 C 
BRANCH  21  23
ATOM     22  I   UNL     1      34.326  -6.756 -24.813  0.00  0.00    -0.043 I 
ATOM     23  C   UNL     1      32.812  -8.584 -22.991  0.00  0.00    -0.043 C 
ATOM     24  C   UNL     1      33.347  -7.364 -23.128  0.00  0.00    +0.029 C 
ENDBRANCH  21  23
ENDBRANCH   1  21
TORSDOF 5
ENDMDL
