MODEL 1
REMARK VINA RESULT:     -10.5      0.000      0.000
REMARK  Name = 5288217
REMARK  5 active torsions:
REMARK  status: ('A' for Active; 'I' for Inactive)
REMARK    1  A    between atoms: C_7  and  C_14
REMARK    2  A    between atoms: C_8  and  O_24
REMARK    3  A    between atoms: C_11  and  O_26
REMARK    4  A    between atoms: C_15  and  O_20
REMARK    5  A    between atoms: C_19  and  O_22
REMARK                            x       y       z     vdW  Elec       q    Type
REMARK                         _______ _______ _______ _____ _____    ______ ____
ROOT
ATOM      1  O   UNL     1      34.177 -14.796 -22.745  0.00  0.00    -0.450 OA
ATOM      2  O   UNL     1      33.827 -16.080 -26.025  0.00  0.00    -0.283 OA
ATOM      3  C   UNL     1      34.530 -16.797 -23.844  0.00  0.00    +0.110 C 
ATOM      4  C   UNL     1      34.593 -16.103 -22.636  0.00  0.00    +0.155 C 
ATOM      5  C   UNL     1      33.825 -14.622 -24.078  0.00  0.00    +0.184 C 
ATOM      6  C   UNL     1      34.026 -15.871 -24.850  0.00  0.00    +0.236 C 
ATOM      7  C   UNL     1      33.366 -13.482 -24.597  0.00  0.00    +0.044 C 
ATOM      8  C   UNL     1      34.901 -18.120 -23.957  0.00  0.00    +0.143 C 
ATOM      9  C   UNL     1      35.035 -16.715 -21.483  0.00  0.00    +0.074 C 
ATOM     10  C   UNL     1      35.351 -18.753 -22.796  0.00  0.00    +0.073 C 
ATOM     11  C   UNL     1      35.416 -18.057 -21.571  0.00  0.00    +0.140 C 
ENDROOT
BRANCH   7  14
ATOM     12 BR   UNL     1      34.593  -8.317 -23.959  0.00  0.00    -0.043 Br
ATOM     13 BR   UNL     1      30.762 -11.051 -20.690  0.00  0.00    -0.046 Br
ATOM     14  C   UNL     1      33.154 -12.221 -23.863  0.00  0.00    +0.038 C 
ATOM     15  C   UNL     1      33.857 -11.077 -24.209  0.00  0.00    +0.143 C 
ATOM     16  C   UNL     1      32.239 -12.215 -22.823  0.00  0.00    +0.013 C 
ATOM     17  C   UNL     1      33.637  -9.897 -23.497  0.00  0.00    +0.102 C 
ATOM     18  C   UNL     1      32.019 -11.035 -22.111  0.00  0.00    +0.069 C 
ATOM     19  C   UNL     1      32.719  -9.877 -22.448  0.00  0.00    +0.149 C 
BRANCH  15  20
ATOM     20  O   UNL     1      34.755 -11.107 -25.237  0.00  0.00    -0.505 OA
ATOM     21  H   UNL     1      34.726 -11.803 -25.866  0.00  0.00    +0.292 HD
ENDBRANCH  15  20
BRANCH  19  22
ATOM     22  O   UNL     1      32.501  -8.724 -21.748  0.00  0.00    -0.504 OA
ATOM     23  H   UNL     1      32.753  -7.899 -22.115  0.00  0.00    +0.292 HD
ENDBRANCH  19  22
ENDBRANCH   7  14
BRANCH   8  24
ATOM     24  O   UNL     1      34.837 -18.790 -25.133  0.00  0.00    -0.505 OA
ATOM     25  H   UNL     1      34.990 -19.714 -25.153  0.00  0.00    +0.292 HD
ENDBRANCH   8  24
BRANCH  11  26
ATOM     26  O   UNL     1      35.860 -18.705 -20.457  0.00  0.00    -0.505 OA
ATOM     27  H   UNL     1      36.040 -19.624 -20.489  0.00  0.00    +0.292 HD
ENDBRANCH  11  26
TORSDOF 5
ENDMDL
MODEL 2
REMARK VINA RESULT:     -10.4      0.935      2.210
REMARK  Name = 5288217
REMARK  5 active torsions:
REMARK  status: ('A' for Active; 'I' for Inactive)
REMARK    1  A    between atoms: C_7  and  C_14
REMARK    2  A    between atoms: C_8  and  O_24
REMARK    3  A    between atoms: C_11  and  O_26
REMARK    4  A    between atoms: C_15  and  O_20
REMARK    5  A    between atoms: C_19  and  O_22
REMARK                            x       y       z     vdW  Elec       q    Type
REMARK                         _______ _______ _______ _____ _____    ______ ____
ROOT
ATOM      1  O   UNL     1      34.153 -14.652 -22.730  0.00  0.00    -0.450 OA
ATOM      2  O   UNL     1      33.825 -15.846 -26.047  0.00  0.00    -0.283 OA
ATOM      3  C   UNL     1      34.519 -16.621 -23.882  0.00  0.00    +0.110 C 
ATOM      4  C   UNL     1      34.573 -15.960 -22.656  0.00  0.00    +0.155 C 
ATOM      5  C   UNL     1      33.808 -14.442 -24.060  0.00  0.00    +0.184 C 
ATOM      6  C   UNL     1      34.017 -15.669 -24.865  0.00  0.00    +0.236 C 
ATOM      7  C   UNL     1      33.348 -13.290 -24.551  0.00  0.00    +0.044 C 
ATOM      8  C   UNL     1      34.895 -17.938 -24.030  0.00  0.00    +0.143 C 
ATOM      9  C   UNL     1      35.010 -16.602 -21.517  0.00  0.00    +0.074 C 
ATOM     10  C   UNL     1      35.341 -18.602 -22.885  0.00  0.00    +0.073 C 
ATOM     11  C   UNL     1      35.397 -17.940 -21.640  0.00  0.00    +0.140 C 
ENDROOT
BRANCH   7  14
ATOM     12 BR   UNL     1      30.927 -10.825 -20.469  0.00  0.00    -0.043 Br
ATOM     13 BR   UNL     1      34.509  -8.155 -24.057  0.00  0.00    -0.046 Br
ATOM     14  C   UNL     1      33.127 -12.050 -23.783  0.00  0.00    +0.038 C 
ATOM     15  C   UNL     1      32.279 -12.042 -22.686  0.00  0.00    +0.143 C 
ATOM     16  C   UNL     1      33.787 -10.902 -24.189  0.00  0.00    +0.013 C 
ATOM     17  C   UNL     1      32.088 -10.855 -21.978  0.00  0.00    +0.102 C 
ATOM     18  C   UNL     1      33.596  -9.715 -23.481  0.00  0.00    +0.069 C 
ATOM     19  C   UNL     1      32.746  -9.692 -22.376  0.00  0.00    +0.149 C 
BRANCH  15  20
ATOM     20  O   UNL     1      31.637 -13.186 -22.305  0.00  0.00    -0.505 OA
ATOM     21  H   UNL     1      31.114 -13.193 -21.526  0.00  0.00    +0.292 HD
ENDBRANCH  15  20
BRANCH  19  22
ATOM     22  O   UNL     1      32.561  -8.527 -21.686  0.00  0.00    -0.504 OA
ATOM     23  H   UNL     1      33.302  -8.023 -21.412  0.00  0.00    +0.292 HD
ENDBRANCH  19  22
ENDBRANCH   7  14
BRANCH   8  24
ATOM     24  O   UNL     1      34.840 -18.576 -25.224  0.00  0.00    -0.505 OA
ATOM     25  H   UNL     1      35.532 -19.155 -25.478  0.00  0.00    +0.292 HD
ENDBRANCH   8  24
BRANCH  11  26
ATOM     26  O   UNL     1      35.837 -18.617 -20.542  0.00  0.00    -0.505 OA
ATOM     27  H   UNL     1      35.231 -18.869 -19.873  0.00  0.00    +0.292 HD
ENDBRANCH  11  26
TORSDOF 5
ENDMDL
MODEL 3
REMARK VINA RESULT:     -10.4      3.015      4.981
REMARK  Name = 5288217
REMARK  5 active torsions:
REMARK  status: ('A' for Active; 'I' for Inactive)
REMARK    1  A    between atoms: C_7  and  C_14
REMARK    2  A    between atoms: C_8  and  O_24
REMARK    3  A    between atoms: C_11  and  O_26
REMARK    4  A    between atoms: C_15  and  O_20
REMARK    5  A    between atoms: C_19  and  O_22
REMARK                            x       y       z     vdW  Elec       q    Type
REMARK                         _______ _______ _______ _____ _____    ______ ____
ROOT
ATOM      1  O   UNL     1      34.065 -18.559 -21.206  0.00  0.00    -0.450 OA
ATOM      2  O   UNL     1      37.562 -19.112 -21.195  0.00  0.00    -0.283 OA
ATOM      3  C   UNL     1      35.540 -20.160 -20.434  0.00  0.00    +0.110 C 
ATOM      4  C   UNL     1      34.210 -19.757 -20.545  0.00  0.00    +0.155 C 
ATOM      5  C   UNL     1      35.352 -18.156 -21.543  0.00  0.00    +0.184 C 
ATOM      6  C   UNL     1      36.358 -19.140 -21.077  0.00  0.00    +0.236 C 
ATOM      7  C   UNL     1      35.646 -17.033 -22.200  0.00  0.00    +0.044 C 
ATOM      8  C   UNL     1      35.908 -21.332 -19.807  0.00  0.00    +0.143 C 
ATOM      9  C   UNL     1      33.186 -20.521 -20.029  0.00  0.00    +0.074 C 
ATOM     10  C   UNL     1      34.880 -22.117 -19.278  0.00  0.00    +0.073 C 
ATOM     11  C   UNL     1      33.532 -21.716 -19.389  0.00  0.00    +0.140 C 
ENDROOT
BRANCH   7  14
ATOM     12 BR   UNL     1      33.118 -14.736 -26.313  0.00  0.00    -0.043 Br
ATOM     13 BR   UNL     1      32.258 -13.201 -20.860  0.00  0.00    -0.046 Br
ATOM     14  C   UNL     1      34.676 -16.031 -22.678  0.00  0.00    +0.038 C 
ATOM     15  C   UNL     1      34.413 -15.894 -24.033  0.00  0.00    +0.143 C 
ATOM     16  C   UNL     1      34.039 -15.236 -21.739  0.00  0.00    +0.013 C 
ATOM     17  C   UNL     1      33.491 -14.938 -24.457  0.00  0.00    +0.102 C 
ATOM     18  C   UNL     1      33.117 -14.279 -22.163  0.00  0.00    +0.069 C 
ATOM     19  C   UNL     1      32.843 -14.130 -23.523  0.00  0.00    +0.149 C 
BRANCH  15  20
ATOM     20  O   UNL     1      35.054 -16.689 -24.940  0.00  0.00    -0.505 OA
ATOM     21  H   UNL     1      35.763 -17.237 -24.666  0.00  0.00    +0.292 HD
ENDBRANCH  15  20
BRANCH  19  22
ATOM     22  O   UNL     1      31.939 -13.192 -23.935  0.00  0.00    -0.504 OA
ATOM     23  H   UNL     1      32.042 -12.298 -23.674  0.00  0.00    +0.292 HD
ENDBRANCH  19  22
ENDBRANCH   7  14
BRANCH   8  24
ATOM     24  O   UNL     1      37.201 -21.720 -19.702  0.00  0.00    -0.505 OA
ATOM     25  H   UNL     1      37.793 -21.572 -20.413  0.00  0.00    +0.292 HD
ENDBRANCH   8  24
BRANCH  11  26
ATOM     26  O   UNL     1      32.554 -22.505 -18.863  0.00  0.00    -0.505 OA
ATOM     27  H   UNL     1      32.268 -23.269 -19.324  0.00  0.00    +0.292 HD
ENDBRANCH  11  26
TORSDOF 5
ENDMDL
MODEL 4
REMARK VINA RESULT:     -10.2      3.029      5.147
REMARK  Name = 5288217
REMARK  5 active torsions:
REMARK  status: ('A' for Active; 'I' for Inactive)
REMARK    1  A    between atoms: C_7  and  C_14
REMARK    2  A    between atoms: C_8  and  O_24
REMARK    3  A    between atoms: C_11  and  O_26
REMARK    4  A    between atoms: C_15  and  O_20
REMARK    5  A    between atoms: C_19  and  O_22
REMARK                            x       y       z     vdW  Elec       q    Type
REMARK                         _______ _______ _______ _____ _____    ______ ____
ROOT
ATOM      1  O   UNL     1      34.002 -18.494 -21.148  0.00  0.00    -0.450 OA
ATOM      2  O   UNL     1      37.487 -19.098 -21.312  0.00  0.00    -0.283 OA
ATOM      3  C   UNL     1      35.486 -20.135 -20.483  0.00  0.00    +0.110 C 
ATOM      4  C   UNL     1      34.159 -19.711 -20.523  0.00  0.00    +0.155 C 
ATOM      5  C   UNL     1      35.278 -18.102 -21.534  0.00  0.00    +0.184 C 
ATOM      6  C   UNL     1      36.289 -19.112 -21.139  0.00  0.00    +0.236 C 
ATOM      7  C   UNL     1      35.559 -16.968 -22.177  0.00  0.00    +0.044 C 
ATOM      8  C   UNL     1      35.864 -21.327 -19.902  0.00  0.00    +0.143 C 
ATOM      9  C   UNL     1      33.148 -20.473 -19.978  0.00  0.00    +0.074 C 
ATOM     10  C   UNL     1      34.850 -22.110 -19.345  0.00  0.00    +0.073 C 
ATOM     11  C   UNL     1      33.505 -21.687 -19.384  0.00  0.00    +0.140 C 
ENDROOT
BRANCH   7  14
ATOM     12 BR   UNL     1      32.190 -13.063 -20.766  0.00  0.00    -0.043 Br
ATOM     13 BR   UNL     1      33.010 -14.675 -26.204  0.00  0.00    -0.046 Br
ATOM     14  C   UNL     1      34.583 -15.941 -22.586  0.00  0.00    +0.038 C 
ATOM     15  C   UNL     1      33.966 -15.137 -21.639  0.00  0.00    +0.143 C 
ATOM     16  C   UNL     1      34.301 -15.805 -23.936  0.00  0.00    +0.013 C 
ATOM     17  C   UNL     1      33.046 -14.174 -22.053  0.00  0.00    +0.102 C 
ATOM     18  C   UNL     1      33.381 -14.842 -24.351  0.00  0.00    +0.069 C 
ATOM     19  C   UNL     1      32.753 -14.027 -23.409  0.00  0.00    +0.149 C 
BRANCH  15  20
ATOM     20  O   UNL     1      34.258 -15.291 -20.314  0.00  0.00    -0.505 OA
ATOM     21  H   UNL     1      35.119 -15.093 -19.997  0.00  0.00    +0.292 HD
ENDBRANCH  15  20
BRANCH  19  22
ATOM     22  O   UNL     1      31.852 -13.085 -23.819  0.00  0.00    -0.504 OA
ATOM     23  H   UNL     1      32.151 -12.238 -24.086  0.00  0.00    +0.292 HD
ENDBRANCH  19  22
ENDBRANCH   7  14
BRANCH   8  24
ATOM     24  O   UNL     1      37.155 -21.736 -19.866  0.00  0.00    -0.505 OA
ATOM     25  H   UNL     1      37.847 -21.103 -19.879  0.00  0.00    +0.292 HD
ENDBRANCH   8  24
BRANCH  11  26
ATOM     26  O   UNL     1      32.540 -22.475 -18.831  0.00  0.00    -0.505 OA
ATOM     27  H   UNL     1      32.451 -22.524 -17.900  0.00  0.00    +0.292 HD
ENDBRANCH  11  26
TORSDOF 5
ENDMDL
MODEL 5
REMARK VINA RESULT:     -10.0      9.265     13.350
REMARK  Name = 5288217
REMARK  5 active torsions:
REMARK  status: ('A' for Active; 'I' for Inactive)
REMARK    1  A    between atoms: C_7  and  C_14
REMARK    2  A    between atoms: C_8  and  O_24
REMARK    3  A    between atoms: C_11  and  O_26
REMARK    4  A    between atoms: C_15  and  O_20
REMARK    5  A    between atoms: C_19  and  O_22
REMARK                            x       y       z     vdW  Elec       q    Type
REMARK                         _______ _______ _______ _____ _____    ______ ____
ROOT
ATOM      1  O   UNL     1      35.780 -22.627 -17.023  0.00  0.00    -0.450 OA
ATOM      2  O   UNL     1      32.363 -23.116 -17.810  0.00  0.00    -0.283 OA
ATOM      3  C   UNL     1      34.296 -21.981 -18.672  0.00  0.00    +0.110 C 
ATOM      4  C   UNL     1      35.601 -21.914 -18.187  0.00  0.00    +0.155 C 
ATOM      5  C   UNL     1      34.542 -23.186 -16.730  0.00  0.00    +0.184 C 
ATOM      6  C   UNL     1      33.533 -22.813 -17.750  0.00  0.00    +0.236 C 
ATOM      7  C   UNL     1      34.291 -23.957 -15.671  0.00  0.00    +0.044 C 
ATOM      8  C   UNL     1      33.901 -21.338 -19.825  0.00  0.00    +0.143 C 
ATOM      9  C   UNL     1      36.572 -21.193 -18.848  0.00  0.00    +0.074 C 
ATOM     10  C   UNL     1      34.875 -20.603 -20.506  0.00  0.00    +0.073 C 
ATOM     11  C   UNL     1      36.197 -20.532 -20.022  0.00  0.00    +0.140 C 
ENDROOT
BRANCH   7  14
ATOM     12 BR   UNL     1      35.499 -24.409 -10.482  0.00  0.00    -0.043 Br
ATOM     13 BR   UNL     1      39.101 -25.917 -14.676  0.00  0.00    -0.046 Br
ATOM     14  C   UNL     1      35.267 -24.349 -14.637  0.00  0.00    +0.038 C 
ATOM     15  C   UNL     1      34.961 -24.212 -13.291  0.00  0.00    +0.143 C 
ATOM     16  C   UNL     1      36.490 -24.853 -15.047  0.00  0.00    +0.013 C 
ATOM     17  C   UNL     1      35.902 -24.590 -12.334  0.00  0.00    +0.102 C 
ATOM     18  C   UNL     1      37.432 -25.231 -14.090  0.00  0.00    +0.069 C 
ATOM     19  C   UNL     1      37.138 -25.099 -12.733  0.00  0.00    +0.149 C 
BRANCH  15  20
ATOM     20  O   UNL     1      33.748 -23.711 -12.910  0.00  0.00    -0.505 OA
ATOM     21  H   UNL     1      33.506 -23.709 -12.004  0.00  0.00    +0.292 HD
ENDBRANCH  15  20
BRANCH  19  22
ATOM     22  O   UNL     1      38.063 -25.469 -11.798  0.00  0.00    -0.504 OA
ATOM     23  H   UNL     1      38.954 -25.191 -11.886  0.00  0.00    +0.292 HD
ENDBRANCH  19  22
ENDBRANCH   7  14
BRANCH   8  24
ATOM     24  O   UNL     1      32.631 -21.406 -20.293  0.00  0.00    -0.505 OA
ATOM     25  H   UNL     1      32.411 -22.025 -20.961  0.00  0.00    +0.292 HD
ENDBRANCH   8  24
BRANCH  11  26
ATOM     26  O   UNL     1      37.124 -19.807 -20.710  0.00  0.00    -0.505 OA
ATOM     27  H   UNL     1      37.039 -18.876 -20.772  0.00  0.00    +0.292 HD
ENDBRANCH  11  26
TORSDOF 5
ENDMDL
MODEL 6
REMARK VINA RESULT:      -9.3      5.271      9.324
REMARK  Name = 5288217
REMARK  5 active torsions:
REMARK  status: ('A' for Active; 'I' for Inactive)
REMARK    1  A    between atoms: C_7  and  C_14
REMARK    2  A    between atoms: C_8  and  O_24
REMARK    3  A    between atoms: C_11  and  O_26
REMARK    4  A    between atoms: C_15  and  O_20
REMARK    5  A    between atoms: C_19  and  O_22
REMARK                            x       y       z     vdW  Elec       q    Type
REMARK                         _______ _______ _______ _____ _____    ______ ____
ROOT
ATOM      1  O   UNL     1      34.815 -18.674 -20.464  0.00  0.00    -0.450 OA
ATOM      2  O   UNL     1      35.326 -19.823 -23.774  0.00  0.00    -0.283 OA
ATOM      3  C   UNL     1      34.939 -17.771 -22.587  0.00  0.00    +0.110 C 
ATOM      4  C   UNL     1      34.756 -17.529 -21.227  0.00  0.00    +0.155 C 
ATOM      5  C   UNL     1      35.044 -19.712 -21.360  0.00  0.00    +0.184 C 
ATOM      6  C   UNL     1      35.136 -19.206 -22.750  0.00  0.00    +0.236 C 
ATOM      7  C   UNL     1      35.167 -20.995 -21.017  0.00  0.00    +0.044 C 
ATOM      8  C   UNL     1      34.918 -16.763 -23.528  0.00  0.00    +0.143 C 
ATOM      9  C   UNL     1      34.545 -16.254 -20.750  0.00  0.00    +0.074 C 
ATOM     10  C   UNL     1      34.704 -15.465 -23.059  0.00  0.00    +0.073 C 
ATOM     11  C   UNL     1      34.520 -15.213 -21.683  0.00  0.00    +0.140 C 
ENDROOT
BRANCH   7  14
ATOM     12 BR   UNL     1      32.181 -23.186 -17.160  0.00  0.00    -0.043 Br
ATOM     13 BR   UNL     1      37.764 -22.056 -16.534  0.00  0.00    -0.046 Br
ATOM     14  C   UNL     1      35.081 -21.535 -19.647  0.00  0.00    +0.038 C 
ATOM     15  C   UNL     1      33.878 -22.016 -19.153  0.00  0.00    +0.143 C 
ATOM     16  C   UNL     1      36.231 -21.547 -18.874  0.00  0.00    +0.013 C 
ATOM     17  C   UNL     1      33.825 -22.521 -17.854  0.00  0.00    +0.102 C 
ATOM     18  C   UNL     1      36.177 -22.052 -17.575  0.00  0.00    +0.069 C 
ATOM     19  C   UNL     1      34.974 -22.539 -17.065  0.00  0.00    +0.149 C 
BRANCH  15  20
ATOM     20  O   UNL     1      32.757 -21.994 -19.933  0.00  0.00    -0.505 OA
ATOM     21  H   UNL     1      32.084 -21.361 -19.770  0.00  0.00    +0.292 HD
ENDBRANCH  15  20
BRANCH  19  22
ATOM     22  O   UNL     1      34.926 -23.032 -15.791  0.00  0.00    -0.504 OA
ATOM     23  H   UNL     1      35.450 -23.773 -15.557  0.00  0.00    +0.292 HD
ENDBRANCH  19  22
ENDBRANCH   7  14
BRANCH   8  24
ATOM     24  O   UNL     1      35.096 -17.003 -24.849  0.00  0.00    -0.505 OA
ATOM     25  H   UNL     1      35.955 -16.961 -25.220  0.00  0.00    +0.292 HD
ENDBRANCH   8  24
BRANCH  11  26
ATOM     26  O   UNL     1      34.314 -13.934 -21.259  0.00  0.00    -0.505 OA
ATOM     27  H   UNL     1      33.468 -13.671 -20.955  0.00  0.00    +0.292 HD
ENDBRANCH  11  26
TORSDOF 5
ENDMDL
MODEL 7
REMARK VINA RESULT:      -9.2      9.451     13.357
REMARK  Name = 5288217
REMARK  5 active torsions:
REMARK  status: ('A' for Active; 'I' for Inactive)
REMARK    1  A    between atoms: C_7  and  C_14
REMARK    2  A    between atoms: C_8  and  O_24
REMARK    3  A    between atoms: C_11  and  O_26
REMARK    4  A    between atoms: C_15  and  O_20
REMARK    5  A    between atoms: C_19  and  O_22
REMARK                            x       y       z     vdW  Elec       q    Type
REMARK                         _______ _______ _______ _____ _____    ______ ____
ROOT
ATOM      1  O   UNL     1      35.917 -22.667 -16.744  0.00  0.00    -0.450 OA
ATOM      2  O   UNL     1      32.559 -23.455 -17.545  0.00  0.00    -0.283 OA
ATOM      3  C   UNL     1      34.407 -22.200 -18.429  0.00  0.00    +0.110 C 
ATOM      4  C   UNL     1      35.696 -22.013 -17.935  0.00  0.00    +0.155 C 
ATOM      5  C   UNL     1      34.723 -23.312 -16.442  0.00  0.00    +0.184 C 
ATOM      6  C   UNL     1      33.701 -23.057 -17.485  0.00  0.00    +0.236 C 
ATOM      7  C   UNL     1      34.521 -24.063 -15.358  0.00  0.00    +0.044 C 
ATOM      8  C   UNL     1      33.976 -21.633 -19.609  0.00  0.00    +0.143 C 
ATOM      9  C   UNL     1      36.616 -21.242 -18.612  0.00  0.00    +0.074 C 
ATOM     10  C   UNL     1      34.898 -20.847 -20.307  0.00  0.00    +0.073 C 
ATOM     11  C   UNL     1      36.205 -20.655 -19.813  0.00  0.00    +0.140 C 
ENDROOT
BRANCH   7  14
ATOM     12 BR   UNL     1      39.448 -25.660 -14.032  0.00  0.00    -0.043 Br
ATOM     13 BR   UNL     1      35.514 -24.110 -10.165  0.00  0.00    -0.046 Br
ATOM     14  C   UNL     1      35.511 -24.339 -14.301  0.00  0.00    +0.038 C 
ATOM     15  C   UNL     1      36.782 -24.788 -14.625  0.00  0.00    +0.143 C 
ATOM     16  C   UNL     1      35.135 -24.137 -12.983  0.00  0.00    +0.013 C 
ATOM     17  C   UNL     1      37.699 -25.042 -13.604  0.00  0.00    +0.102 C 
ATOM     18  C   UNL     1      36.052 -24.391 -11.962  0.00  0.00    +0.069 C 
ATOM     19  C   UNL     1      37.334 -24.844 -12.274  0.00  0.00    +0.149 C 
BRANCH  15  20
ATOM     20  O   UNL     1      37.130 -24.981 -15.932  0.00  0.00    -0.505 OA
ATOM     21  H   UNL     1      37.768 -24.424 -16.334  0.00  0.00    +0.292 HD
ENDBRANCH  15  20
BRANCH  19  22
ATOM     22  O   UNL     1      38.229 -25.092 -11.271  0.00  0.00    -0.504 OA
ATOM     23  H   UNL     1      39.129 -25.252 -11.477  0.00  0.00    +0.292 HD
ENDBRANCH  19  22
ENDBRANCH   7  14
BRANCH   8  24
ATOM     24  O   UNL     1      32.722 -21.818 -20.086  0.00  0.00    -0.505 OA
ATOM     25  H   UNL     1      32.107 -22.330 -19.598  0.00  0.00    +0.292 HD
ENDBRANCH   8  24
BRANCH  11  26
ATOM     26  O   UNL     1      37.079 -19.883 -20.519  0.00  0.00    -0.505 OA
ATOM     27  H   UNL     1      37.963 -20.170 -20.643  0.00  0.00    +0.292 HD
ENDBRANCH  11  26
TORSDOF 5
ENDMDL
MODEL 8
REMARK VINA RESULT:      -8.7     11.967     14.510
REMARK  Name = 5288217
REMARK  5 active torsions:
REMARK  status: ('A' for Active; 'I' for Inactive)
REMARK    1  A    between atoms: C_7  and  C_14
REMARK    2  A    between atoms: C_8  and  O_24
REMARK    3  A    between atoms: C_11  and  O_26
REMARK    4  A    between atoms: C_15  and  O_20
REMARK    5  A    between atoms: C_19  and  O_22
REMARK                            x       y       z     vdW  Elec       q    Type
REMARK                         _______ _______ _______ _____ _____    ______ ____
ROOT
ATOM      1  O   UNL     1      32.688 -23.735 -15.463  0.00  0.00    -0.450 OA
ATOM      2  O   UNL     1      31.353 -25.743 -12.871  0.00  0.00    -0.283 OA
ATOM      3  C   UNL     1      30.604 -24.362 -14.687  0.00  0.00    +0.110 C 
ATOM      4  C   UNL     1      31.325 -23.628 -15.628  0.00  0.00    +0.155 C 
ATOM      5  C   UNL     1      32.871 -24.572 -14.369  0.00  0.00    +0.184 C 
ATOM      6  C   UNL     1      31.570 -25.018 -13.815  0.00  0.00    +0.236 C 
ATOM      7  C   UNL     1      34.058 -24.931 -13.880  0.00  0.00    +0.044 C 
ATOM      8  C   UNL     1      29.226 -24.394 -14.672  0.00  0.00    +0.143 C 
ATOM      9  C   UNL     1      30.687 -22.891 -16.602  0.00  0.00    +0.074 C 
ATOM     10  C   UNL     1      28.565 -23.650 -15.653  0.00  0.00    +0.073 C 
ATOM     11  C   UNL     1      29.288 -22.907 -16.609  0.00  0.00    +0.140 C 
ENDROOT
BRANCH   7  14
ATOM     12 BR   UNL     1      39.380 -25.441 -13.787  0.00  0.00    -0.043 Br
ATOM     13 BR   UNL     1      36.649 -21.762 -17.228  0.00  0.00    -0.046 Br
ATOM     14  C   UNL     1      35.371 -24.509 -14.403  0.00  0.00    +0.038 C 
ATOM     15  C   UNL     1      36.539 -25.082 -13.923  0.00  0.00    +0.143 C 
ATOM     16  C   UNL     1      35.402 -23.527 -15.380  0.00  0.00    +0.013 C 
ATOM     17  C   UNL     1      37.767 -24.664 -14.435  0.00  0.00    +0.102 C 
ATOM     18  C   UNL     1      36.631 -23.108 -15.892  0.00  0.00    +0.069 C 
ATOM     19  C   UNL     1      37.813 -23.677 -15.418  0.00  0.00    +0.149 C 
BRANCH  15  20
ATOM     20  O   UNL     1      36.484 -26.048 -12.958  0.00  0.00    -0.505 OA
ATOM     21  H   UNL     1      37.028 -26.809 -13.024  0.00  0.00    +0.292 HD
ENDBRANCH  15  20
BRANCH  19  22
ATOM     22  O   UNL     1      39.015 -23.263 -15.922  0.00  0.00    -0.504 OA
ATOM     23  H   UNL     1      39.198 -22.348 -16.001  0.00  0.00    +0.292 HD
ENDBRANCH  19  22
ENDBRANCH   7  14
BRANCH   8  24
ATOM     24  O   UNL     1      28.529 -25.109 -13.756  0.00  0.00    -0.505 OA
ATOM     25  H   UNL     1      28.985 -25.609 -13.108  0.00  0.00    +0.292 HD
ENDBRANCH   8  24
BRANCH  11  26
ATOM     26  O   UNL     1      28.612 -22.194 -17.553  0.00  0.00    -0.505 OA
ATOM     27  H   UNL     1      28.813 -22.309 -18.461  0.00  0.00    +0.292 HD
ENDBRANCH  11  26
TORSDOF 5
ENDMDL
MODEL 9
REMARK VINA RESULT:      -8.6      5.265      9.135
REMARK  Name = 5288217
REMARK  5 active torsions:
REMARK  status: ('A' for Active; 'I' for Inactive)
REMARK    1  A    between atoms: C_7  and  C_14
REMARK    2  A    between atoms: C_8  and  O_24
REMARK    3  A    between atoms: C_11  and  O_26
REMARK    4  A    between atoms: C_15  and  O_20
REMARK    5  A    between atoms: C_19  and  O_22
REMARK                            x       y       z     vdW  Elec       q    Type
REMARK                         _______ _______ _______ _____ _____    ______ ____
ROOT
ATOM      1  O   UNL     1      34.750 -18.686 -20.497  0.00  0.00    -0.450 OA
ATOM      2  O   UNL     1      34.935 -19.884 -23.824  0.00  0.00    -0.283 OA
ATOM      3  C   UNL     1      34.772 -17.805 -22.633  0.00  0.00    +0.110 C 
ATOM      4  C   UNL     1      34.708 -17.544 -21.265  0.00  0.00    +0.155 C 
ATOM      5  C   UNL     1      34.843 -19.741 -21.397  0.00  0.00    +0.184 C 
ATOM      6  C   UNL     1      34.863 -19.250 -22.795  0.00  0.00    +0.236 C 
ATOM      7  C   UNL     1      34.908 -21.028 -21.050  0.00  0.00    +0.044 C 
ATOM      8  C   UNL     1      34.745 -16.803 -23.579  0.00  0.00    +0.143 C 
ATOM      9  C   UNL     1      34.617 -16.255 -20.787  0.00  0.00    +0.074 C 
ATOM     10  C   UNL     1      34.651 -15.490 -23.109  0.00  0.00    +0.073 C 
ATOM     11  C   UNL     1      34.588 -15.220 -21.727  0.00  0.00    +0.140 C 
ENDROOT
BRANCH   7  14
ATOM     12 BR   UNL     1      37.587 -22.124 -16.555  0.00  0.00    -0.043 Br
ATOM     13 BR   UNL     1      31.988 -23.160 -17.192  0.00  0.00    -0.046 Br
ATOM     14  C   UNL     1      34.891 -21.554 -19.673  0.00  0.00    +0.038 C 
ATOM     15  C   UNL     1      36.050 -21.579 -18.912  0.00  0.00    +0.143 C 
ATOM     16  C   UNL     1      33.689 -22.021 -19.165  0.00  0.00    +0.013 C 
ATOM     17  C   UNL     1      36.005 -22.083 -17.612  0.00  0.00    +0.102 C 
ATOM     18  C   UNL     1      33.644 -22.525 -17.865  0.00  0.00    +0.069 C 
ATOM     19  C   UNL     1      34.802 -22.556 -17.089  0.00  0.00    +0.149 C 
BRANCH  15  20
ATOM     20  O   UNL     1      37.224 -21.115 -19.435  0.00  0.00    -0.505 OA
ATOM     21  H   UNL     1      38.007 -21.625 -19.356  0.00  0.00    +0.292 HD
ENDBRANCH  15  20
BRANCH  19  22
ATOM     22  O   UNL     1      34.754 -23.051 -15.816  0.00  0.00    -0.504 OA
ATOM     23  H   UNL     1      34.910 -23.962 -15.663  0.00  0.00    +0.292 HD
ENDBRANCH  19  22
ENDBRANCH   7  14
BRANCH   8  24
ATOM     24  O   UNL     1      34.807 -17.061 -24.908  0.00  0.00    -0.505 OA
ATOM     25  H   UNL     1      35.542 -17.523 -25.261  0.00  0.00    +0.292 HD
ENDBRANCH   8  24
BRANCH  11  26
ATOM     26  O   UNL     1      34.498 -13.928 -21.302  0.00  0.00    -0.505 OA
ATOM     27  H   UNL     1      34.976 -13.648 -20.546  0.00  0.00    +0.292 HD
ENDBRANCH  11  26
TORSDOF 5
ENDMDL
