MODEL 1
REMARK VINA RESULT:     -10.3      0.000      0.000
REMARK  Name = 71857
REMARK  9 active torsions:
REMARK  status: ('A' for Active; 'I' for Inactive)
REMARK    1  A    between atoms: N_1  and  C_4
REMARK    2  A    between atoms: N_1  and  C_19
REMARK    3  A    between atoms: C_4  and  C_5
REMARK    4  A    between atoms: C_5  and  N_8
REMARK    5  A    between atoms: C_19  and  C_20
REMARK    6  A    between atoms: C_20  and  C_21
REMARK    7  A    between atoms: C_20  and  O_31
REMARK    8  A    between atoms: C_24  and  O_27
REMARK    9  A    between atoms: C_26  and  O_29
REMARK                            x       y       z     vdW  Elec       q    Type
REMARK                         _______ _______ _______ _____ _____    ______ ____
ROOT
ATOM      1  N   UNL     1      35.966 -20.146 -20.117  0.00  0.00    +0.387 N 
ATOM      2  H   UNL     1      36.882 -20.288 -20.542  0.00  0.00    -0.084 HD
ATOM      3  H   UNL     1      36.050 -19.595 -19.263  0.00  0.00    -0.084 HD
ENDROOT
BRANCH   1   4
ATOM      4  C   UNL     1      35.390 -21.442 -19.780  0.00  0.00    -0.064 C 
BRANCH   4   5
ATOM      5  C   UNL     1      35.961 -21.942 -18.456  0.00  0.00    +0.051 C 
BRANCH   5   8
ATOM      6  O   UNL     1      37.267 -22.393 -15.743  0.00  0.00    -0.272 OA
ATOM      7  O   UNL     1      34.396 -24.353 -12.590  0.00  0.00    -0.252 OA
ATOM      8  N   UNL     1      34.945 -22.543 -17.624  0.00  0.00    -0.242 NA
ATOM      9  N   UNL     1      33.563 -23.936 -14.722  0.00  0.00    -0.228 N 
ATOM     10  N   UNL     1      35.848 -23.375 -14.146  0.00  0.00    -0.211 N 
ATOM     11  N   UNL     1      32.963 -23.381 -17.043  0.00  0.00    -0.240 NA
ATOM     12  C   UNL     1      35.060 -22.928 -16.319  0.00  0.00    +0.192 C 
ATOM     13  C   UNL     1      33.834 -23.437 -15.989  0.00  0.00    +0.136 C 
ATOM     14  C   UNL     1      36.172 -22.853 -15.427  0.00  0.00    +0.254 C 
ATOM     15  C   UNL     1      33.665 -22.837 -18.016  0.00  0.00    +0.203 C 
ATOM     16  C   UNL     1      34.580 -23.923 -13.734  0.00  0.00    +0.318 C 
ATOM     17  C   UNL     1      32.244 -24.471 -14.410  0.00  0.00    +0.123 C 
ATOM     18  C   UNL     1      36.908 -23.352 -13.144  0.00  0.00    +0.124 C 
ENDBRANCH   5   8
ENDBRANCH   4   5
ENDBRANCH   1   4
BRANCH   1  19
ATOM     19  C   UNL     1      35.113 -19.426 -21.052  0.00  0.00    -0.047 C 
BRANCH  19  20
ATOM     20  C   UNL     1      35.723 -18.066 -21.412  0.00  0.00    +0.112 C 
BRANCH  20  21
ATOM     21  C   UNL     1      35.174 -17.542 -22.721  0.00  0.00    +0.005 C 
ATOM     22  C   UNL     1      34.834 -16.204 -22.824  0.00  0.00    +0.038 C 
ATOM     23  C   UNL     1      35.023 -18.411 -23.787  0.00  0.00    +0.001 C 
ATOM     24  C   UNL     1      34.328 -15.721 -24.031  0.00  0.00    +0.167 C 
ATOM     25  C   UNL     1      34.517 -17.929 -24.994  0.00  0.00    +0.040 C 
ATOM     26  C   UNL     1      34.169 -16.584 -25.115  0.00  0.00    +0.167 C 
BRANCH  24  27
ATOM     27  O   UNL     1      33.993 -14.405 -24.138  0.00  0.00    -0.503 OA
ATOM     28  H   UNL     1      34.596 -13.797 -24.518  0.00  0.00    +0.292 HD
ENDBRANCH  24  27
BRANCH  26  29
ATOM     29  O   UNL     1      33.677 -16.123 -26.299  0.00  0.00    -0.503 OA
ATOM     30  H   UNL     1      34.234 -15.655 -26.888  0.00  0.00    +0.292 HD
ENDBRANCH  26  29
ENDBRANCH  20  21
BRANCH  20  31
ATOM     31  O   UNL     1      35.436 -17.109 -20.393  0.00  0.00    -0.382 OA
ATOM     32  H   UNL     1      34.975 -17.546 -19.660  0.00  0.00    +0.211 HD
ENDBRANCH  20  31
ENDBRANCH  19  20
ENDBRANCH   1  19
TORSDOF 9
ENDMDL
MODEL 2
REMARK VINA RESULT:     -10.1      1.464      2.454
REMARK  Name = 71857
REMARK  9 active torsions:
REMARK  status: ('A' for Active; 'I' for Inactive)
REMARK    1  A    between atoms: N_1  and  C_4
REMARK    2  A    between atoms: N_1  and  C_19
REMARK    3  A    between atoms: C_4  and  C_5
REMARK    4  A    between atoms: C_5  and  N_8
REMARK    5  A    between atoms: C_19  and  C_20
REMARK    6  A    between atoms: C_20  and  C_21
REMARK    7  A    between atoms: C_20  and  O_31
REMARK    8  A    between atoms: C_24  and  O_27
REMARK    9  A    between atoms: C_26  and  O_29
REMARK                            x       y       z     vdW  Elec       q    Type
REMARK                         _______ _______ _______ _____ _____    ______ ____
ROOT
ATOM      1  N   UNL     1      36.469 -20.250 -19.414  0.00  0.00    +0.387 N 
ATOM      2  H   UNL     1      37.360 -19.837 -19.139  0.00  0.00    -0.084 HD
ATOM      3  H   UNL     1      35.709 -19.865 -18.852  0.00  0.00    -0.084 HD
ENDROOT
BRANCH   1   4
ATOM      4  C   UNL     1      36.524 -21.691 -19.198  0.00  0.00    -0.064 C 
BRANCH   4   5
ATOM      5  C   UNL     1      35.454 -22.114 -18.195  0.00  0.00    +0.051 C 
BRANCH   5   8
ATOM      6  O   UNL     1      33.187 -23.332 -16.569  0.00  0.00    -0.272 OA
ATOM      7  O   UNL     1      34.457 -24.557 -12.220  0.00  0.00    -0.252 OA
ATOM      8  N   UNL     1      36.019 -22.426 -16.904  0.00  0.00    -0.242 NA
ATOM      9  N   UNL     1      36.066 -23.607 -13.606  0.00  0.00    -0.228 N 
ATOM     10  N   UNL     1      33.799 -23.953 -14.386  0.00  0.00    -0.211 N 
ATOM     11  N   UNL     1      37.546 -22.587 -15.288  0.00  0.00    -0.240 NA
ATOM     12  C   UNL     1      35.385 -22.990 -15.834  0.00  0.00    +0.192 C 
ATOM     13  C   UNL     1      36.341 -23.077 -14.860  0.00  0.00    +0.136 C 
ATOM     14  C   UNL     1      34.033 -23.421 -15.682  0.00  0.00    +0.254 C 
ATOM     15  C   UNL     1      37.317 -22.201 -16.526  0.00  0.00    +0.203 C 
ATOM     16  C   UNL     1      34.759 -24.074 -13.317  0.00  0.00    +0.318 C 
ATOM     17  C   UNL     1      37.113 -23.682 -12.595  0.00  0.00    +0.123 C 
ATOM     18  C   UNL     1      32.447 -24.429 -14.108  0.00  0.00    +0.124 C 
ENDBRANCH   5   8
ENDBRANCH   4   5
ENDBRANCH   1   4
BRANCH   1  19
ATOM     19  C   UNL     1      36.213 -19.944 -20.814  0.00  0.00    -0.047 C 
BRANCH  19  20
ATOM     20  C   UNL     1      34.873 -19.216 -20.978  0.00  0.00    +0.112 C 
BRANCH  20  21
ATOM     21  C   UNL     1      34.808 -18.464 -22.289  0.00  0.00    +0.005 C 
ATOM     22  C   UNL     1      34.904 -17.083 -22.282  0.00  0.00    +0.038 C 
ATOM     23  C   UNL     1      34.652 -19.173 -23.467  0.00  0.00    +0.001 C 
ATOM     24  C   UNL     1      34.843 -16.390 -23.491  0.00  0.00    +0.167 C 
ATOM     25  C   UNL     1      34.592 -18.481 -24.677  0.00  0.00    +0.040 C 
ATOM     26  C   UNL     1      34.687 -17.090 -24.688  0.00  0.00    +0.167 C 
BRANCH  24  27
ATOM     27  O   UNL     1      34.938 -15.032 -23.490  0.00  0.00    -0.503 OA
ATOM     28  H   UNL     1      35.394 -14.593 -24.181  0.00  0.00    +0.292 HD
ENDBRANCH  24  27
BRANCH  26  29
ATOM     29  O   UNL     1      34.628 -16.423 -25.875  0.00  0.00    -0.503 OA
ATOM     30  H   UNL     1      33.815 -16.065 -26.172  0.00  0.00    +0.292 HD
ENDBRANCH  26  29
ENDBRANCH  20  21
BRANCH  20  31
ATOM     31  O   UNL     1      33.795 -20.149 -20.945  0.00  0.00    -0.382 OA
ATOM     32  H   UNL     1      33.432 -20.193 -20.046  0.00  0.00    +0.211 HD
ENDBRANCH  20  31
ENDBRANCH  19  20
ENDBRANCH   1  19
TORSDOF 9
ENDMDL
MODEL 3
REMARK VINA RESULT:      -9.9      5.628     11.168
REMARK  Name = 71857
REMARK  9 active torsions:
REMARK  status: ('A' for Active; 'I' for Inactive)
REMARK    1  A    between atoms: N_1  and  C_4
REMARK    2  A    between atoms: N_1  and  C_19
REMARK    3  A    between atoms: C_4  and  C_5
REMARK    4  A    between atoms: C_5  and  N_8
REMARK    5  A    between atoms: C_19  and  C_20
REMARK    6  A    between atoms: C_20  and  C_21
REMARK    7  A    between atoms: C_20  and  O_31
REMARK    8  A    between atoms: C_24  and  O_27
REMARK    9  A    between atoms: C_26  and  O_29
REMARK                            x       y       z     vdW  Elec       q    Type
REMARK                         _______ _______ _______ _____ _____    ______ ____
ROOT
ATOM      1  N   UNL     1      35.206 -16.249 -23.902  0.00  0.00    +0.387 N 
ATOM      2  H   UNL     1      36.221 -16.205 -23.808  0.00  0.00    -0.084 HD
ATOM      3  H   UNL     1      34.938 -16.209 -24.886  0.00  0.00    -0.084 HD
ENDROOT
BRANCH   1   4
ATOM      4  C   UNL     1      34.612 -15.112 -23.210  0.00  0.00    -0.064 C 
BRANCH   4   5
ATOM      5  C   UNL     1      33.441 -14.558 -24.017  0.00  0.00    +0.051 C 
BRANCH   5   8
ATOM      6  O   UNL     1      31.933 -13.527 -21.582  0.00  0.00    -0.272 OA
ATOM      7  O   UNL     1      31.738  -8.844 -21.350  0.00  0.00    -0.252 OA
ATOM      8  N   UNL     1      33.482 -13.118 -24.108  0.00  0.00    -0.242 NA
ATOM      9  N   UNL     1      32.854  -9.808 -23.150  0.00  0.00    -0.228 N 
ATOM     10  N   UNL     1      31.822 -11.183 -21.444  0.00  0.00    -0.211 N 
ATOM     11  N   UNL     1      33.961 -11.101 -24.928  0.00  0.00    -0.240 NA
ATOM     12  C   UNL     1      32.939 -12.214 -23.241  0.00  0.00    +0.192 C 
ATOM     13  C   UNL     1      33.246 -10.989 -23.765  0.00  0.00    +0.136 C 
ATOM     14  C   UNL     1      32.201 -12.417 -22.036  0.00  0.00    +0.254 C 
ATOM     15  C   UNL     1      34.085 -12.400 -25.108  0.00  0.00    +0.203 C 
ATOM     16  C   UNL     1      32.113  -9.862 -21.943  0.00  0.00    +0.318 C 
ATOM     17  C   UNL     1      33.201  -8.521 -23.741  0.00  0.00    +0.123 C 
ATOM     18  C   UNL     1      31.060 -11.260 -20.202  0.00  0.00    +0.124 C 
ENDBRANCH   5   8
ENDBRANCH   4   5
ENDBRANCH   1   4
BRANCH   1  19
ATOM     19  C   UNL     1      34.730 -17.505 -23.342  0.00  0.00    -0.047 C 
BRANCH  19  20
ATOM     20  C   UNL     1      35.525 -17.879 -22.084  0.00  0.00    +0.112 C 
BRANCH  20  21
ATOM     21  C   UNL     1      34.848 -18.988 -21.310  0.00  0.00    +0.005 C 
ATOM     22  C   UNL     1      35.624 -19.954 -20.693  0.00  0.00    +0.038 C 
ATOM     23  C   UNL     1      33.466 -19.015 -21.237  0.00  0.00    +0.001 C 
ATOM     24  C   UNL     1      35.000 -20.977 -19.980  0.00  0.00    +0.167 C 
ATOM     25  C   UNL     1      32.841 -20.038 -20.523  0.00  0.00    +0.040 C 
ATOM     26  C   UNL     1      33.608 -21.019 -19.896  0.00  0.00    +0.167 C 
BRANCH  24  27
ATOM     27  O   UNL     1      35.760 -21.929 -19.371  0.00  0.00    -0.503 OA
ATOM     28  H   UNL     1      36.391 -22.413 -19.866  0.00  0.00    +0.292 HD
ENDBRANCH  24  27
BRANCH  26  29
ATOM     29  O   UNL     1      32.988 -22.013 -19.201  0.00  0.00    -0.503 OA
ATOM     30  H   UNL     1      33.091 -22.071 -18.272  0.00  0.00    +0.292 HD
ENDBRANCH  26  29
ENDBRANCH  20  21
BRANCH  20  31
ATOM     31  O   UNL     1      36.835 -18.317 -22.439  0.00  0.00    -0.382 OA
ATOM     32  H   UNL     1      36.939 -19.252 -22.197  0.00  0.00    +0.211 HD
ENDBRANCH  20  31
ENDBRANCH  19  20
ENDBRANCH   1  19
TORSDOF 9
ENDMDL
MODEL 4
REMARK VINA RESULT:      -9.9      1.525      2.410
REMARK  Name = 71857
REMARK  9 active torsions:
REMARK  status: ('A' for Active; 'I' for Inactive)
REMARK    1  A    between atoms: N_1  and  C_4
REMARK    2  A    between atoms: N_1  and  C_19
REMARK    3  A    between atoms: C_4  and  C_5
REMARK    4  A    between atoms: C_5  and  N_8
REMARK    5  A    between atoms: C_19  and  C_20
REMARK    6  A    between atoms: C_20  and  C_21
REMARK    7  A    between atoms: C_20  and  O_31
REMARK    8  A    between atoms: C_24  and  O_27
REMARK    9  A    between atoms: C_26  and  O_29
REMARK                            x       y       z     vdW  Elec       q    Type
REMARK                         _______ _______ _______ _____ _____    ______ ____
ROOT
ATOM      1  N   UNL     1      35.009 -20.291 -19.955  0.00  0.00    +0.387 N 
ATOM      2  H   UNL     1      35.858 -19.911 -19.535  0.00  0.00    -0.084 HD
ATOM      3  H   UNL     1      34.183 -19.911 -19.493  0.00  0.00    -0.084 HD
ENDROOT
BRANCH   1   4
ATOM      4  C   UNL     1      35.007 -21.740 -19.796  0.00  0.00    -0.064 C 
BRANCH   4   5
ATOM      5  C   UNL     1      33.880 -22.164 -18.858  0.00  0.00    +0.051 C 
BRANCH   5   8
ATOM      6  O   UNL     1      31.431 -22.995 -17.250  0.00  0.00    -0.272 OA
ATOM      7  O   UNL     1      32.475 -24.725 -13.015  0.00  0.00    -0.252 OA
ATOM      8  N   UNL     1      34.384 -22.666 -17.602  0.00  0.00    -0.242 NA
ATOM      9  N   UNL     1      34.228 -24.038 -14.382  0.00  0.00    -0.228 N 
ATOM     10  N   UNL     1      31.929 -23.864 -15.124  0.00  0.00    -0.211 N 
ATOM     11  N   UNL     1      35.865 -23.237 -16.036  0.00  0.00    -0.240 NA
ATOM     12  C   UNL     1      33.661 -23.155 -16.551  0.00  0.00    +0.192 C 
ATOM     13  C   UNL     1      34.591 -23.497 -15.608  0.00  0.00    +0.136 C 
ATOM     14  C   UNL     1      32.251 -23.309 -16.391  0.00  0.00    +0.254 C 
ATOM     15  C   UNL     1      35.705 -22.735 -17.243  0.00  0.00    +0.203 C 
ATOM     16  C   UNL     1      32.857 -24.246 -14.089  0.00  0.00    +0.318 C 
ATOM     17  C   UNL     1      35.249 -24.388 -13.403  0.00  0.00    +0.123 C 
ATOM     18  C   UNL     1      30.512 -24.070 -14.842  0.00  0.00    +0.124 C 
ENDBRANCH   5   8
ENDBRANCH   4   5
ENDBRANCH   1   4
BRANCH   1  19
ATOM     19  C   UNL     1      34.966 -19.922 -21.362  0.00  0.00    -0.047 C 
BRANCH  19  20
ATOM     20  C   UNL     1      35.741 -18.622 -21.610  0.00  0.00    +0.112 C 
BRANCH  20  21
ATOM     21  C   UNL     1      35.229 -17.898 -22.836  0.00  0.00    +0.005 C 
ATOM     22  C   UNL     1      34.979 -16.539 -22.763  0.00  0.00    +0.038 C 
ATOM     23  C   UNL     1      35.020 -18.611 -24.004  0.00  0.00    +0.001 C 
ATOM     24  C   UNL     1      34.507 -15.871 -23.893  0.00  0.00    +0.167 C 
ATOM     25  C   UNL     1      34.548 -17.944 -25.134  0.00  0.00    +0.040 C 
ATOM     26  C   UNL     1      34.291 -16.575 -25.079  0.00  0.00    +0.167 C 
BRANCH  24  27
ATOM     27  O   UNL     1      34.260 -14.533 -23.827  0.00  0.00    -0.503 OA
ATOM     28  H   UNL     1      33.578 -14.209 -23.272  0.00  0.00    +0.292 HD
ENDBRANCH  24  27
BRANCH  26  29
ATOM     29  O   UNL     1      33.831 -15.933 -26.189  0.00  0.00    -0.503 OA
ATOM     30  H   UNL     1      33.137 -15.308 -26.116  0.00  0.00    +0.292 HD
ENDBRANCH  26  29
ENDBRANCH  20  21
BRANCH  20  31
ATOM     31  O   UNL     1      35.613 -17.748 -20.490  0.00  0.00    -0.382 OA
ATOM     32  H   UNL     1      36.072 -18.132 -19.726  0.00  0.00    +0.211 HD
ENDBRANCH  20  31
ENDBRANCH  19  20
ENDBRANCH   1  19
TORSDOF 9
ENDMDL
MODEL 5
REMARK VINA RESULT:      -9.8      5.285     10.704
REMARK  Name = 71857
REMARK  9 active torsions:
REMARK  status: ('A' for Active; 'I' for Inactive)
REMARK    1  A    between atoms: N_1  and  C_4
REMARK    2  A    between atoms: N_1  and  C_19
REMARK    3  A    between atoms: C_4  and  C_5
REMARK    4  A    between atoms: C_5  and  N_8
REMARK    5  A    between atoms: C_19  and  C_20
REMARK    6  A    between atoms: C_20  and  C_21
REMARK    7  A    between atoms: C_20  and  O_31
REMARK    8  A    between atoms: C_24  and  O_27
REMARK    9  A    between atoms: C_26  and  O_29
REMARK                            x       y       z     vdW  Elec       q    Type
REMARK                         _______ _______ _______ _____ _____    ______ ____
ROOT
ATOM      1  N   UNL     1      35.581 -16.528 -23.586  0.00  0.00    +0.387 N 
ATOM      2  H   UNL     1      35.819 -15.770 -22.946  0.00  0.00    -0.084 HD
ATOM      3  H   UNL     1      36.213 -16.531 -24.386  0.00  0.00    -0.084 HD
ENDROOT
BRANCH   1   4
ATOM      4  C   UNL     1      34.219 -16.335 -24.068  0.00  0.00    -0.064 C 
BRANCH   4   5
ATOM      5  C   UNL     1      33.965 -14.856 -24.347  0.00  0.00    +0.051 C 
BRANCH   5   8
ATOM      6  O   UNL     1      34.022 -11.875 -24.961  0.00  0.00    -0.272 OA
ATOM      7  O   UNL     1      31.848  -9.259 -21.729  0.00  0.00    -0.252 OA
ATOM      8  N   UNL     1      33.259 -14.216 -23.263  0.00  0.00    -0.242 NA
ATOM      9  N   UNL     1      31.902 -11.564 -21.419  0.00  0.00    -0.228 N 
ATOM     10  N   UNL     1      32.939 -10.544 -23.355  0.00  0.00    -0.211 N 
ATOM     11  N   UNL     1      32.117 -14.015 -21.358  0.00  0.00    -0.240 NA
ATOM     12  C   UNL     1      33.024 -12.881 -23.097  0.00  0.00    +0.192 C 
ATOM     13  C   UNL     1      32.324 -12.786 -21.925  0.00  0.00    +0.136 C 
ATOM     14  C   UNL     1      33.392 -11.769 -23.912  0.00  0.00    +0.254 C 
ATOM     15  C   UNL     1      32.695 -14.857 -22.191  0.00  0.00    +0.203 C 
ATOM     16  C   UNL     1      32.199 -10.374 -22.130  0.00  0.00    +0.318 C 
ATOM     17  C   UNL     1      31.159 -11.505 -20.167  0.00  0.00    +0.123 C 
ATOM     18  C   UNL     1      33.256  -9.330 -24.102  0.00  0.00    +0.124 C 
ENDBRANCH   5   8
ENDBRANCH   4   5
ENDBRANCH   1   4
BRANCH   1  19
ATOM     19  C   UNL     1      35.709 -17.799 -22.887  0.00  0.00    -0.047 C 
BRANCH  19  20
ATOM     20  C   UNL     1      34.846 -17.816 -21.620  0.00  0.00    +0.112 C 
BRANCH  20  21
ATOM     21  C   UNL     1      34.937 -19.146 -20.905  0.00  0.00    +0.005 C 
ATOM     22  C   UNL     1      33.773 -19.821 -20.581  0.00  0.00    +0.038 C 
ATOM     23  C   UNL     1      36.183 -19.659 -20.589  0.00  0.00    +0.001 C 
ATOM     24  C   UNL     1      33.857 -21.047 -19.921  0.00  0.00    +0.167 C 
ATOM     25  C   UNL     1      36.268 -20.885 -19.930  0.00  0.00    +0.040 C 
ATOM     26  C   UNL     1      35.105 -21.578 -19.595  0.00  0.00    +0.167 C 
BRANCH  24  27
ATOM     27  O   UNL     1      32.715 -21.715 -19.601  0.00  0.00    -0.503 OA
ATOM     28  H   UNL     1      31.888 -21.275 -19.637  0.00  0.00    +0.292 HD
ENDBRANCH  24  27
BRANCH  26  29
ATOM     29  O   UNL     1      35.200 -22.776 -18.952  0.00  0.00    -0.503 OA
ATOM     30  H   UNL     1      35.859 -22.907 -18.300  0.00  0.00    +0.292 HD
ENDBRANCH  26  29
ENDBRANCH  20  21
BRANCH  20  31
ATOM     31  O   UNL     1      35.269 -16.795 -20.718  0.00  0.00    -0.382 OA
ATOM     32  H   UNL     1      34.504 -16.260 -20.453  0.00  0.00    +0.211 HD
ENDBRANCH  20  31
ENDBRANCH  19  20
ENDBRANCH   1  19
TORSDOF 9
ENDMDL
MODEL 6
REMARK VINA RESULT:      -9.7      0.705      1.369
REMARK  Name = 71857
REMARK  9 active torsions:
REMARK  status: ('A' for Active; 'I' for Inactive)
REMARK    1  A    between atoms: N_1  and  C_4
REMARK    2  A    between atoms: N_1  and  C_19
REMARK    3  A    between atoms: C_4  and  C_5
REMARK    4  A    between atoms: C_5  and  N_8
REMARK    5  A    between atoms: C_19  and  C_20
REMARK    6  A    between atoms: C_20  and  C_21
REMARK    7  A    between atoms: C_20  and  O_31
REMARK    8  A    between atoms: C_24  and  O_27
REMARK    9  A    between atoms: C_26  and  O_29
REMARK                            x       y       z     vdW  Elec       q    Type
REMARK                         _______ _______ _______ _____ _____    ______ ____
ROOT
ATOM      1  N   UNL     1      34.615 -20.380 -19.907  0.00  0.00    +0.387 N 
ATOM      2  H   UNL     1      35.303 -19.798 -19.428  0.00  0.00    -0.084 HD
ATOM      3  H   UNL     1      33.691 -20.253 -19.495  0.00  0.00    -0.084 HD
ENDROOT
BRANCH   1   4
ATOM      4  C   UNL     1      34.998 -21.780 -19.771  0.00  0.00    -0.064 C 
BRANCH   4   5
ATOM      5  C   UNL     1      35.618 -22.025 -18.398  0.00  0.00    +0.051 C 
BRANCH   5   8
ATOM      6  O   UNL     1      37.133 -22.406 -15.785  0.00  0.00    -0.272 OA
ATOM      7  O   UNL     1      34.562 -24.412 -12.410  0.00  0.00    -0.252 OA
ATOM      8  N   UNL     1      34.685 -22.646 -17.488  0.00  0.00    -0.242 NA
ATOM      9  N   UNL     1      33.562 -24.045 -14.479  0.00  0.00    -0.228 N 
ATOM     10  N   UNL     1      35.865 -23.410 -14.079  0.00  0.00    -0.211 N 
ATOM     11  N   UNL     1      32.776 -23.535 -16.755  0.00  0.00    -0.240 NA
ATOM     12  C   UNL     1      34.907 -23.012 -16.191  0.00  0.00    +0.192 C 
ATOM     13  C   UNL     1      33.724 -23.552 -15.767  0.00  0.00    +0.136 C 
ATOM     14  C   UNL     1      36.078 -22.894 -15.385  0.00  0.00    +0.254 C 
ATOM     15  C   UNL     1      33.389 -22.981 -17.782  0.00  0.00    +0.203 C 
ATOM     16  C   UNL     1      34.648 -23.991 -13.570  0.00  0.00    +0.318 C 
ATOM     17  C   UNL     1      32.286 -24.614 -14.066  0.00  0.00    +0.123 C 
ATOM     18  C   UNL     1      36.995 -23.345 -13.157  0.00  0.00    +0.124 C 
ENDBRANCH   5   8
ENDBRANCH   4   5
ENDBRANCH   1   4
BRANCH   1  19
ATOM     19  C   UNL     1      34.556 -19.992 -21.309  0.00  0.00    -0.047 C 
BRANCH  19  20
ATOM     20  C   UNL     1      35.704 -19.038 -21.661  0.00  0.00    +0.112 C 
BRANCH  20  21
ATOM     21  C   UNL     1      35.205 -17.823 -22.412  0.00  0.00    +0.005 C 
ATOM     22  C   UNL     1      35.158 -17.856 -23.795  0.00  0.00    +0.038 C 
ATOM     23  C   UNL     1      34.807 -16.705 -21.700  0.00  0.00    +0.001 C 
ATOM     24  C   UNL     1      34.698 -16.736 -24.488  0.00  0.00    +0.167 C 
ATOM     25  C   UNL     1      34.347 -15.585 -22.392  0.00  0.00    +0.040 C 
ATOM     26  C   UNL     1      34.293 -15.600 -23.786  0.00  0.00    +0.167 C 
BRANCH  24  27
ATOM     27  O   UNL     1      34.649 -16.764 -25.848  0.00  0.00    -0.503 OA
ATOM     28  H   UNL     1      34.636 -17.584 -26.301  0.00  0.00    +0.292 HD
ENDBRANCH  24  27
BRANCH  26  29
ATOM     29  O   UNL     1      33.841 -14.501 -24.452  0.00  0.00    -0.503 OA
ATOM     30  H   UNL     1      33.246 -13.911 -24.034  0.00  0.00    +0.292 HD
ENDBRANCH  26  29
ENDBRANCH  20  21
BRANCH  20  31
ATOM     31  O   UNL     1      36.358 -18.591 -20.474  0.00  0.00    -0.382 OA
ATOM     32  H   UNL     1      36.363 -19.306 -19.819  0.00  0.00    +0.211 HD
ENDBRANCH  20  31
ENDBRANCH  19  20
ENDBRANCH   1  19
TORSDOF 9
ENDMDL
MODEL 7
REMARK VINA RESULT:      -9.7      3.101     10.137
REMARK  Name = 71857
REMARK  9 active torsions:
REMARK  status: ('A' for Active; 'I' for Inactive)
REMARK    1  A    between atoms: N_1  and  C_4
REMARK    2  A    between atoms: N_1  and  C_19
REMARK    3  A    between atoms: C_4  and  C_5
REMARK    4  A    between atoms: C_5  and  N_8
REMARK    5  A    between atoms: C_19  and  C_20
REMARK    6  A    between atoms: C_20  and  C_21
REMARK    7  A    between atoms: C_20  and  O_31
REMARK    8  A    between atoms: C_24  and  O_27
REMARK    9  A    between atoms: C_26  and  O_29
REMARK                            x       y       z     vdW  Elec       q    Type
REMARK                         _______ _______ _______ _____ _____    ______ ____
ROOT
ATOM      1  N   UNL     1      34.488 -19.490 -20.957  0.00  0.00    +0.387 N 
ATOM      2  H   UNL     1      33.520 -19.638 -20.670  0.00  0.00    -0.084 HD
ATOM      3  H   UNL     1      34.823 -18.585 -20.628  0.00  0.00    -0.084 HD
ENDROOT
BRANCH   1   4
ATOM      4  C   UNL     1      34.562 -19.514 -22.413  0.00  0.00    -0.064 C 
BRANCH   4   5
ATOM      5  C   UNL     1      35.579 -18.488 -22.904  0.00  0.00    +0.051 C 
BRANCH   5   8
ATOM      6  O   UNL     1      34.375 -16.414 -21.029  0.00  0.00    -0.272 OA
ATOM      7  O   UNL     1      32.237 -12.887 -23.268  0.00  0.00    -0.252 OA
ATOM      8  N   UNL     1      34.972 -17.492 -23.755  0.00  0.00    -0.242 NA
ATOM      9  N   UNL     1      33.215 -14.566 -24.547  0.00  0.00    -0.228 N 
ATOM     10  N   UNL     1      33.298 -14.637 -22.128  0.00  0.00    -0.211 N 
ATOM     11  N   UNL     1      34.332 -16.473 -25.632  0.00  0.00    -0.240 NA
ATOM     12  C   UNL     1      34.307 -16.363 -23.370  0.00  0.00    +0.192 C 
ATOM     13  C   UNL     1      33.926 -15.759 -24.536  0.00  0.00    +0.136 C 
ATOM     14  C   UNL     1      34.026 -15.855 -22.066  0.00  0.00    +0.254 C 
ATOM     15  C   UNL     1      34.960 -17.514 -25.125  0.00  0.00    +0.203 C 
ATOM     16  C   UNL     1      32.868 -13.949 -23.320  0.00  0.00    +0.318 C 
ATOM     17  C   UNL     1      32.827 -13.954 -25.812  0.00  0.00    +0.123 C 
ATOM     18  C   UNL     1      32.950 -14.017 -20.853  0.00  0.00    +0.124 C 
ENDBRANCH   5   8
ENDBRANCH   4   5
ENDBRANCH   1   4
BRANCH   1  19
ATOM     19  C   UNL     1      35.321 -20.533 -20.377  0.00  0.00    -0.047 C 
BRANCH  19  20
ATOM     20  C   UNL     1      34.460 -21.619 -19.721  0.00  0.00    +0.112 C 
BRANCH  20  21
ATOM     21  C   UNL     1      35.035 -22.054 -18.391  0.00  0.00    +0.005 C 
ATOM     22  C   UNL     1      34.245 -22.780 -17.517  0.00  0.00    +0.038 C 
ATOM     23  C   UNL     1      36.340 -21.716 -18.076  0.00  0.00    +0.001 C 
ATOM     24  C   UNL     1      34.775 -23.181 -16.291  0.00  0.00    +0.167 C 
ATOM     25  C   UNL     1      36.871 -22.117 -16.850  0.00  0.00    +0.040 C 
ATOM     26  C   UNL     1      36.088 -22.848 -15.958  0.00  0.00    +0.167 C 
BRANCH  24  27
ATOM     27  O   UNL     1      34.001 -23.896 -15.428  0.00  0.00    -0.503 OA
ATOM     28  H   UNL     1      33.096 -23.679 -15.319  0.00  0.00    +0.292 HD
ENDBRANCH  24  27
BRANCH  26  29
ATOM     29  O   UNL     1      36.617 -23.236 -14.763  0.00  0.00    -0.503 OA
ATOM     30  H   UNL     1      36.268 -22.897 -13.963  0.00  0.00    +0.292 HD
ENDBRANCH  26  29
ENDBRANCH  20  21
BRANCH  20  31
ATOM     31  O   UNL     1      33.137 -21.134 -19.497  0.00  0.00    -0.382 OA
ATOM     32  H   UNL     1      32.981 -21.049 -18.543  0.00  0.00    +0.211 HD
ENDBRANCH  20  31
ENDBRANCH  19  20
ENDBRANCH   1  19
TORSDOF 9
ENDMDL
MODEL 8
REMARK VINA RESULT:      -9.6      5.329     11.225
REMARK  Name = 71857
REMARK  9 active torsions:
REMARK  status: ('A' for Active; 'I' for Inactive)
REMARK    1  A    between atoms: N_1  and  C_4
REMARK    2  A    between atoms: N_1  and  C_19
REMARK    3  A    between atoms: C_4  and  C_5
REMARK    4  A    between atoms: C_5  and  N_8
REMARK    5  A    between atoms: C_19  and  C_20
REMARK    6  A    between atoms: C_20  and  C_21
REMARK    7  A    between atoms: C_20  and  O_31
REMARK    8  A    between atoms: C_24  and  O_27
REMARK    9  A    between atoms: C_26  and  O_29
REMARK                            x       y       z     vdW  Elec       q    Type
REMARK                         _______ _______ _______ _____ _____    ______ ____
ROOT
ATOM      1  N   UNL     1      34.735 -15.403 -21.575  0.00  0.00    +0.387 N 
ATOM      2  H   UNL     1      35.515 -15.532 -20.930  0.00  0.00    -0.084 HD
ATOM      3  H   UNL     1      34.939 -14.653 -22.235  0.00  0.00    -0.084 HD
ENDROOT
BRANCH   1   4
ATOM      4  C   UNL     1      33.543 -15.044 -20.816  0.00  0.00    -0.064 C 
BRANCH   4   5
ATOM      5  C   UNL     1      32.433 -14.592 -21.762  0.00  0.00    +0.051 C 
BRANCH   5   8
ATOM      6  O   UNL     1      33.987 -13.332 -24.057  0.00  0.00    -0.272 OA
ATOM      7  O   UNL     1      33.566  -8.662 -24.256  0.00  0.00    -0.252 OA
ATOM      8  N   UNL     1      32.191 -13.172 -21.670  0.00  0.00    -0.242 NA
ATOM      9  N   UNL     1      32.444  -9.794 -22.561  0.00  0.00    -0.228 N 
ATOM     10  N   UNL     1      33.791 -10.993 -24.177  0.00  0.00    -0.211 N 
ATOM     11  N   UNL     1      31.377 -11.250 -20.887  0.00  0.00    -0.240 NA
ATOM     12  C   UNL     1      32.677 -12.191 -22.485  0.00  0.00    +0.192 C 
ATOM     13  C   UNL     1      32.165 -11.026 -21.985  0.00  0.00    +0.136 C 
ATOM     14  C   UNL     1      33.534 -12.275 -23.623  0.00  0.00    +0.254 C 
ATOM     15  C   UNL     1      31.414 -12.556 -20.723  0.00  0.00    +0.203 C 
ATOM     16  C   UNL     1      33.283  -9.730 -23.701  0.00  0.00    +0.318 C 
ATOM     17  C   UNL     1      31.878  -8.574 -21.997  0.00  0.00    +0.123 C 
ATOM     18  C   UNL     1      34.659 -10.949 -25.350  0.00  0.00    +0.124 C 
ENDBRANCH   5   8
ENDBRANCH   4   5
ENDBRANCH   1   4
BRANCH   1  19
ATOM     19  C   UNL     1      34.524 -16.634 -22.321  0.00  0.00    -0.047 C 
BRANCH  19  20
ATOM     20  C   UNL     1      35.534 -17.709 -21.898  0.00  0.00    +0.112 C 
BRANCH  20  21
ATOM     21  C   UNL     1      34.851 -18.870 -21.209  0.00  0.00    +0.005 C 
ATOM     22  C   UNL     1      35.623 -19.864 -20.635  0.00  0.00    +0.038 C 
ATOM     23  C   UNL     1      33.468 -18.913 -21.168  0.00  0.00    +0.001 C 
ATOM     24  C   UNL     1      34.994 -20.935 -19.999  0.00  0.00    +0.167 C 
ATOM     25  C   UNL     1      32.838 -19.982 -20.533  0.00  0.00    +0.040 C 
ATOM     26  C   UNL     1      33.601 -20.993 -19.949  0.00  0.00    +0.167 C 
BRANCH  24  27
ATOM     27  O   UNL     1      35.749 -21.915 -19.432  0.00  0.00    -0.503 OA
ATOM     28  H   UNL     1      36.407 -21.695 -18.801  0.00  0.00    +0.292 HD
ENDBRANCH  24  27
BRANCH  26  29
ATOM     29  O   UNL     1      32.975 -22.034 -19.330  0.00  0.00    -0.503 OA
ATOM     30  H   UNL     1      33.438 -22.832 -19.171  0.00  0.00    +0.292 HD
ENDBRANCH  26  29
ENDBRANCH  20  21
BRANCH  20  31
ATOM     31  O   UNL     1      36.227 -18.213 -23.038  0.00  0.00    -0.382 OA
ATOM     32  H   UNL     1      35.626 -18.233 -23.800  0.00  0.00    +0.211 HD
ENDBRANCH  20  31
ENDBRANCH  19  20
ENDBRANCH   1  19
TORSDOF 9
ENDMDL
MODEL 9
REMARK VINA RESULT:      -9.6      2.607      9.953
REMARK  Name = 71857
REMARK  9 active torsions:
REMARK  status: ('A' for Active; 'I' for Inactive)
REMARK    1  A    between atoms: N_1  and  C_4
REMARK    2  A    between atoms: N_1  and  C_19
REMARK    3  A    between atoms: C_4  and  C_5
REMARK    4  A    between atoms: C_5  and  N_8
REMARK    5  A    between atoms: C_19  and  C_20
REMARK    6  A    between atoms: C_20  and  C_21
REMARK    7  A    between atoms: C_20  and  O_31
REMARK    8  A    between atoms: C_24  and  O_27
REMARK    9  A    between atoms: C_26  and  O_29
REMARK                            x       y       z     vdW  Elec       q    Type
REMARK                         _______ _______ _______ _____ _____    ______ ____
ROOT
ATOM      1  N   UNL     1      34.869 -20.551 -19.870  0.00  0.00    +0.387 N 
ATOM      2  H   UNL     1      33.935 -20.698 -20.253  0.00  0.00    -0.084 HD
ATOM      3  H   UNL     1      34.875 -19.745 -19.245  0.00  0.00    -0.084 HD
ENDROOT
BRANCH   1   4
ATOM      4  C   UNL     1      35.798 -20.299 -20.964  0.00  0.00    -0.064 C 
BRANCH   4   5
ATOM      5  C   UNL     1      36.123 -18.810 -21.046  0.00  0.00    +0.051 C 
BRANCH   5   8
ATOM      6  O   UNL     1      34.816 -16.216 -20.136  0.00  0.00    -0.272 OA
ATOM      7  O   UNL     1      32.847 -13.788 -23.637  0.00  0.00    -0.252 OA
ATOM      8  N   UNL     1      35.578 -18.204 -22.238  0.00  0.00    -0.242 NA
ATOM      9  N   UNL     1      33.893 -15.801 -24.151  0.00  0.00    -0.228 N 
ATOM     10  N   UNL     1      33.822 -14.982 -21.873  0.00  0.00    -0.211 N 
ATOM     11  N   UNL     1      35.065 -17.952 -24.393  0.00  0.00    -0.240 NA
ATOM     12  C   UNL     1      34.897 -17.025 -22.333  0.00  0.00    +0.192 C 
ATOM     13  C   UNL     1      34.595 -16.895 -23.661  0.00  0.00    +0.136 C 
ATOM     14  C   UNL     1      34.537 -16.080 -21.325  0.00  0.00    +0.254 C 
ATOM     15  C   UNL     1      35.653 -18.726 -23.503  0.00  0.00    +0.203 C 
ATOM     16  C   UNL     1      33.473 -14.784 -23.258  0.00  0.00    +0.318 C 
ATOM     17  C   UNL     1      33.591 -15.700 -25.573  0.00  0.00    +0.123 C 
ATOM     18  C   UNL     1      33.398 -13.946 -20.937  0.00  0.00    +0.124 C 
ENDBRANCH   5   8
ENDBRANCH   4   5
ENDBRANCH   1   4
BRANCH   1  19
ATOM     19  C   UNL     1      35.265 -21.729 -19.112  0.00  0.00    -0.047 C 
BRANCH  19  20
ATOM     20  C   UNL     1      34.077 -22.680 -18.920  0.00  0.00    +0.112 C 
BRANCH  20  21
ATOM     21  C   UNL     1      33.779 -22.906 -17.454  0.00  0.00    +0.005 C 
ATOM     22  C   UNL     1      34.814 -22.844 -16.537  0.00  0.00    +0.038 C 
ATOM     23  C   UNL     1      32.479 -23.172 -17.062  0.00  0.00    +0.001 C 
ATOM     24  C   UNL     1      34.540 -23.053 -15.185  0.00  0.00    +0.167 C 
ATOM     25  C   UNL     1      32.204 -23.381 -15.711  0.00  0.00    +0.040 C 
ATOM     26  C   UNL     1      33.234 -23.322 -14.773  0.00  0.00    +0.167 C 
BRANCH  24  27
ATOM     27  O   UNL     1      35.554 -22.991 -14.279  0.00  0.00    -0.503 OA
ATOM     28  H   UNL     1      36.409 -22.718 -14.549  0.00  0.00    +0.292 HD
ENDBRANCH  24  27
BRANCH  26  29
ATOM     29  O   UNL     1      32.955 -23.526 -13.455  0.00  0.00    -0.503 OA
ATOM     30  H   UNL     1      32.943 -22.803 -12.860  0.00  0.00    +0.292 HD
ENDBRANCH  26  29
ENDBRANCH  20  21
BRANCH  20  31
ATOM     31  O   UNL     1      32.907 -22.142 -19.535  0.00  0.00    -0.382 OA
ATOM     32  H   UNL     1      32.360 -21.705 -18.863  0.00  0.00    +0.211 HD
ENDBRANCH  20  31
ENDBRANCH  19  20
ENDBRANCH   1  19
TORSDOF 9
ENDMDL
