MODEL 1
REMARK VINA RESULT:      -5.5      0.000      0.000
REMARK  Name = 78057
REMARK  14 active torsions:
REMARK  status: ('A' for Active; 'I' for Inactive)
REMARK    1  A    between atoms: O_1  and  C_2
REMARK    2  A    between atoms: O_1  and  C_10
REMARK    3  A    between atoms: C_2  and  C_3
REMARK    4  A    between atoms: C_3  and  O_4
REMARK    5  A    between atoms: O_4  and  C_5
REMARK    6  A    between atoms: C_5  and  C_6
REMARK    7  A    between atoms: C_6  and  O_7
REMARK    8  A    between atoms: O_7  and  C_8
REMARK    9  A    between atoms: C_10  and  C_11
REMARK   10  A    between atoms: C_11  and  O_12
REMARK   11  A    between atoms: O_12  and  C_13
REMARK   12  A    between atoms: C_13  and  C_14
REMARK   13  A    between atoms: C_14  and  O_15
REMARK   14  A    between atoms: O_15  and  C_16
REMARK                            x       y       z     vdW  Elec       q    Type
REMARK                         _______ _______ _______ _____ _____    ______ ____
ROOT
ATOM      1  O   UNL     1      36.321 -24.157 -15.721  0.00  0.00    -0.348 OA
ENDROOT
BRANCH   1   2
ATOM      2  C   UNL     1      35.453 -24.829 -14.817  0.00  0.00    +0.174 C 
BRANCH   2   3
ATOM      3  C   UNL     1      35.296 -23.989 -13.564  0.00  0.00    +0.174 C 
BRANCH   3   4
ATOM      4  O   UNL     1      35.569 -24.796 -12.428  0.00  0.00    -0.348 OA
BRANCH   4   5
ATOM      5  C   UNL     1      36.895 -25.309 -12.458  0.00  0.00    +0.174 C 
BRANCH   5   6
ATOM      6  C   UNL     1      37.865 -24.197 -12.105  0.00  0.00    +0.174 C 
BRANCH   6   7
ATOM      7  O   UNL     1      39.081 -24.401 -12.814  0.00  0.00    -0.351 OA
BRANCH   7   8
ATOM      8  C   UNL     1      38.982 -25.500 -13.710  0.00  0.00    +0.142 C 
ATOM      9  C   UNL     1      40.351 -25.786 -14.291  0.00  0.00    +0.035 C 
ENDBRANCH   7   8
ENDBRANCH   6   7
ENDBRANCH   5   6
ENDBRANCH   4   5
ENDBRANCH   3   4
ENDBRANCH   2   3
ENDBRANCH   1   2
BRANCH   1  10
ATOM     10  C   UNL     1      36.365 -22.761 -15.461  0.00  0.00    +0.174 C 
BRANCH  10  11
ATOM     11  C   UNL     1      36.932 -22.049 -16.674  0.00  0.00    +0.174 C 
BRANCH  11  12
ATOM     12  O   UNL     1      36.087 -22.295 -17.792  0.00  0.00    -0.348 OA
BRANCH  12  13
ATOM     13  C   UNL     1      36.422 -21.458 -18.891  0.00  0.00    +0.174 C 
BRANCH  13  14
ATOM     14  C   UNL     1      35.159 -21.123 -19.660  0.00  0.00    +0.174 C 
BRANCH  14  15
ATOM     15  O   UNL     1      35.312 -19.847 -20.271  0.00  0.00    -0.351 OA
BRANCH  15  16
ATOM     16  C   UNL     1      34.167 -19.494 -21.034  0.00  0.00    +0.142 C 
ATOM     17  C   UNL     1      32.970 -20.255 -20.509  0.00  0.00    +0.035 C 
ENDBRANCH  15  16
ENDBRANCH  14  15
ENDBRANCH  13  14
ENDBRANCH  12  13
ENDBRANCH  11  12
ENDBRANCH  10  11
ENDBRANCH   1  10
TORSDOF 14
ENDMDL
MODEL 2
REMARK VINA RESULT:      -5.5      1.793      2.778
REMARK  Name = 78057
REMARK  14 active torsions:
REMARK  status: ('A' for Active; 'I' for Inactive)
REMARK    1  A    between atoms: O_1  and  C_2
REMARK    2  A    between atoms: O_1  and  C_10
REMARK    3  A    between atoms: C_2  and  C_3
REMARK    4  A    between atoms: C_3  and  O_4
REMARK    5  A    between atoms: O_4  and  C_5
REMARK    6  A    between atoms: C_5  and  C_6
REMARK    7  A    between atoms: C_6  and  O_7
REMARK    8  A    between atoms: O_7  and  C_8
REMARK    9  A    between atoms: C_10  and  C_11
REMARK   10  A    between atoms: C_11  and  O_12
REMARK   11  A    between atoms: O_12  and  C_13
REMARK   12  A    between atoms: C_13  and  C_14
REMARK   13  A    between atoms: C_14  and  O_15
REMARK   14  A    between atoms: O_15  and  C_16
REMARK                            x       y       z     vdW  Elec       q    Type
REMARK                         _______ _______ _______ _____ _____    ______ ____
ROOT
ATOM      1  O   UNL     1      36.279 -24.195 -15.685  0.00  0.00    -0.348 OA
ENDROOT
BRANCH   1   2
ATOM      2  C   UNL     1      37.523 -23.644 -15.272  0.00  0.00    +0.174 C 
BRANCH   2   3
ATOM      3  C   UNL     1      38.352 -24.730 -14.613  0.00  0.00    +0.174 C 
BRANCH   3   4
ATOM      4  O   UNL     1      37.752 -25.991 -14.871  0.00  0.00    -0.348 OA
BRANCH   4   5
ATOM      5  C   UNL     1      37.229 -26.573 -13.683  0.00  0.00    +0.174 C 
BRANCH   5   6
ATOM      6  C   UNL     1      37.623 -25.716 -12.496  0.00  0.00    +0.174 C 
BRANCH   6   7
ATOM      7  O   UNL     1      36.591 -25.773 -11.520  0.00  0.00    -0.351 OA
BRANCH   7   8
ATOM      8  C   UNL     1      35.867 -24.551 -11.457  0.00  0.00    +0.142 C 
ATOM      9  C   UNL     1      36.846 -23.396 -11.486  0.00  0.00    +0.035 C 
ENDBRANCH   7   8
ENDBRANCH   6   7
ENDBRANCH   5   6
ENDBRANCH   4   5
ENDBRANCH   3   4
ENDBRANCH   2   3
ENDBRANCH   1   2
BRANCH   1  10
ATOM     10  C   UNL     1      35.192 -23.616 -14.978  0.00  0.00    +0.174 C 
BRANCH  10  11
ATOM     11  C   UNL     1      34.016 -23.454 -15.923  0.00  0.00    +0.174 C 
BRANCH  11  12
ATOM     12  O   UNL     1      34.496 -23.013 -17.188  0.00  0.00    -0.348 OA
BRANCH  12  13
ATOM     13  C   UNL     1      33.441 -22.903 -18.135  0.00  0.00    +0.174 C 
BRANCH  13  14
ATOM     14  C   UNL     1      33.889 -22.005 -19.271  0.00  0.00    +0.174 C 
BRANCH  14  15
ATOM     15  O   UNL     1      32.746 -21.574 -20.001  0.00  0.00    -0.351 OA
BRANCH  15  16
ATOM     16  C   UNL     1      32.888 -20.233 -20.446  0.00  0.00    +0.142 C 
ATOM     17  C   UNL     1      34.347 -19.962 -20.741  0.00  0.00    +0.035 C 
ENDBRANCH  15  16
ENDBRANCH  14  15
ENDBRANCH  13  14
ENDBRANCH  12  13
ENDBRANCH  11  12
ENDBRANCH  10  11
ENDBRANCH   1  10
TORSDOF 14
ENDMDL
MODEL 3
REMARK VINA RESULT:      -5.4      3.771      7.692
REMARK  Name = 78057
REMARK  14 active torsions:
REMARK  status: ('A' for Active; 'I' for Inactive)
REMARK    1  A    between atoms: O_1  and  C_2
REMARK    2  A    between atoms: O_1  and  C_10
REMARK    3  A    between atoms: C_2  and  C_3
REMARK    4  A    between atoms: C_3  and  O_4
REMARK    5  A    between atoms: O_4  and  C_5
REMARK    6  A    between atoms: C_5  and  C_6
REMARK    7  A    between atoms: C_6  and  O_7
REMARK    8  A    between atoms: O_7  and  C_8
REMARK    9  A    between atoms: C_10  and  C_11
REMARK   10  A    between atoms: C_11  and  O_12
REMARK   11  A    between atoms: O_12  and  C_13
REMARK   12  A    between atoms: C_13  and  C_14
REMARK   13  A    between atoms: C_14  and  O_15
REMARK   14  A    between atoms: O_15  and  C_16
REMARK                            x       y       z     vdW  Elec       q    Type
REMARK                         _______ _______ _______ _____ _____    ______ ____
ROOT
ATOM      1  O   UNL     1      34.217 -19.201 -22.516  0.00  0.00    -0.348 OA
ENDROOT
BRANCH   1   2
ATOM      2  C   UNL     1      34.645 -18.843 -21.208  0.00  0.00    +0.174 C 
BRANCH   2   3
ATOM      3  C   UNL     1      36.159 -18.920 -21.143  0.00  0.00    +0.174 C 
BRANCH   3   4
ATOM      4  O   UNL     1      36.534 -19.748 -20.051  0.00  0.00    -0.348 OA
BRANCH   4   5
ATOM      5  C   UNL     1      35.759 -20.941 -20.011  0.00  0.00    +0.174 C 
BRANCH   5   6
ATOM      6  C   UNL     1      36.058 -21.683 -18.723  0.00  0.00    +0.174 C 
BRANCH   6   7
ATOM      7  O   UNL     1      36.944 -20.901 -17.932  0.00  0.00    -0.351 OA
BRANCH   7   8
ATOM      8  C   UNL     1      37.231 -21.534 -16.692  0.00  0.00    +0.142 C 
ATOM      9  C   UNL     1      36.151 -22.553 -16.398  0.00  0.00    +0.035 C 
ENDBRANCH   7   8
ENDBRANCH   6   7
ENDBRANCH   5   6
ENDBRANCH   4   5
ENDBRANCH   3   4
ENDBRANCH   2   3
ENDBRANCH   1   2
BRANCH   1  10
ATOM     10  C   UNL     1      35.075 -18.660 -23.510  0.00  0.00    +0.174 C 
BRANCH  10  11
ATOM     11  C   UNL     1      34.411 -18.802 -24.867  0.00  0.00    +0.174 C 
BRANCH  11  12
ATOM     12  O   UNL     1      34.315 -17.518 -25.472  0.00  0.00    -0.348 OA
BRANCH  12  13
ATOM     13  C   UNL     1      34.774 -16.495 -24.597  0.00  0.00    +0.174 C 
BRANCH  13  14
ATOM     14  C   UNL     1      33.699 -15.433 -24.471  0.00  0.00    +0.174 C 
BRANCH  14  15
ATOM     15  O   UNL     1      33.409 -15.227 -23.094  0.00  0.00    -0.351 OA
BRANCH  15  16
ATOM     16  C   UNL     1      34.589 -15.253 -22.304  0.00  0.00    +0.142 C 
ATOM     17  C   UNL     1      34.211 -15.098 -20.846  0.00  0.00    +0.035 C 
ENDBRANCH  15  16
ENDBRANCH  14  15
ENDBRANCH  13  14
ENDBRANCH  12  13
ENDBRANCH  11  12
ENDBRANCH  10  11
ENDBRANCH   1  10
TORSDOF 14
ENDMDL
MODEL 4
REMARK VINA RESULT:      -5.4      1.791      8.620
REMARK  Name = 78057
REMARK  14 active torsions:
REMARK  status: ('A' for Active; 'I' for Inactive)
REMARK    1  A    between atoms: O_1  and  C_2
REMARK    2  A    between atoms: O_1  and  C_10
REMARK    3  A    between atoms: C_2  and  C_3
REMARK    4  A    between atoms: C_3  and  O_4
REMARK    5  A    between atoms: O_4  and  C_5
REMARK    6  A    between atoms: C_5  and  C_6
REMARK    7  A    between atoms: C_6  and  O_7
REMARK    8  A    between atoms: O_7  and  C_8
REMARK    9  A    between atoms: C_10  and  C_11
REMARK   10  A    between atoms: C_11  and  O_12
REMARK   11  A    between atoms: O_12  and  C_13
REMARK   12  A    between atoms: C_13  and  C_14
REMARK   13  A    between atoms: C_14  and  O_15
REMARK   14  A    between atoms: O_15  and  C_16
REMARK                            x       y       z     vdW  Elec       q    Type
REMARK                         _______ _______ _______ _____ _____    ______ ____
ROOT
ATOM      1  O   UNL     1      35.455 -22.624 -17.729  0.00  0.00    -0.348 OA
ENDROOT
BRANCH   1   2
ATOM      2  C   UNL     1      35.328 -21.871 -18.929  0.00  0.00    +0.174 C 
BRANCH   2   3
ATOM      3  C   UNL     1      36.681 -21.291 -19.296  0.00  0.00    +0.174 C 
BRANCH   3   4
ATOM      4  O   UNL     1      36.508 -19.949 -19.728  0.00  0.00    -0.348 OA
BRANCH   4   5
ATOM      5  C   UNL     1      35.571 -19.862 -20.795  0.00  0.00    +0.174 C 
BRANCH   5   6
ATOM      6  C   UNL     1      35.774 -18.548 -21.526  0.00  0.00    +0.174 C 
BRANCH   6   7
ATOM      7  O   UNL     1      35.359 -17.480 -20.683  0.00  0.00    -0.351 OA
BRANCH   7   8
ATOM      8  C   UNL     1      34.674 -16.475 -21.417  0.00  0.00    +0.142 C 
ATOM      9  C   UNL     1      34.502 -15.254 -20.539  0.00  0.00    +0.035 C 
ENDBRANCH   7   8
ENDBRANCH   6   7
ENDBRANCH   5   6
ENDBRANCH   4   5
ENDBRANCH   3   4
ENDBRANCH   2   3
ENDBRANCH   1   2
BRANCH   1  10
ATOM     10  C   UNL     1      36.556 -22.180 -16.950  0.00  0.00    +0.174 C 
BRANCH  10  11
ATOM     11  C   UNL     1      36.772 -23.148 -15.802  0.00  0.00    +0.174 C 
BRANCH  11  12
ATOM     12  O   UNL     1      35.742 -24.129 -15.823  0.00  0.00    -0.348 OA
BRANCH  12  13
ATOM     13  C   UNL     1      36.024 -25.199 -14.931  0.00  0.00    +0.174 C 
BRANCH  13  14
ATOM     14  C   UNL     1      37.481 -25.594 -15.078  0.00  0.00    +0.174 C 
BRANCH  14  15
ATOM     15  O   UNL     1      37.929 -26.175 -13.859  0.00  0.00    -0.351 OA
BRANCH  15  16
ATOM     16  C   UNL     1      39.031 -25.461 -13.316  0.00  0.00    +0.142 C 
ATOM     17  C   UNL     1      40.245 -25.686 -14.192  0.00  0.00    +0.035 C 
ENDBRANCH  15  16
ENDBRANCH  14  15
ENDBRANCH  13  14
ENDBRANCH  12  13
ENDBRANCH  11  12
ENDBRANCH  10  11
ENDBRANCH   1  10
TORSDOF 14
ENDMDL
MODEL 5
REMARK VINA RESULT:      -5.4      5.250      9.144
REMARK  Name = 78057
REMARK  14 active torsions:
REMARK  status: ('A' for Active; 'I' for Inactive)
REMARK    1  A    between atoms: O_1  and  C_2
REMARK    2  A    between atoms: O_1  and  C_10
REMARK    3  A    between atoms: C_2  and  C_3
REMARK    4  A    between atoms: C_3  and  O_4
REMARK    5  A    between atoms: O_4  and  C_5
REMARK    6  A    between atoms: C_5  and  C_6
REMARK    7  A    between atoms: C_6  and  O_7
REMARK    8  A    between atoms: O_7  and  C_8
REMARK    9  A    between atoms: C_10  and  C_11
REMARK   10  A    between atoms: C_11  and  O_12
REMARK   11  A    between atoms: O_12  and  C_13
REMARK   12  A    between atoms: C_13  and  C_14
REMARK   13  A    between atoms: C_14  and  O_15
REMARK   14  A    between atoms: O_15  and  C_16
REMARK                            x       y       z     vdW  Elec       q    Type
REMARK                         _______ _______ _______ _____ _____    ______ ____
ROOT
ATOM      1  O   UNL     1      32.739 -21.614 -19.559  0.00  0.00    -0.348 OA
ENDROOT
BRANCH   1   2
ATOM      2  C   UNL     1      33.225 -20.483 -20.269  0.00  0.00    +0.174 C 
BRANCH   2   3
ATOM      3  C   UNL     1      34.741 -20.528 -20.296  0.00  0.00    +0.174 C 
BRANCH   3   4
ATOM      4  O   UNL     1      35.237 -19.241 -20.634  0.00  0.00    -0.348 OA
BRANCH   4   5
ATOM      5  C   UNL     1      34.556 -18.698 -21.758  0.00  0.00    +0.174 C 
BRANCH   5   6
ATOM      6  C   UNL     1      35.160 -17.350 -22.101  0.00  0.00    +0.174 C 
BRANCH   6   7
ATOM      7  O   UNL     1      34.112 -16.410 -22.303  0.00  0.00    -0.351 OA
BRANCH   7   8
ATOM      8  C   UNL     1      33.470 -16.076 -21.080  0.00  0.00    +0.142 C 
ATOM      9  C   UNL     1      32.627 -14.835 -21.289  0.00  0.00    +0.035 C 
ENDBRANCH   7   8
ENDBRANCH   6   7
ENDBRANCH   5   6
ENDBRANCH   4   5
ENDBRANCH   3   4
ENDBRANCH   2   3
ENDBRANCH   1   2
BRANCH   1  10
ATOM     10  C   UNL     1      33.756 -22.208 -18.765  0.00  0.00    +0.174 C 
BRANCH  10  11
ATOM     11  C   UNL     1      33.115 -23.136 -17.750  0.00  0.00    +0.174 C 
BRANCH  11  12
ATOM     12  O   UNL     1      31.846 -22.609 -17.379  0.00  0.00    -0.348 OA
BRANCH  12  13
ATOM     13  C   UNL     1      31.376 -23.191 -16.169  0.00  0.00    +0.174 C 
BRANCH  13  14
ATOM     14  C   UNL     1      29.932 -22.782 -15.953  0.00  0.00    +0.174 C 
BRANCH  14  15
ATOM     15  O   UNL     1      29.328 -22.524 -17.216  0.00  0.00    -0.351 OA
BRANCH  15  16
ATOM     16  C   UNL     1      27.916 -22.659 -17.155  0.00  0.00    +0.142 C 
ATOM     17  C   UNL     1      27.461 -22.452 -15.726  0.00  0.00    +0.035 C 
ENDBRANCH  15  16
ENDBRANCH  14  15
ENDBRANCH  13  14
ENDBRANCH  12  13
ENDBRANCH  11  12
ENDBRANCH  10  11
ENDBRANCH   1  10
TORSDOF 14
ENDMDL
MODEL 6
REMARK VINA RESULT:      -5.4      0.406      7.838
REMARK  Name = 78057
REMARK  14 active torsions:
REMARK  status: ('A' for Active; 'I' for Inactive)
REMARK    1  A    between atoms: O_1  and  C_2
REMARK    2  A    between atoms: O_1  and  C_10
REMARK    3  A    between atoms: C_2  and  C_3
REMARK    4  A    between atoms: C_3  and  O_4
REMARK    5  A    between atoms: O_4  and  C_5
REMARK    6  A    between atoms: C_5  and  C_6
REMARK    7  A    between atoms: C_6  and  O_7
REMARK    8  A    between atoms: O_7  and  C_8
REMARK    9  A    between atoms: C_10  and  C_11
REMARK   10  A    between atoms: C_11  and  O_12
REMARK   11  A    between atoms: O_12  and  C_13
REMARK   12  A    between atoms: C_13  and  C_14
REMARK   13  A    between atoms: C_14  and  O_15
REMARK   14  A    between atoms: O_15  and  C_16
REMARK                            x       y       z     vdW  Elec       q    Type
REMARK                         _______ _______ _______ _____ _____    ______ ____
ROOT
ATOM      1  O   UNL     1      35.661 -23.457 -16.071  0.00  0.00    -0.348 OA
ENDROOT
BRANCH   1   2
ATOM      2  C   UNL     1      36.769 -22.613 -15.783  0.00  0.00    +0.174 C 
BRANCH   2   3
ATOM      3  C   UNL     1      37.106 -21.799 -17.018  0.00  0.00    +0.174 C 
BRANCH   3   4
ATOM      4  O   UNL     1      36.207 -22.146 -18.061  0.00  0.00    -0.348 OA
BRANCH   4   5
ATOM      5  C   UNL     1      36.432 -21.362 -19.226  0.00  0.00    +0.174 C 
BRANCH   5   6
ATOM      6  C   UNL     1      35.097 -21.014 -19.856  0.00  0.00    +0.174 C 
BRANCH   6   7
ATOM      7  O   UNL     1      35.175 -19.710 -20.417  0.00  0.00    -0.351 OA
BRANCH   7   8
ATOM      8  C   UNL     1      34.002 -19.390 -21.153  0.00  0.00    +0.142 C 
ATOM      9  C   UNL     1      32.810 -20.052 -20.494  0.00  0.00    +0.035 C 
ENDBRANCH   7   8
ENDBRANCH   6   7
ENDBRANCH   5   6
ENDBRANCH   4   5
ENDBRANCH   3   4
ENDBRANCH   2   3
ENDBRANCH   1   2
BRANCH   1  10
ATOM     10  C   UNL     1      35.532 -24.494 -15.110  0.00  0.00    +0.174 C 
BRANCH  10  11
ATOM     11  C   UNL     1      35.548 -23.886 -13.720  0.00  0.00    +0.174 C 
BRANCH  11  12
ATOM     12  O   UNL     1      35.654 -24.929 -12.759  0.00  0.00    -0.348 OA
BRANCH  12  13
ATOM     13  C   UNL     1      36.980 -25.438 -12.688  0.00  0.00    +0.174 C 
BRANCH  13  14
ATOM     14  C   UNL     1      37.921 -24.313 -12.301  0.00  0.00    +0.174 C 
BRANCH  14  15
ATOM     15  O   UNL     1      39.152 -24.479 -12.996  0.00  0.00    -0.351 OA
BRANCH  15  16
ATOM     16  C   UNL     1      39.024 -25.402 -14.068  0.00  0.00    +0.142 C 
ATOM     17  C   UNL     1      40.402 -25.879 -14.474  0.00  0.00    +0.035 C 
ENDBRANCH  15  16
ENDBRANCH  14  15
ENDBRANCH  13  14
ENDBRANCH  12  13
ENDBRANCH  11  12
ENDBRANCH  10  11
ENDBRANCH   1  10
TORSDOF 14
ENDMDL
MODEL 7
REMARK VINA RESULT:      -5.4      5.055      8.140
REMARK  Name = 78057
REMARK  14 active torsions:
REMARK  status: ('A' for Active; 'I' for Inactive)
REMARK    1  A    between atoms: O_1  and  C_2
REMARK    2  A    between atoms: O_1  and  C_10
REMARK    3  A    between atoms: C_2  and  C_3
REMARK    4  A    between atoms: C_3  and  O_4
REMARK    5  A    between atoms: O_4  and  C_5
REMARK    6  A    between atoms: C_5  and  C_6
REMARK    7  A    between atoms: C_6  and  O_7
REMARK    8  A    between atoms: O_7  and  C_8
REMARK    9  A    between atoms: C_10  and  C_11
REMARK   10  A    between atoms: C_11  and  O_12
REMARK   11  A    between atoms: O_12  and  C_13
REMARK   12  A    between atoms: C_13  and  C_14
REMARK   13  A    between atoms: C_14  and  O_15
REMARK   14  A    between atoms: O_15  and  C_16
REMARK                            x       y       z     vdW  Elec       q    Type
REMARK                         _______ _______ _______ _____ _____    ______ ____
ROOT
ATOM      1  O   UNL     1      34.003 -18.305 -21.858  0.00  0.00    -0.348 OA
ENDROOT
BRANCH   1   2
ATOM      2  C   UNL     1      34.039 -19.632 -21.346  0.00  0.00    +0.174 C 
BRANCH   2   3
ATOM      3  C   UNL     1      32.705 -19.949 -20.696  0.00  0.00    +0.174 C 
BRANCH   3   4
ATOM      4  O   UNL     1      32.672 -21.327 -20.357  0.00  0.00    -0.348 OA
BRANCH   4   5
ATOM      5  C   UNL     1      33.092 -21.544 -19.015  0.00  0.00    +0.174 C 
BRANCH   5   6
ATOM      6  C   UNL     1      33.861 -22.850 -18.941  0.00  0.00    +0.174 C 
BRANCH   6   7
ATOM      7  O   UNL     1      35.153 -22.660 -19.504  0.00  0.00    -0.351 OA
BRANCH   7   8
ATOM      8  C   UNL     1      35.918 -21.732 -18.747  0.00  0.00    +0.142 C 
ATOM      9  C   UNL     1      36.772 -20.912 -19.691  0.00  0.00    +0.035 C 
ENDBRANCH   7   8
ENDBRANCH   6   7
ENDBRANCH   5   6
ENDBRANCH   4   5
ENDBRANCH   3   4
ENDBRANCH   2   3
ENDBRANCH   1   2
BRANCH   1  10
ATOM     10  C   UNL     1      34.949 -17.470 -21.207  0.00  0.00    +0.174 C 
BRANCH  10  11
ATOM     11  C   UNL     1      34.817 -16.058 -21.747  0.00  0.00    +0.174 C 
BRANCH  11  12
ATOM     12  O   UNL     1      35.347 -16.016 -23.066  0.00  0.00    -0.348 OA
BRANCH  12  13
ATOM     13  C   UNL     1      34.394 -15.514 -23.994  0.00  0.00    +0.174 C 
BRANCH  13  14
ATOM     14  C   UNL     1      34.330 -16.445 -25.189  0.00  0.00    +0.174 C 
BRANCH  14  15
ATOM     15  O   UNL     1      33.723 -15.761 -26.279  0.00  0.00    -0.351 OA
BRANCH  15  16
ATOM     16  C   UNL     1      33.075 -14.572 -25.850  0.00  0.00    +0.142 C 
ATOM     17  C   UNL     1      33.220 -13.516 -26.926  0.00  0.00    +0.035 C 
ENDBRANCH  15  16
ENDBRANCH  14  15
ENDBRANCH  13  14
ENDBRANCH  12  13
ENDBRANCH  11  12
ENDBRANCH  10  11
ENDBRANCH   1  10
TORSDOF 14
ENDMDL
MODEL 8
REMARK VINA RESULT:      -5.3      1.666      7.966
REMARK  Name = 78057
REMARK  14 active torsions:
REMARK  status: ('A' for Active; 'I' for Inactive)
REMARK    1  A    between atoms: O_1  and  C_2
REMARK    2  A    between atoms: O_1  and  C_10
REMARK    3  A    between atoms: C_2  and  C_3
REMARK    4  A    between atoms: C_3  and  O_4
REMARK    5  A    between atoms: O_4  and  C_5
REMARK    6  A    between atoms: C_5  and  C_6
REMARK    7  A    between atoms: C_6  and  O_7
REMARK    8  A    between atoms: O_7  and  C_8
REMARK    9  A    between atoms: C_10  and  C_11
REMARK   10  A    between atoms: C_11  and  O_12
REMARK   11  A    between atoms: O_12  and  C_13
REMARK   12  A    between atoms: C_13  and  C_14
REMARK   13  A    between atoms: C_14  and  O_15
REMARK   14  A    between atoms: O_15  and  C_16
REMARK                            x       y       z     vdW  Elec       q    Type
REMARK                         _______ _______ _______ _____ _____    ______ ____
ROOT
ATOM      1  O   UNL     1      34.487 -23.270 -18.443  0.00  0.00    -0.348 OA
ENDROOT
BRANCH   1   2
ATOM      2  C   UNL     1      34.837 -21.947 -18.830  0.00  0.00    +0.174 C 
BRANCH   2   3
ATOM      3  C   UNL     1      36.276 -21.678 -18.432  0.00  0.00    +0.174 C 
BRANCH   3   4
ATOM      4  O   UNL     1      36.706 -20.468 -19.039  0.00  0.00    -0.348 OA
BRANCH   4   5
ATOM      5  C   UNL     1      36.502 -20.489 -20.447  0.00  0.00    +0.174 C 
BRANCH   5   6
ATOM      6  C   UNL     1      36.286 -19.071 -20.938  0.00  0.00    +0.174 C 
BRANCH   6   7
ATOM      7  O   UNL     1      34.935 -18.697 -20.694  0.00  0.00    -0.351 OA
BRANCH   7   8
ATOM      8  C   UNL     1      34.037 -19.425 -21.521  0.00  0.00    +0.142 C 
ATOM      9  C   UNL     1      32.802 -19.776 -20.718  0.00  0.00    +0.035 C 
ENDBRANCH   7   8
ENDBRANCH   6   7
ENDBRANCH   5   6
ENDBRANCH   4   5
ENDBRANCH   3   4
ENDBRANCH   2   3
ENDBRANCH   1   2
BRANCH   1  10
ATOM     10  C   UNL     1      33.428 -23.274 -17.497  0.00  0.00    +0.174 C 
BRANCH  10  11
ATOM     11  C   UNL     1      34.015 -23.298 -16.098  0.00  0.00    +0.174 C 
BRANCH  11  12
ATOM     12  O   UNL     1      35.098 -24.220 -16.066  0.00  0.00    -0.348 OA
BRANCH  12  13
ATOM     13  C   UNL     1      36.176 -23.730 -15.280  0.00  0.00    +0.174 C 
BRANCH  13  14
ATOM     14  C   UNL     1      37.087 -24.886 -14.914  0.00  0.00    +0.174 C 
BRANCH  14  15
ATOM     15  O   UNL     1      38.373 -24.375 -14.580  0.00  0.00    -0.351 OA
BRANCH  15  16
ATOM     16  C   UNL     1      39.041 -25.216 -13.651  0.00  0.00    +0.142 C 
ATOM     17  C   UNL     1      40.364 -25.652 -14.244  0.00  0.00    +0.035 C 
ENDBRANCH  15  16
ENDBRANCH  14  15
ENDBRANCH  13  14
ENDBRANCH  12  13
ENDBRANCH  11  12
ENDBRANCH  10  11
ENDBRANCH   1  10
TORSDOF 14
ENDMDL
MODEL 9
REMARK VINA RESULT:      -5.3      8.316     11.681
REMARK  Name = 78057
REMARK  14 active torsions:
REMARK  status: ('A' for Active; 'I' for Inactive)
REMARK    1  A    between atoms: O_1  and  C_2
REMARK    2  A    between atoms: O_1  and  C_10
REMARK    3  A    between atoms: C_2  and  C_3
REMARK    4  A    between atoms: C_3  and  O_4
REMARK    5  A    between atoms: O_4  and  C_5
REMARK    6  A    between atoms: C_5  and  C_6
REMARK    7  A    between atoms: C_6  and  O_7
REMARK    8  A    between atoms: O_7  and  C_8
REMARK    9  A    between atoms: C_10  and  C_11
REMARK   10  A    between atoms: C_11  and  O_12
REMARK   11  A    between atoms: O_12  and  C_13
REMARK   12  A    between atoms: C_13  and  C_14
REMARK   13  A    between atoms: C_14  and  O_15
REMARK   14  A    between atoms: O_15  and  C_16
REMARK                            x       y       z     vdW  Elec       q    Type
REMARK                         _______ _______ _______ _____ _____    ______ ____
ROOT
ATOM      1  O   UNL     1      33.526 -16.236 -26.248  0.00  0.00    -0.348 OA
ENDROOT
BRANCH   1   2
ATOM      2  C   UNL     1      34.420 -16.591 -25.201  0.00  0.00    +0.174 C 
BRANCH   2   3
ATOM      3  C   UNL     1      34.464 -18.103 -25.079  0.00  0.00    +0.174 C 
BRANCH   3   4
ATOM      4  O   UNL     1      35.340 -18.456 -24.018  0.00  0.00    -0.348 OA
BRANCH   4   5
ATOM      5  C   UNL     1      34.627 -18.991 -22.909  0.00  0.00    +0.174 C 
BRANCH   5   6
ATOM      6  C   UNL     1      35.499 -18.907 -21.671  0.00  0.00    +0.174 C 
BRANCH   6   7
ATOM      7  O   UNL     1      35.597 -17.547 -21.265  0.00  0.00    -0.351 OA
BRANCH   7   8
ATOM      8  C   UNL     1      34.316 -16.942 -21.162  0.00  0.00    +0.142 C 
ATOM      9  C   UNL     1      34.481 -15.518 -20.675  0.00  0.00    +0.035 C 
ENDBRANCH   7   8
ENDBRANCH   6   7
ENDBRANCH   5   6
ENDBRANCH   4   5
ENDBRANCH   3   4
ENDBRANCH   2   3
ENDBRANCH   1   2
BRANCH   1  10
ATOM     10  C   UNL     1      33.246 -14.844 -26.244  0.00  0.00    +0.174 C 
BRANCH  10  11
ATOM     11  C   UNL     1      33.090 -14.374 -24.810  0.00  0.00    +0.174 C 
BRANCH  11  12
ATOM     12  O   UNL     1      33.685 -13.089 -24.677  0.00  0.00    -0.348 OA
BRANCH  12  13
ATOM     13  C   UNL     1      33.243 -12.431 -23.496  0.00  0.00    +0.174 C 
BRANCH  13  14
ATOM     14  C   UNL     1      32.292 -13.345 -22.747  0.00  0.00    +0.174 C 
BRANCH  14  15
ATOM     15  O   UNL     1      32.064 -12.812 -21.448  0.00  0.00    -0.351 OA
BRANCH  15  16
ATOM     16  C   UNL     1      31.491 -11.514 -21.510  0.00  0.00    +0.142 C 
ATOM     17  C   UNL     1      31.098 -11.081 -20.114  0.00  0.00    +0.035 C 
ENDBRANCH  15  16
ENDBRANCH  14  15
ENDBRANCH  13  14
ENDBRANCH  12  13
ENDBRANCH  11  12
ENDBRANCH  10  11
ENDBRANCH   1  10
TORSDOF 14
ENDMDL
