MODEL 1
REMARK VINA RESULT:     -11.1      0.000      0.000
REMARK  Name = 213046
REMARK  4 active torsions:
REMARK  status: ('A' for Active; 'I' for Inactive)
REMARK    1  A    between atoms: C_1  and  C_7
REMARK    2  A    between atoms: C_2  and  C_20
REMARK    3  A    between atoms: C_7  and  N_10
REMARK    4  A    between atoms: C_20  and  N_22
REMARK                            x       y       z     vdW  Elec       q    Type
REMARK                         _______ _______ _______ _____ _____    ______ ____
ROOT
ATOM      1  C   UNL     1      33.044  -9.361 -22.434  0.00  0.00    +0.018 C 
ATOM      2  C   UNL     1      32.669 -10.395 -23.526  0.00  0.00    -0.019 C 
ATOM      3  C   UNL     1      33.801  -8.171 -23.049  0.00  0.00    +0.002 C 
ATOM      4  C   UNL     1      33.915 -10.826 -24.319  0.00  0.00    -0.002 C 
ATOM      5  C   UNL     1      35.027  -8.619 -23.837  0.00  0.00    +0.000 C 
ATOM      6  C   UNL     1      34.658  -9.634 -24.911  0.00  0.00    -0.000 C 
ENDROOT
BRANCH   1   7
ATOM      7  C   UNL     1      31.820  -8.844 -21.673  0.00  0.00    +0.101 C 
BRANCH   7  10
ATOM      8  O   UNL     1      32.364  -6.201 -20.539  0.00  0.00    -0.274 OA
ATOM      9  O   UNL     1      30.336  -8.277 -24.142  0.00  0.00    -0.274 OA
ATOM     10  N   UNL     1      31.386  -7.555 -22.178  0.00  0.00    -0.230 N 
ATOM     11  C   UNL     1      32.145  -4.333 -23.030  0.00  0.00    +0.009 C 
ATOM     12  C   UNL     1      31.165  -5.336 -24.767  0.00  0.00    +0.009 C 
ATOM     13  C   UNL     1      31.097  -5.244 -22.360  0.00  0.00    +0.086 C 
ATOM     14  C   UNL     1      30.423  -5.934 -23.556  0.00  0.00    +0.086 C 
ATOM     15  C   UNL     1      32.592  -5.157 -24.240  0.00  0.00    +0.001 C 
ATOM     16  C   UNL     1      31.399  -3.176 -23.721  0.00  0.00    +0.001 C 
ATOM     17  C   UNL     1      30.723  -3.867 -24.919  0.00  0.00    +0.001 C 
ATOM     18  C   UNL     1      31.701  -6.365 -21.552  0.00  0.00    +0.231 C 
ATOM     19  C   UNL     1      30.684  -7.405 -23.357  0.00  0.00    +0.231 C 
ENDBRANCH   7  10
ENDBRANCH   1   7
BRANCH   2  20
ATOM     20  C   UNL     1      31.983 -11.636 -22.947  0.00  0.00    -0.077 C 
BRANCH  20  22
ATOM     21  S   UNL     1      35.512 -18.514 -20.986  0.00  0.00    +0.014 S 
ATOM     22  N   UNL     1      32.969 -12.568 -22.400  0.00  0.00    +0.389 N 
ATOM     23  N   UNL     1      34.154 -15.138 -21.991  0.00  0.00    -0.297 N 
ATOM     24  N   UNL     1      35.074 -16.938 -20.726  0.00  0.00    -0.194 NA
ATOM     25  C   UNL     1      32.315 -13.567 -21.544  0.00  0.00    -0.055 C 
ATOM     26  C   UNL     1      33.706 -13.234 -23.483  0.00  0.00    -0.055 C 
ATOM     27  C   UNL     1      33.349 -14.513 -20.933  0.00  0.00    +0.069 C 
ATOM     28  C   UNL     1      34.767 -14.189 -22.926  0.00  0.00    +0.069 C 
ATOM     29  C   UNL     1      34.605 -16.433 -21.868  0.00  0.00    +0.140 A 
ATOM     30  C   UNL     1      34.582 -17.307 -23.009  0.00  0.00    +0.040 A 
ATOM     31  C   UNL     1      35.082 -18.561 -22.651  0.00  0.00    +0.050 A 
ATOM     32  C   UNL     1      34.160 -17.106 -24.341  0.00  0.00    +0.003 C 
ATOM     33  C   UNL     1      35.177 -19.619 -23.569  0.00  0.00    +0.008 C 
ATOM     34  C   UNL     1      34.251 -18.154 -25.264  0.00  0.00    +0.000 C 
ATOM     35  C   UNL     1      34.753 -19.393 -24.881  0.00  0.00    +0.001 C 
ATOM     36  H   UNL     1      33.631 -12.037 -21.835  0.00  0.00    -0.080 HD
ENDBRANCH  20  22
ENDBRANCH   2  20
TORSDOF 4
ENDMDL
MODEL 2
REMARK VINA RESULT:     -11.1      1.905      3.228
REMARK  Name = 213046
REMARK  4 active torsions:
REMARK  status: ('A' for Active; 'I' for Inactive)
REMARK    1  A    between atoms: C_1  and  C_7
REMARK    2  A    between atoms: C_2  and  C_20
REMARK    3  A    between atoms: C_7  and  N_10
REMARK    4  A    between atoms: C_20  and  N_22
REMARK                            x       y       z     vdW  Elec       q    Type
REMARK                         _______ _______ _______ _____ _____    ______ ____
ROOT
ATOM      1  C   UNL     1      32.256  -9.043 -21.079  0.00  0.00    +0.018 C 
ATOM      2  C   UNL     1      32.425 -10.452 -21.702  0.00  0.00    -0.019 C 
ATOM      3  C   UNL     1      31.976  -9.146 -19.570  0.00  0.00    +0.002 C 
ATOM      4  C   UNL     1      31.210 -11.339 -21.380  0.00  0.00    -0.002 C 
ATOM      5  C   UNL     1      30.775 -10.035 -19.270  0.00  0.00    +0.000 C 
ATOM      6  C   UNL     1      30.942 -11.421 -19.881  0.00  0.00    -0.000 C 
ENDROOT
BRANCH   1   7
ATOM      7  C   UNL     1      33.480  -8.151 -21.308  0.00  0.00    +0.101 C 
BRANCH   7  10
ATOM      8  O   UNL     1      34.559  -7.648 -23.982  0.00  0.00    -0.274 OA
ATOM      9  O   UNL     1      31.523  -5.999 -20.904  0.00  0.00    -0.274 OA
ATOM     10  N   UNL     1      33.172  -7.046 -22.196  0.00  0.00    -0.230 N 
ATOM     11  C   UNL     1      32.310  -5.941 -25.313  0.00  0.00    +0.009 C 
ATOM     12  C   UNL     1      30.847  -5.146 -23.827  0.00  0.00    +0.009 C 
ATOM     13  C   UNL     1      33.187  -5.661 -24.077  0.00  0.00    +0.086 C 
ATOM     14  C   UNL     1      32.179  -5.114 -23.055  0.00  0.00    +0.086 C 
ATOM     15  C   UNL     1      30.985  -6.398 -24.698  0.00  0.00    +0.001 C 
ATOM     16  C   UNL     1      31.900  -4.588 -25.924  0.00  0.00    +0.001 C 
ATOM     17  C   UNL     1      30.890  -4.039 -24.899  0.00  0.00    +0.001 C 
ATOM     18  C   UNL     1      33.750  -6.908 -23.442  0.00  0.00    +0.231 C 
ATOM     19  C   UNL     1      32.230  -6.081 -21.900  0.00  0.00    +0.231 C 
ENDBRANCH   7  10
ENDBRANCH   1   7
BRANCH   2  20
ATOM     20  C   UNL     1      32.626 -10.402 -23.219  0.00  0.00    -0.077 C 
BRANCH  20  22
ATOM     21  S   UNL     1      34.677 -17.839 -25.239  0.00  0.00    +0.014 S 
ATOM     22  N   UNL     1      32.541 -11.741 -23.801  0.00  0.00    +0.389 N 
ATOM     23  N   UNL     1      33.390 -14.438 -24.226  0.00  0.00    -0.297 N 
ATOM     24  N   UNL     1      33.968 -16.366 -25.504  0.00  0.00    -0.194 NA
ATOM     25  C   UNL     1      33.736 -12.033 -24.603  0.00  0.00    -0.055 C 
ATOM     26  C   UNL     1      32.379 -12.752 -22.747  0.00  0.00    -0.055 C 
ATOM     27  C   UNL     1      33.628 -13.413 -25.251  0.00  0.00    +0.069 C 
ATOM     28  C   UNL     1      32.254 -14.158 -23.341  0.00  0.00    +0.069 C 
ATOM     29  C   UNL     1      33.922 -15.702 -24.349  0.00  0.00    +0.140 A 
ATOM     30  C   UNL     1      34.462 -16.364 -23.192  0.00  0.00    +0.040 A 
ATOM     31  C   UNL     1      34.943 -17.624 -23.553  0.00  0.00    +0.050 A 
ATOM     32  C   UNL     1      34.574 -15.962 -21.843  0.00  0.00    +0.003 C 
ATOM     33  C   UNL     1      35.529 -18.497 -22.622  0.00  0.00    +0.008 C 
ATOM     34  C   UNL     1      35.157 -16.824 -20.907  0.00  0.00    +0.000 C 
ATOM     35  C   UNL     1      35.627 -18.075 -21.294  0.00  0.00    +0.001 C 
ATOM     36  H   UNL     1      31.724 -11.773 -24.410  0.00  0.00    -0.080 HD
ENDBRANCH  20  22
ENDBRANCH   2  20
TORSDOF 4
ENDMDL
MODEL 3
REMARK VINA RESULT:     -11.0      2.017      3.083
REMARK  Name = 213046
REMARK  4 active torsions:
REMARK  status: ('A' for Active; 'I' for Inactive)
REMARK    1  A    between atoms: C_1  and  C_7
REMARK    2  A    between atoms: C_2  and  C_20
REMARK    3  A    between atoms: C_7  and  N_10
REMARK    4  A    between atoms: C_20  and  N_22
REMARK                            x       y       z     vdW  Elec       q    Type
REMARK                         _______ _______ _______ _____ _____    ______ ____
ROOT
ATOM      1  C   UNL     1      31.216  -7.489 -22.775  0.00  0.00    +0.018 C 
ATOM      2  C   UNL     1      32.147  -8.647 -22.335  0.00  0.00    -0.019 C 
ATOM      3  C   UNL     1      31.684  -6.154 -22.168  0.00  0.00    +0.002 C 
ATOM      4  C   UNL     1      32.267  -8.698 -20.802  0.00  0.00    -0.002 C 
ATOM      5  C   UNL     1      31.805  -6.227 -20.650  0.00  0.00    +0.000 C 
ATOM      6  C   UNL     1      32.721  -7.365 -20.219  0.00  0.00    -0.000 C 
ENDROOT
BRANCH   1   7
ATOM      7  C   UNL     1      31.131  -7.351 -24.297  0.00  0.00    +0.101 C 
BRANCH   7  10
ATOM      8  O   UNL     1      33.973  -7.330 -24.995  0.00  0.00    -0.274 OA
ATOM      9  O   UNL     1      30.213  -4.635 -24.931  0.00  0.00    -0.274 OA
ATOM     10  N   UNL     1      31.919  -6.231 -24.774  0.00  0.00    -0.230 N 
ATOM     11  C   UNL     1      34.158  -4.968 -27.026  0.00  0.00    +0.009 C 
ATOM     12  C   UNL     1      32.344  -3.668 -26.994  0.00  0.00    +0.009 C 
ATOM     13  C   UNL     1      33.742  -4.988 -25.542  0.00  0.00    +0.086 C 
ATOM     14  C   UNL     1      32.493  -4.093 -25.521  0.00  0.00    +0.086 C 
ATOM     15  C   UNL     1      32.815  -4.908 -27.759  0.00  0.00    +0.001 C 
ATOM     16  C   UNL     1      34.728  -3.572 -27.343  0.00  0.00    +0.001 C 
ATOM     17  C   UNL     1      33.476  -2.675 -27.321  0.00  0.00    +0.001 C 
ATOM     18  C   UNL     1      33.264  -6.337 -25.068  0.00  0.00    +0.231 C 
ATOM     19  C   UNL     1      31.380  -4.987 -25.035  0.00  0.00    +0.231 C 
ENDBRANCH   7  10
ENDBRANCH   1   7
BRANCH   2  20
ATOM     20  C   UNL     1      31.672 -10.008 -22.851  0.00  0.00    -0.077 C 
BRANCH  20  22
ATOM     21  S   UNL     1      34.378 -17.369 -21.398  0.00  0.00    +0.014 S 
ATOM     22  N   UNL     1      32.482 -11.089 -22.289  0.00  0.00    +0.389 N 
ATOM     23  N   UNL     1      33.424 -13.781 -22.084  0.00  0.00    -0.297 N 
ATOM     24  N   UNL     1      33.985 -15.817 -20.975  0.00  0.00    -0.194 NA
ATOM     25  C   UNL     1      31.622 -12.144 -21.735  0.00  0.00    -0.055 C 
ATOM     26  C   UNL     1      33.375 -11.650 -23.311  0.00  0.00    -0.055 C 
ATOM     27  C   UNL     1      32.466 -13.252 -21.104  0.00  0.00    +0.069 C 
ATOM     28  C   UNL     1      34.256 -12.761 -22.731  0.00  0.00    +0.069 C 
ATOM     29  C   UNL     1      33.772 -15.114 -22.088  0.00  0.00    +0.140 A 
ATOM     30  C   UNL     1      33.920 -15.807 -23.338  0.00  0.00    +0.040 A 
ATOM     31  C   UNL     1      34.273 -17.137 -23.099  0.00  0.00    +0.050 A 
ATOM     32  C   UNL     1      33.773 -15.380 -24.676  0.00  0.00    +0.003 C 
ATOM     33  C   UNL     1      34.484 -18.055 -24.141  0.00  0.00    +0.008 C 
ATOM     34  C   UNL     1      33.982 -16.287 -25.722  0.00  0.00    +0.000 C 
ATOM     35  C   UNL     1      34.333 -17.606 -25.455  0.00  0.00    +0.001 C 
ATOM     36  H   UNL     1      33.051 -10.703 -21.536  0.00  0.00    -0.080 HD
ENDBRANCH  20  22
ENDBRANCH   2  20
TORSDOF 4
ENDMDL
MODEL 4
REMARK VINA RESULT:     -10.7      2.389      3.784
REMARK  Name = 213046
REMARK  4 active torsions:
REMARK  status: ('A' for Active; 'I' for Inactive)
REMARK    1  A    between atoms: C_1  and  C_7
REMARK    2  A    between atoms: C_2  and  C_20
REMARK    3  A    between atoms: C_7  and  N_10
REMARK    4  A    between atoms: C_20  and  N_22
REMARK                            x       y       z     vdW  Elec       q    Type
REMARK                         _______ _______ _______ _____ _____    ______ ____
ROOT
ATOM      1  C   UNL     1      33.835 -12.446 -23.912  0.00  0.00    +0.018 C 
ATOM      2  C   UNL     1      32.665 -13.461 -23.867  0.00  0.00    -0.019 C 
ATOM      3  C   UNL     1      33.874 -11.722 -25.270  0.00  0.00    +0.002 C 
ATOM      4  C   UNL     1      32.739 -14.432 -25.059  0.00  0.00    -0.002 C 
ATOM      5  C   UNL     1      33.938 -12.700 -26.438  0.00  0.00    +0.000 C 
ATOM      6  C   UNL     1      32.787 -13.696 -26.393  0.00  0.00    -0.000 C 
ENDROOT
BRANCH   1   7
ATOM      7  C   UNL     1      33.756 -11.410 -22.788  0.00  0.00    +0.101 C 
BRANCH   7  10
ATOM      8  O   UNL     1      30.969 -10.523 -22.697  0.00  0.00    -0.274 OA
ATOM      9  O   UNL     1      35.207  -9.117 -23.908  0.00  0.00    -0.274 OA
ATOM     10  N   UNL     1      33.209 -10.153 -23.261  0.00  0.00    -0.230 N 
ATOM     11  C   UNL     1      31.244  -7.414 -22.701  0.00  0.00    +0.009 C 
ATOM     12  C   UNL     1      33.289  -6.737 -23.287  0.00  0.00    +0.009 C 
ATOM     13  C   UNL     1      31.672  -8.462 -23.747  0.00  0.00    +0.086 C 
ATOM     14  C   UNL     1      33.079  -7.996 -24.149  0.00  0.00    +0.086 C 
ATOM     15  C   UNL     1      32.558  -7.085 -21.987  0.00  0.00    +0.001 C 
ATOM     16  C   UNL     1      30.971  -6.089 -23.439  0.00  0.00    +0.001 C 
ATOM     17  C   UNL     1      32.382  -5.622 -23.842  0.00  0.00    +0.001 C 
ATOM     18  C   UNL     1      31.867  -9.843 -23.170  0.00  0.00    +0.231 C 
ATOM     19  C   UNL     1      33.990  -9.139 -23.778  0.00  0.00    +0.231 C 
ENDBRANCH   7  10
ENDBRANCH   1   7
BRANCH   2  20
ATOM     20  C   UNL     1      32.636 -14.264 -22.563  0.00  0.00    -0.077 C 
BRANCH  20  22
ATOM     21  S   UNL     1      37.120 -20.384 -20.105  0.00  0.00    +0.014 S 
ATOM     22  N   UNL     1      33.685 -15.283 -22.554  0.00  0.00    +0.389 N 
ATOM     23  N   UNL     1      35.018 -17.619 -21.584  0.00  0.00    -0.297 N 
ATOM     24  N   UNL     1      36.873 -18.919 -20.837  0.00  0.00    -0.194 NA
ATOM     25  C   UNL     1      34.426 -15.250 -21.286  0.00  0.00    -0.055 C 
ATOM     26  C   UNL     1      33.110 -16.617 -22.771  0.00  0.00    -0.055 C 
ATOM     27  C   UNL     1      35.555 -16.282 -21.294  0.00  0.00    +0.069 C 
ATOM     28  C   UNL     1      34.200 -17.694 -22.798  0.00  0.00    +0.069 C 
ATOM     29  C   UNL     1      35.561 -18.743 -21.002  0.00  0.00    +0.140 A 
ATOM     30  C   UNL     1      34.696 -19.794 -20.539  0.00  0.00    +0.040 A 
ATOM     31  C   UNL     1      35.461 -20.824 -19.988  0.00  0.00    +0.050 A 
ATOM     32  C   UNL     1      33.291 -19.934 -20.554  0.00  0.00    +0.003 C 
ATOM     33  C   UNL     1      34.880 -21.985 -19.454  0.00  0.00    +0.008 C 
ATOM     34  C   UNL     1      32.702 -21.087 -20.025  0.00  0.00    +0.000 C 
ATOM     35  C   UNL     1      33.488 -22.098 -19.482  0.00  0.00    +0.001 C 
ATOM     36  H   UNL     1      34.332 -15.081 -23.316  0.00  0.00    -0.080 HD
ENDBRANCH  20  22
ENDBRANCH   2  20
TORSDOF 4
ENDMDL
MODEL 5
REMARK VINA RESULT:     -10.6      1.432      2.574
REMARK  Name = 213046
REMARK  4 active torsions:
REMARK  status: ('A' for Active; 'I' for Inactive)
REMARK    1  A    between atoms: C_1  and  C_7
REMARK    2  A    between atoms: C_2  and  C_20
REMARK    3  A    between atoms: C_7  and  N_10
REMARK    4  A    between atoms: C_20  and  N_22
REMARK                            x       y       z     vdW  Elec       q    Type
REMARK                         _______ _______ _______ _____ _____    ______ ____
ROOT
ATOM      1  C   UNL     1      31.943  -9.651 -21.687  0.00  0.00    +0.018 C 
ATOM      2  C   UNL     1      32.261 -10.944 -20.895  0.00  0.00    -0.019 C 
ATOM      3  C   UNL     1      32.141  -8.408 -20.801  0.00  0.00    +0.002 C 
ATOM      4  C   UNL     1      31.442 -11.002 -19.594  0.00  0.00    -0.002 C 
ATOM      5  C   UNL     1      31.328  -8.488 -19.514  0.00  0.00    +0.000 C 
ATOM      6  C   UNL     1      31.643  -9.759 -18.735  0.00  0.00    -0.000 C 
ENDROOT
BRANCH   1   7
ATOM      7  C   UNL     1      32.795  -9.512 -22.951  0.00  0.00    +0.101 C 
BRANCH   7  10
ATOM      8  O   UNL     1      30.181  -8.540 -23.837  0.00  0.00    -0.274 OA
ATOM      9  O   UNL     1      34.651  -7.357 -23.681  0.00  0.00    -0.274 OA
ATOM     10  N   UNL     1      32.499  -8.281 -23.659  0.00  0.00    -0.230 N 
ATOM     11  C   UNL     1      30.607  -5.450 -23.953  0.00  0.00    +0.009 C 
ATOM     12  C   UNL     1      32.764  -4.881 -23.878  0.00  0.00    +0.009 C 
ATOM     13  C   UNL     1      31.294  -6.590 -24.730  0.00  0.00    +0.086 C 
ATOM     14  C   UNL     1      32.779  -6.198 -24.678  0.00  0.00    +0.086 C 
ATOM     15  C   UNL     1      31.632  -5.105 -22.870  0.00  0.00    +0.001 C 
ATOM     16  C   UNL     1      30.659  -4.181 -24.823  0.00  0.00    +0.001 C 
ATOM     17  C   UNL     1      32.147  -3.787 -24.772  0.00  0.00    +0.001 C 
ATOM     18  C   UNL     1      31.219  -7.926 -24.033  0.00  0.00    +0.231 C 
ATOM     19  C   UNL     1      33.458  -7.333 -23.956  0.00  0.00    +0.231 C 
ENDBRANCH   7  10
ENDBRANCH   1   7
BRANCH   2  20
ATOM     20  C   UNL     1      32.001 -12.211 -21.714  0.00  0.00    -0.077 C 
BRANCH  20  22
ATOM     21  S   UNL     1      35.444 -19.394 -21.330  0.00  0.00    +0.014 S 
ATOM     22  N   UNL     1      32.970 -13.255 -21.382  0.00  0.00    +0.389 N 
ATOM     23  N   UNL     1      34.128 -15.863 -21.554  0.00  0.00    -0.297 N 
ATOM     24  N   UNL     1      35.014 -17.915 -20.722  0.00  0.00    -0.194 NA
ATOM     25  C   UNL     1      32.295 -14.415 -20.785  0.00  0.00    -0.055 C 
ATOM     26  C   UNL     1      33.718 -13.664 -22.578  0.00  0.00    -0.055 C 
ATOM     27  C   UNL     1      33.312 -15.488 -20.392  0.00  0.00    +0.069 C 
ATOM     28  C   UNL     1      34.762 -14.734 -22.241  0.00  0.00    +0.069 C 
ATOM     29  C   UNL     1      34.567 -17.158 -21.725  0.00  0.00    +0.140 A 
ATOM     30  C   UNL     1      34.554 -17.748 -23.035  0.00  0.00    +0.040 A 
ATOM     31  C   UNL     1      35.038 -19.056 -22.967  0.00  0.00    +0.050 A 
ATOM     32  C   UNL     1      34.154 -17.244 -24.292  0.00  0.00    +0.003 C 
ATOM     33  C   UNL     1      35.139 -19.878 -24.101  0.00  0.00    +0.008 C 
ATOM     34  C   UNL     1      34.250 -18.054 -25.429  0.00  0.00    +0.000 C 
ATOM     35  C   UNL     1      34.737 -19.354 -25.332  0.00  0.00    +0.001 C 
ATOM     36  H   UNL     1      33.628 -12.874 -20.702  0.00  0.00    -0.080 HD
ENDBRANCH  20  22
ENDBRANCH   2  20
TORSDOF 4
ENDMDL
MODEL 6
REMARK VINA RESULT:     -10.2      3.754     10.814
REMARK  Name = 213046
REMARK  4 active torsions:
REMARK  status: ('A' for Active; 'I' for Inactive)
REMARK    1  A    between atoms: C_1  and  C_7
REMARK    2  A    between atoms: C_2  and  C_20
REMARK    3  A    between atoms: C_7  and  N_10
REMARK    4  A    between atoms: C_20  and  N_22
REMARK                            x       y       z     vdW  Elec       q    Type
REMARK                         _______ _______ _______ _____ _____    ______ ____
ROOT
ATOM      1  C   UNL     1      32.976 -13.028 -22.614  0.00  0.00    +0.018 C 
ATOM      2  C   UNL     1      32.217 -11.683 -22.487  0.00  0.00    -0.019 C 
ATOM      3  C   UNL     1      32.328 -14.103 -21.724  0.00  0.00    +0.002 C 
ATOM      4  C   UNL     1      32.110 -11.253 -21.014  0.00  0.00    -0.002 C 
ATOM      5  C   UNL     1      32.224 -13.657 -20.270  0.00  0.00    +0.000 C 
ATOM      6  C   UNL     1      31.476 -12.335 -20.147  0.00  0.00    -0.000 C 
ENDROOT
BRANCH   1   7
ATOM      7  C   UNL     1      33.037 -13.533 -24.058  0.00  0.00    +0.101 C 
BRANCH   7  10
ATOM      8  O   UNL     1      35.107 -14.460 -22.208  0.00  0.00    -0.274 OA
ATOM      9  O   UNL     1      32.895 -15.641 -26.097  0.00  0.00    -0.274 OA
ATOM     10  N   UNL     1      33.857 -14.725 -24.169  0.00  0.00    -0.230 N 
ATOM     11  C   UNL     1      35.153 -17.538 -22.724  0.00  0.00    +0.009 C 
ATOM     12  C   UNL     1      34.086 -18.107 -24.601  0.00  0.00    +0.009 C 
ATOM     13  C   UNL     1      35.453 -16.356 -23.667  0.00  0.00    +0.086 C 
ATOM     14  C   UNL     1      34.718 -16.748 -24.958  0.00  0.00    +0.086 C 
ATOM     15  C   UNL     1      33.730 -17.941 -23.120  0.00  0.00    +0.001 C 
ATOM     16  C   UNL     1      35.952 -18.758 -23.220  0.00  0.00    +0.001 C 
ATOM     17  C   UNL     1      35.216 -19.150 -24.514  0.00  0.00    +0.001 C 
ATOM     18  C   UNL     1      34.813 -15.061 -23.231  0.00  0.00    +0.231 C 
ATOM     19  C   UNL     1      33.706 -15.652 -25.180  0.00  0.00    +0.231 C 
ENDBRANCH   7  10
ENDBRANCH   1   7
BRANCH   2  20
ATOM     20  C   UNL     1      32.876 -10.560 -23.295  0.00  0.00    -0.077 C 
BRANCH  20  22
ATOM     21  S   UNL     1      31.365  -2.730 -23.291  0.00  0.00    +0.014 S 
ATOM     22  N   UNL     1      32.156  -9.299 -23.117  0.00  0.00    +0.389 N 
ATOM     23  N   UNL     1      31.758  -6.482 -23.402  0.00  0.00    -0.297 N 
ATOM     24  N   UNL     1      31.272  -4.264 -22.675  0.00  0.00    -0.194 NA
ATOM     25  C   UNL     1      32.968  -8.346 -22.348  0.00  0.00    -0.055 C 
ATOM     26  C   UNL     1      31.795  -8.723 -24.419  0.00  0.00    -0.055 C 
ATOM     27  C   UNL     1      32.199  -7.045 -22.119  0.00  0.00    +0.069 C 
ATOM     28  C   UNL     1      31.011  -7.417 -24.249  0.00  0.00    +0.069 C 
ATOM     29  C   UNL     1      31.706  -5.120 -23.600  0.00  0.00    +0.140 A 
ATOM     30  C   UNL     1      32.134  -4.566 -24.855  0.00  0.00    +0.040 A 
ATOM     31  C   UNL     1      31.995  -3.177 -24.828  0.00  0.00    +0.050 A 
ATOM     32  C   UNL     1      32.640  -5.168 -26.029  0.00  0.00    +0.003 C 
ATOM     33  C   UNL     1      32.338  -2.367 -25.923  0.00  0.00    +0.008 C 
ATOM     34  C   UNL     1      32.985  -4.370 -27.126  0.00  0.00    +0.000 C 
ATOM     35  C   UNL     1      32.835  -2.989 -27.071  0.00  0.00    +0.001 C 
ATOM     36  H   UNL     1      31.300  -9.491 -22.598  0.00  0.00    -0.080 HD
ENDBRANCH  20  22
ENDBRANCH   2  20
TORSDOF 4
ENDMDL
MODEL 7
REMARK VINA RESULT:     -10.1      4.446     11.592
REMARK  Name = 213046
REMARK  4 active torsions:
REMARK  status: ('A' for Active; 'I' for Inactive)
REMARK    1  A    between atoms: C_1  and  C_7
REMARK    2  A    between atoms: C_2  and  C_20
REMARK    3  A    between atoms: C_7  and  N_10
REMARK    4  A    between atoms: C_20  and  N_22
REMARK                            x       y       z     vdW  Elec       q    Type
REMARK                         _______ _______ _______ _____ _____    ______ ____
ROOT
ATOM      1  C   UNL     1      34.940 -18.435 -23.088  0.00  0.00    +0.018 C 
ATOM      2  C   UNL     1      35.009 -16.942 -23.497  0.00  0.00    -0.019 C 
ATOM      3  C   UNL     1      35.032 -19.343 -24.327  0.00  0.00    +0.002 C 
ATOM      4  C   UNL     1      33.941 -16.617 -24.555  0.00  0.00    -0.002 C 
ATOM      5  C   UNL     1      33.972 -19.001 -25.368  0.00  0.00    +0.000 C 
ATOM      6  C   UNL     1      34.041 -17.533 -25.770  0.00  0.00    -0.000 C 
ENDROOT
BRANCH   1   7
ATOM      7  C   UNL     1      36.039 -18.822 -22.094  0.00  0.00    +0.101 C 
BRANCH   7  10
ATOM      8  O   UNL     1      33.226 -19.367 -21.496  0.00  0.00    -0.274 OA
ATOM      9  O   UNL     1      37.509 -20.195 -19.956  0.00  0.00    -0.274 OA
ATOM     10  N   UNL     1      35.496 -19.541 -20.957  0.00  0.00    -0.230 N 
ATOM     11  C   UNL     1      33.390 -21.941 -19.739  0.00  0.00    +0.009 C 
ATOM     12  C   UNL     1      35.456 -22.339 -18.996  0.00  0.00    +0.009 C 
ATOM     13  C   UNL     1      33.954 -20.526 -19.505  0.00  0.00    +0.086 C 
ATOM     14  C   UNL     1      35.376 -20.800 -18.994  0.00  0.00    +0.086 C 
ATOM     15  C   UNL     1      34.615 -22.724 -20.216  0.00  0.00    +0.001 C 
ATOM     16  C   UNL     1      33.143 -22.589 -18.364  0.00  0.00    +0.001 C 
ATOM     17  C   UNL     1      34.568 -22.864 -17.851  0.00  0.00    +0.001 C 
ATOM     18  C   UNL     1      34.141 -19.734 -20.775  0.00  0.00    +0.231 C 
ATOM     19  C   UNL     1      36.287 -20.148 -20.002  0.00  0.00    +0.231 C 
ENDBRANCH   7  10
ENDBRANCH   1   7
BRANCH   2  20
ATOM     20  C   UNL     1      34.840 -15.999 -22.302  0.00  0.00    -0.077 C 
BRANCH  20  22
ATOM     21  S   UNL     1      30.969  -9.032 -22.572  0.00  0.00    +0.014 S 
ATOM     22  N   UNL     1      33.777 -15.026 -22.552  0.00  0.00    +0.389 N 
ATOM     23  N   UNL     1      32.666 -12.400 -22.751  0.00  0.00    -0.297 N 
ATOM     24  N   UNL     1      31.072 -10.670 -22.354  0.00  0.00    -0.194 NA
ATOM     25  C   UNL     1      33.509 -14.233 -21.346  0.00  0.00    -0.055 C 
ATOM     26  C   UNL     1      34.139 -14.143 -23.669  0.00  0.00    -0.055 C 
ATOM     27  C   UNL     1      32.365 -13.248 -21.590  0.00  0.00    +0.069 C 
ATOM     28  C   UNL     1      33.021 -13.138 -23.967  0.00  0.00    +0.069 C 
ATOM     29  C   UNL     1      32.262 -11.083 -22.792  0.00  0.00    +0.140 A 
ATOM     30  C   UNL     1      33.146 -10.083 -23.326  0.00  0.00    +0.040 A 
ATOM     31  C   UNL     1      32.530  -8.831 -23.265  0.00  0.00    +0.050 A 
ATOM     32  C   UNL     1      34.449 -10.167 -23.864  0.00  0.00    +0.003 C 
ATOM     33  C   UNL     1      33.163  -7.663 -23.719  0.00  0.00    +0.008 C 
ATOM     34  C   UNL     1      35.088  -9.008 -24.319  0.00  0.00    +0.000 C 
ATOM     35  C   UNL     1      34.452  -7.774 -24.247  0.00  0.00    +0.001 C 
ATOM     36  H   UNL     1      32.930 -15.536 -22.803  0.00  0.00    -0.080 HD
ENDBRANCH  20  22
ENDBRANCH   2  20
TORSDOF 4
ENDMDL
MODEL 8
REMARK VINA RESULT:      -9.9      6.910     11.047
REMARK  Name = 213046
REMARK  4 active torsions:
REMARK  status: ('A' for Active; 'I' for Inactive)
REMARK    1  A    between atoms: C_1  and  C_7
REMARK    2  A    between atoms: C_2  and  C_20
REMARK    3  A    between atoms: C_7  and  N_10
REMARK    4  A    between atoms: C_20  and  N_22
REMARK                            x       y       z     vdW  Elec       q    Type
REMARK                         _______ _______ _______ _____ _____    ______ ____
ROOT
ATOM      1  C   UNL     1      34.825 -19.658 -21.461  0.00  0.00    +0.018 C 
ATOM      2  C   UNL     1      34.711 -20.179 -20.006  0.00  0.00    -0.019 C 
ATOM      3  C   UNL     1      33.532 -18.940 -21.885  0.00  0.00    +0.002 C 
ATOM      4  C   UNL     1      33.459 -21.057 -19.839  0.00  0.00    -0.002 C 
ATOM      5  C   UNL     1      32.302 -19.823 -21.704  0.00  0.00    +0.000 C 
ATOM      6  C   UNL     1      32.190 -20.333 -20.273  0.00  0.00    -0.000 C 
ENDROOT
BRANCH   1   7
ATOM      7  C   UNL     1      36.015 -18.713 -21.653  0.00  0.00    +0.101 C 
BRANCH   7  10
ATOM      8  O   UNL     1      35.450 -17.642 -24.318  0.00  0.00    -0.274 OA
ATOM      9  O   UNL     1      35.347 -16.509 -19.833  0.00  0.00    -0.274 OA
ATOM     10  N   UNL     1      35.579 -17.373 -21.997  0.00  0.00    -0.230 N 
ATOM     11  C   UNL     1      33.436 -15.336 -23.711  0.00  0.00    +0.009 C 
ATOM     12  C   UNL     1      33.387 -14.790 -21.547  0.00  0.00    +0.009 C 
ATOM     13  C   UNL     1      34.899 -15.535 -23.269  0.00  0.00    +0.086 C 
ATOM     14  C   UNL     1      34.865 -15.160 -21.780  0.00  0.00    +0.086 C 
ATOM     15  C   UNL     1      32.642 -15.757 -22.471  0.00  0.00    +0.001 C 
ATOM     16  C   UNL     1      33.149 -13.823 -23.743  0.00  0.00    +0.001 C 
ATOM     17  C   UNL     1      33.116 -13.446 -22.250  0.00  0.00    +0.001 C 
ATOM     18  C   UNL     1      35.346 -16.976 -23.298  0.00  0.00    +0.231 C 
ATOM     19  C   UNL     1      35.296 -16.408 -21.052  0.00  0.00    +0.231 C 
ENDBRANCH   7  10
ENDBRANCH   1   7
BRANCH   2  20
ATOM     20  C   UNL     1      35.947 -20.971 -19.568  0.00  0.00    -0.077 C 
BRANCH  20  22
ATOM     21  S   UNL     1      36.587 -25.106 -12.779  0.00  0.00    +0.014 S 
ATOM     22  N   UNL     1      35.882 -21.291 -18.143  0.00  0.00    +0.389 N 
ATOM     23  N   UNL     1      36.396 -22.875 -15.819  0.00  0.00    -0.297 N 
ATOM     24  N   UNL     1      35.855 -24.031 -13.804  0.00  0.00    -0.194 NA
ATOM     25  C   UNL     1      35.175 -22.561 -17.930  0.00  0.00    -0.055 C 
ATOM     26  C   UNL     1      37.232 -21.361 -17.568  0.00  0.00    -0.055 C 
ATOM     27  C   UNL     1      35.064 -22.873 -16.438  0.00  0.00    +0.069 C 
ATOM     28  C   UNL     1      37.182 -21.662 -16.067  0.00  0.00    +0.069 C 
ATOM     29  C   UNL     1      36.701 -23.743 -14.794  0.00  0.00    +0.140 A 
ATOM     30  C   UNL     1      37.987 -24.384 -14.762  0.00  0.00    +0.040 A 
ATOM     31  C   UNL     1      38.072 -25.214 -13.642  0.00  0.00    +0.050 A 
ATOM     32  C   UNL     1      39.099 -24.309 -15.629  0.00  0.00    +0.003 C 
ATOM     33  C   UNL     1      39.220 -25.969 -13.354  0.00  0.00    +0.008 C 
ATOM     34  C   UNL     1      40.249 -25.058 -15.352  0.00  0.00    +0.000 C 
ATOM     35  C   UNL     1      40.306 -25.876 -14.228  0.00  0.00    +0.001 C 
ATOM     36  H   UNL     1      35.367 -20.547 -17.672  0.00  0.00    -0.080 HD
ENDBRANCH  20  22
ENDBRANCH   2  20
TORSDOF 4
ENDMDL
MODEL 9
REMARK VINA RESULT:      -9.9      1.726      2.192
REMARK  Name = 213046
REMARK  4 active torsions:
REMARK  status: ('A' for Active; 'I' for Inactive)
REMARK    1  A    between atoms: C_1  and  C_7
REMARK    2  A    between atoms: C_2  and  C_20
REMARK    3  A    between atoms: C_7  and  N_10
REMARK    4  A    between atoms: C_20  and  N_22
REMARK                            x       y       z     vdW  Elec       q    Type
REMARK                         _______ _______ _______ _____ _____    ______ ____
ROOT
ATOM      1  C   UNL     1      33.196 -10.535 -22.608  0.00  0.00    +0.018 C 
ATOM      2  C   UNL     1      32.777 -11.807 -23.386  0.00  0.00    -0.019 C 
ATOM      3  C   UNL     1      33.582  -9.405 -23.579  0.00  0.00    +0.002 C 
ATOM      4  C   UNL     1      33.874 -12.224 -24.381  0.00  0.00    -0.002 C 
ATOM      5  C   UNL     1      34.664  -9.840 -24.562  0.00  0.00    +0.000 C 
ATOM      6  C   UNL     1      34.250 -11.090 -25.328  0.00  0.00    -0.000 C 
ENDROOT
BRANCH   1   7
ATOM      7  C   UNL     1      32.099 -10.037 -21.663  0.00  0.00    +0.101 C 
BRANCH   7  10
ATOM      8  O   UNL     1      32.976  -7.529 -20.434  0.00  0.00    -0.274 OA
ATOM      9  O   UNL     1      30.304  -9.190 -23.827  0.00  0.00    -0.274 OA
ATOM     10  N   UNL     1      31.680  -8.690 -21.999  0.00  0.00    -0.230 N 
ATOM     11  C   UNL     1      32.511  -5.453 -22.718  0.00  0.00    +0.009 C 
ATOM     12  C   UNL     1      31.221  -6.255 -24.354  0.00  0.00    +0.009 C 
ATOM     13  C   UNL     1      31.517  -6.359 -21.964  0.00  0.00    +0.086 C 
ATOM     14  C   UNL     1      30.630  -6.911 -23.091  0.00  0.00    +0.086 C 
ATOM     15  C   UNL     1      32.719  -6.196 -24.040  0.00  0.00    +0.001 C 
ATOM     16  C   UNL     1      31.748  -4.205 -23.199  0.00  0.00    +0.001 C 
ATOM     17  C   UNL     1      30.858  -4.758 -24.328  0.00  0.00    +0.001 C 
ATOM     18  C   UNL     1      32.160  -7.574 -21.343  0.00  0.00    +0.231 C 
ATOM     19  C   UNL     1      30.821  -8.406 -23.042  0.00  0.00    +0.231 C 
ENDBRANCH   7  10
ENDBRANCH   1   7
BRANCH   2  20
ATOM     20  C   UNL     1      32.460 -12.984 -22.459  0.00  0.00    -0.077 C 
BRANCH  20  22
ATOM     21  S   UNL     1      36.785 -19.492 -20.866  0.00  0.00    +0.014 S 
ATOM     22  N   UNL     1      33.444 -14.053 -22.620  0.00  0.00    +0.389 N 
ATOM     23  N   UNL     1      34.722 -16.521 -21.945  0.00  0.00    -0.297 N 
ATOM     24  N   UNL     1      36.558 -17.967 -21.469  0.00  0.00    -0.194 NA
ATOM     25  C   UNL     1      34.299 -14.153 -21.430  0.00  0.00    -0.055 C 
ATOM     26  C   UNL     1      32.775 -15.337 -22.872  0.00  0.00    -0.055 C 
ATOM     27  C   UNL     1      35.360 -15.239 -21.617  0.00  0.00    +0.069 C 
ATOM     28  C   UNL     1      33.793 -16.463 -23.077  0.00  0.00    +0.069 C 
ATOM     29  C   UNL     1      35.249 -17.711 -21.496  0.00  0.00    +0.140 A 
ATOM     30  C   UNL     1      34.370 -18.747 -21.025  0.00  0.00    +0.040 A 
ATOM     31  C   UNL     1      35.121 -19.853 -20.622  0.00  0.00    +0.050 A 
ATOM     32  C   UNL     1      32.964 -18.812 -20.915  0.00  0.00    +0.003 C 
ATOM     33  C   UNL     1      34.524 -21.019 -20.115  0.00  0.00    +0.008 C 
ATOM     34  C   UNL     1      32.359 -19.969 -20.412  0.00  0.00    +0.000 C 
ATOM     35  C   UNL     1      33.131 -21.057 -20.018  0.00  0.00    +0.001 C 
ATOM     36  H   UNL     1      34.030 -13.830 -23.425  0.00  0.00    -0.080 HD
ENDBRANCH  20  22
ENDBRANCH   2  20
TORSDOF 4
ENDMDL
