MODEL 1
REMARK VINA RESULT:      -5.8      0.000      0.000
REMARK  Name = 439168
REMARK  7 active torsions:
REMARK  status: ('A' for Active; 'I' for Inactive)
REMARK    1  A    between atoms: O_1  and  P_2
REMARK    2  A    between atoms: O_1  and  C_8
REMARK    3  A    between atoms: P_2  and  O_4
REMARK    4  A    between atoms: P_2  and  O_6
REMARK    5  A    between atoms: C_8  and  C_9
REMARK    6  A    between atoms: C_9  and  O_10
REMARK    7  A    between atoms: C_9  and  C_13
REMARK                            x       y       z     vdW  Elec       q    Type
REMARK                         _______ _______ _______ _____ _____    ______ ____
ROOT
ATOM      1  O   UNL     1      38.982 -26.218 -13.910  0.00  0.00    -0.270 OA
ENDROOT
BRANCH   1   2
ATOM      2  P   UNL     1      40.430 -25.773 -14.477  0.00  0.00    +0.473 P 
ATOM      3  O   UNL     1      40.921 -24.442 -13.990  0.00  0.00    -0.227 OA
BRANCH   2   4
ATOM      4  O   UNL     1      40.271 -25.907 -16.081  0.00  0.00    -0.303 OA
ATOM      5  H   UNL     1      39.766 -25.152 -16.421  0.00  0.00    +0.222 HD
ENDBRANCH   2   4
BRANCH   2   6
ATOM      6  O   UNL     1      41.369 -27.031 -14.090  0.00  0.00    -0.303 OA
ATOM      7  H   UNL     1      42.007 -26.762 -13.411  0.00  0.00    +0.222 HD
ENDBRANCH   2   6
ENDBRANCH   1   2
BRANCH   1   8
ATOM      8  C   UNL     1      38.003 -25.213 -13.695  0.00  0.00    +0.191 C 
BRANCH   8   9
ATOM      9  C   UNL     1      36.791 -25.478 -14.576  0.00  0.00    +0.206 C 
BRANCH   9  10
ATOM     10  O   UNL     1      36.848 -24.619 -15.700  0.00  0.00    -0.375 OA
ATOM     11  H   UNL     1      36.584 -25.108 -16.495  0.00  0.00    +0.211 HD
ENDBRANCH   9  10
BRANCH   9  13
ATOM     12  O   UNL     1      36.717 -27.254 -16.229  0.00  0.00    -0.286 OA
ATOM     13  C   UNL     1      36.791 -26.916 -15.052  0.00  0.00    +0.239 C 
ENDBRANCH   9  13
ENDBRANCH   8   9
ENDBRANCH   1   8
TORSDOF 7
ENDMDL
MODEL 2
REMARK VINA RESULT:      -5.7      1.976      3.408
REMARK  Name = 439168
REMARK  7 active torsions:
REMARK  status: ('A' for Active; 'I' for Inactive)
REMARK    1  A    between atoms: O_1  and  P_2
REMARK    2  A    between atoms: O_1  and  C_8
REMARK    3  A    between atoms: P_2  and  O_4
REMARK    4  A    between atoms: P_2  and  O_6
REMARK    5  A    between atoms: C_8  and  C_9
REMARK    6  A    between atoms: C_9  and  O_10
REMARK    7  A    between atoms: C_9  and  C_13
REMARK                            x       y       z     vdW  Elec       q    Type
REMARK                         _______ _______ _______ _____ _____    ______ ____
ROOT
ATOM      1  O   UNL     1      38.695 -26.124 -14.086  0.00  0.00    -0.270 OA
ENDROOT
BRANCH   1   2
ATOM      2  P   UNL     1      39.852 -25.319 -14.879  0.00  0.00    +0.473 P 
ATOM      3  O   UNL     1      40.647 -26.143 -15.849  0.00  0.00    -0.227 OA
BRANCH   2   4
ATOM      4  O   UNL     1      40.709 -24.617 -13.702  0.00  0.00    -0.303 OA
ATOM      5  H   UNL     1      41.296 -23.947 -14.084  0.00  0.00    +0.222 HD
ENDBRANCH   2   4
BRANCH   2   6
ATOM      6  O   UNL     1      39.041 -24.084 -15.537  0.00  0.00    -0.303 OA
ATOM      7  H   UNL     1      38.102 -24.152 -15.302  0.00  0.00    +0.222 HD
ENDBRANCH   2   6
ENDBRANCH   1   2
BRANCH   1   8
ATOM      8  C   UNL     1      38.482 -25.822 -12.714  0.00  0.00    +0.191 C 
BRANCH   8   9
ATOM      9  C   UNL     1      37.247 -24.947 -12.565  0.00  0.00    +0.206 C 
BRANCH   9  10
ATOM     10  O   UNL     1      36.384 -25.534 -11.609  0.00  0.00    -0.375 OA
ATOM     11  H   UNL     1      35.733 -24.879 -11.314  0.00  0.00    +0.211 HD
ENDBRANCH   9  10
BRANCH   9  13
ATOM     12  O   UNL     1      38.761 -23.252 -11.713  0.00  0.00    -0.286 OA
ATOM     13  C   UNL     1      37.637 -23.561 -12.095  0.00  0.00    +0.239 C 
ENDBRANCH   9  13
ENDBRANCH   8   9
ENDBRANCH   1   8
TORSDOF 7
ENDMDL
MODEL 3
REMARK VINA RESULT:      -5.6      2.484      3.223
REMARK  Name = 439168
REMARK  7 active torsions:
REMARK  status: ('A' for Active; 'I' for Inactive)
REMARK    1  A    between atoms: O_1  and  P_2
REMARK    2  A    between atoms: O_1  and  C_8
REMARK    3  A    between atoms: P_2  and  O_4
REMARK    4  A    between atoms: P_2  and  O_6
REMARK    5  A    between atoms: C_8  and  C_9
REMARK    6  A    between atoms: C_9  and  O_10
REMARK    7  A    between atoms: C_9  and  C_13
REMARK                            x       y       z     vdW  Elec       q    Type
REMARK                         _______ _______ _______ _____ _____    ______ ____
ROOT
ATOM      1  O   UNL     1      38.919 -25.446 -13.135  0.00  0.00    -0.270 OA
ENDROOT
BRANCH   1   2
ATOM      2  P   UNL     1      39.444 -25.493 -14.663  0.00  0.00    +0.473 P 
ATOM      3  O   UNL     1      40.896 -25.836 -14.826  0.00  0.00    -0.227 OA
BRANCH   2   4
ATOM      4  O   UNL     1      38.999 -24.061 -15.267  0.00  0.00    -0.303 OA
ATOM      5  H   UNL     1      38.138 -24.148 -15.706  0.00  0.00    +0.222 HD
ENDBRANCH   2   4
BRANCH   2   6
ATOM      6  O   UNL     1      38.416 -26.527 -15.362  0.00  0.00    -0.303 OA
ATOM      7  H   UNL     1      38.684 -27.437 -15.159  0.00  0.00    +0.222 HD
ENDBRANCH   2   6
ENDBRANCH   1   2
BRANCH   1   8
ATOM      8  C   UNL     1      37.922 -24.494 -12.792  0.00  0.00    +0.191 C 
BRANCH   8   9
ATOM      9  C   UNL     1      36.611 -25.207 -12.495  0.00  0.00    +0.206 C 
BRANCH   9  10
ATOM     10  O   UNL     1      36.895 -26.531 -12.085  0.00  0.00    -0.375 OA
ATOM     11  H   UNL     1      37.360 -26.998 -12.797  0.00  0.00    +0.211 HD
ENDBRANCH   9  10
BRANCH   9  13
ATOM     12  O   UNL     1      35.271 -25.064 -10.476  0.00  0.00    -0.286 OA
ATOM     13  C   UNL     1      35.864 -24.495 -11.386  0.00  0.00    +0.239 C 
ENDBRANCH   9  13
ENDBRANCH   8   9
ENDBRANCH   1   8
TORSDOF 7
ENDMDL
MODEL 4
REMARK VINA RESULT:      -5.6      2.950      3.823
REMARK  Name = 439168
REMARK  7 active torsions:
REMARK  status: ('A' for Active; 'I' for Inactive)
REMARK    1  A    between atoms: O_1  and  P_2
REMARK    2  A    between atoms: O_1  and  C_8
REMARK    3  A    between atoms: P_2  and  O_4
REMARK    4  A    between atoms: P_2  and  O_6
REMARK    5  A    between atoms: C_8  and  C_9
REMARK    6  A    between atoms: C_9  and  O_10
REMARK    7  A    between atoms: C_9  and  C_13
REMARK                            x       y       z     vdW  Elec       q    Type
REMARK                         _______ _______ _______ _____ _____    ______ ____
ROOT
ATOM      1  O   UNL     1      38.950 -24.457 -13.084  0.00  0.00    -0.270 OA
ENDROOT
BRANCH   1   2
ATOM      2  P   UNL     1      39.418 -25.158 -14.464  0.00  0.00    +0.473 P 
ATOM      3  O   UNL     1      38.937 -26.567 -14.656  0.00  0.00    -0.227 OA
BRANCH   2   4
ATOM      4  O   UNL     1      41.024 -24.970 -14.465  0.00  0.00    -0.303 OA
ATOM      5  H   UNL     1      41.397 -25.365 -13.661  0.00  0.00    +0.222 HD
ENDBRANCH   2   4
BRANCH   2   6
ATOM      6  O   UNL     1      38.920 -24.107 -15.587  0.00  0.00    -0.303 OA
ATOM      7  H   UNL     1      38.350 -24.563 -16.227  0.00  0.00    +0.222 HD
ENDBRANCH   2   6
ENDBRANCH   1   2
BRANCH   1   8
ATOM      8  C   UNL     1      37.583 -24.099 -12.939  0.00  0.00    +0.191 C 
BRANCH   8   9
ATOM      9  C   UNL     1      37.284 -23.792 -11.479  0.00  0.00    +0.206 C 
BRANCH   9  10
ATOM     10  O   UNL     1      37.411 -22.398 -11.270  0.00  0.00    -0.375 OA
ATOM     11  H   UNL     1      38.335 -22.134 -11.402  0.00  0.00    +0.211 HD
ENDBRANCH   9  10
BRANCH   9  13
ATOM     12  O   UNL     1      35.487 -24.468  -9.993  0.00  0.00    -0.286 OA
ATOM     13  C   UNL     1      35.873 -24.218 -11.131  0.00  0.00    +0.239 C 
ENDBRANCH   9  13
ENDBRANCH   8   9
ENDBRANCH   1   8
TORSDOF 7
ENDMDL
MODEL 5
REMARK VINA RESULT:      -5.6      3.643      4.638
REMARK  Name = 439168
REMARK  7 active torsions:
REMARK  status: ('A' for Active; 'I' for Inactive)
REMARK    1  A    between atoms: O_1  and  P_2
REMARK    2  A    between atoms: O_1  and  C_8
REMARK    3  A    between atoms: P_2  and  O_4
REMARK    4  A    between atoms: P_2  and  O_6
REMARK    5  A    between atoms: C_8  and  C_9
REMARK    6  A    between atoms: C_9  and  O_10
REMARK    7  A    between atoms: C_9  and  C_13
REMARK                            x       y       z     vdW  Elec       q    Type
REMARK                         _______ _______ _______ _____ _____    ______ ____
ROOT
ATOM      1  O   UNL     1      36.406 -25.522 -11.758  0.00  0.00    -0.270 OA
ENDROOT
BRANCH   1   2
ATOM      2  P   UNL     1      36.016 -24.109 -11.076  0.00  0.00    +0.473 P 
ATOM      3  O   UNL     1      37.144 -23.124 -10.967  0.00  0.00    -0.227 OA
BRANCH   2   4
ATOM      4  O   UNL     1      35.331 -24.534  -9.675  0.00  0.00    -0.303 OA
ATOM      5  H   UNL     1      34.874 -25.383  -9.782  0.00  0.00    +0.222 HD
ENDBRANCH   2   4
BRANCH   2   6
ATOM      6  O   UNL     1      34.762 -23.614 -11.969  0.00  0.00    -0.303 OA
ATOM      7  H   UNL     1      34.154 -24.356 -12.111  0.00  0.00    +0.222 HD
ENDBRANCH   2   6
ENDBRANCH   1   2
BRANCH   1   8
ATOM      8  C   UNL     1      37.662 -25.633 -12.412  0.00  0.00    +0.191 C 
BRANCH   8   9
ATOM      9  C   UNL     1      37.564 -25.055 -13.816  0.00  0.00    +0.206 C 
BRANCH   9  10
ATOM     10  O   UNL     1      38.233 -23.808 -13.843  0.00  0.00    -0.375 OA
ATOM     11  H   UNL     1      39.158 -23.943 -14.102  0.00  0.00    +0.211 HD
ENDBRANCH   9  10
BRANCH   9  13
ATOM     12  O   UNL     1      38.310 -27.202 -14.667  0.00  0.00    -0.286 OA
ATOM     13  C   UNL     1      38.215 -25.989 -14.815  0.00  0.00    +0.239 C 
ENDBRANCH   9  13
ENDBRANCH   8   9
ENDBRANCH   1   8
TORSDOF 7
ENDMDL
MODEL 6
REMARK VINA RESULT:      -5.5      3.562      4.648
REMARK  Name = 439168
REMARK  7 active torsions:
REMARK  status: ('A' for Active; 'I' for Inactive)
REMARK    1  A    between atoms: O_1  and  P_2
REMARK    2  A    between atoms: O_1  and  C_8
REMARK    3  A    between atoms: P_2  and  O_4
REMARK    4  A    between atoms: P_2  and  O_6
REMARK    5  A    between atoms: C_8  and  C_9
REMARK    6  A    between atoms: C_9  and  O_10
REMARK    7  A    between atoms: C_9  and  C_13
REMARK                            x       y       z     vdW  Elec       q    Type
REMARK                         _______ _______ _______ _____ _____    ______ ____
ROOT
ATOM      1  O   UNL     1      36.557 -25.606 -11.781  0.00  0.00    -0.270 OA
ENDROOT
BRANCH   1   2
ATOM      2  P   UNL     1      36.031 -24.248 -11.078  0.00  0.00    +0.473 P 
ATOM      3  O   UNL     1      35.338 -24.442  -9.761  0.00  0.00    -0.227 OA
BRANCH   2   4
ATOM      4  O   UNL     1      35.144 -23.539 -12.228  0.00  0.00    -0.303 OA
ATOM      5  H   UNL     1      35.292 -22.581 -12.208  0.00  0.00    +0.222 HD
ENDBRANCH   2   4
BRANCH   2   6
ATOM      6  O   UNL     1      37.364 -23.335 -11.021  0.00  0.00    -0.303 OA
ATOM      7  H   UNL     1      37.180 -22.468 -11.414  0.00  0.00    +0.222 HD
ENDBRANCH   2   6
ENDBRANCH   1   2
BRANCH   1   8
ATOM      8  C   UNL     1      37.751 -25.551 -12.548  0.00  0.00    +0.191 C 
BRANCH   8   9
ATOM      9  C   UNL     1      37.412 -25.567 -14.031  0.00  0.00    +0.206 C 
BRANCH   9  10
ATOM     10  O   UNL     1      36.028 -25.820 -14.179  0.00  0.00    -0.375 OA
ATOM     11  H   UNL     1      35.538 -25.366 -13.476  0.00  0.00    +0.211 HD
ENDBRANCH   9  10
BRANCH   9  13
ATOM     12  O   UNL     1      37.612 -23.148 -14.092  0.00  0.00    -0.286 OA
ATOM     13  C   UNL     1      37.741 -24.228 -14.659  0.00  0.00    +0.239 C 
ENDBRANCH   9  13
ENDBRANCH   8   9
ENDBRANCH   1   8
TORSDOF 7
ENDMDL
MODEL 7
REMARK VINA RESULT:      -5.5      2.870      4.021
REMARK  Name = 439168
REMARK  7 active torsions:
REMARK  status: ('A' for Active; 'I' for Inactive)
REMARK    1  A    between atoms: O_1  and  P_2
REMARK    2  A    between atoms: O_1  and  C_8
REMARK    3  A    between atoms: P_2  and  O_4
REMARK    4  A    between atoms: P_2  and  O_6
REMARK    5  A    between atoms: C_8  and  C_9
REMARK    6  A    between atoms: C_9  and  O_10
REMARK    7  A    between atoms: C_9  and  C_13
REMARK                            x       y       z     vdW  Elec       q    Type
REMARK                         _______ _______ _______ _____ _____    ______ ____
ROOT
ATOM      1  O   UNL     1      38.462 -24.223 -12.853  0.00  0.00    -0.270 OA
ENDROOT
BRANCH   1   2
ATOM      2  P   UNL     1      37.334 -23.414 -12.024  0.00  0.00    +0.473 P 
ATOM      3  O   UNL     1      36.890 -24.071 -10.749  0.00  0.00    -0.227 OA
BRANCH   2   4
ATOM      4  O   UNL     1      36.167 -23.158 -13.112  0.00  0.00    -0.303 OA
ATOM      5  H   UNL     1      35.344 -23.575 -12.810  0.00  0.00    +0.222 HD
ENDBRANCH   2   4
BRANCH   2   6
ATOM      6  O   UNL     1      38.001 -21.953 -11.843  0.00  0.00    -0.303 OA
ATOM      7  H   UNL     1      38.950 -22.004 -12.039  0.00  0.00    +0.222 HD
ENDBRANCH   2   6
ENDBRANCH   1   2
BRANCH   1   8
ATOM      8  C   UNL     1      38.201 -25.573 -13.210  0.00  0.00    +0.191 C 
BRANCH   8   9
ATOM      9  C   UNL     1      38.465 -25.774 -14.694  0.00  0.00    +0.206 C 
BRANCH   9  10
ATOM     10  O   UNL     1      37.577 -24.952 -15.430  0.00  0.00    -0.375 OA
ATOM     11  H   UNL     1      37.663 -24.033 -15.131  0.00  0.00    +0.211 HD
ENDBRANCH   9  10
BRANCH   9  13
ATOM     12  O   UNL     1      40.615 -26.023 -15.793  0.00  0.00    -0.286 OA
ATOM     13  C   UNL     1      39.890 -25.390 -15.032  0.00  0.00    +0.239 C 
ENDBRANCH   9  13
ENDBRANCH   8   9
ENDBRANCH   1   8
TORSDOF 7
ENDMDL
MODEL 8
REMARK VINA RESULT:      -5.4      2.906      4.136
REMARK  Name = 439168
REMARK  7 active torsions:
REMARK  status: ('A' for Active; 'I' for Inactive)
REMARK    1  A    between atoms: O_1  and  P_2
REMARK    2  A    between atoms: O_1  and  C_8
REMARK    3  A    between atoms: P_2  and  O_4
REMARK    4  A    between atoms: P_2  and  O_6
REMARK    5  A    between atoms: C_8  and  C_9
REMARK    6  A    between atoms: C_9  and  O_10
REMARK    7  A    between atoms: C_9  and  C_13
REMARK                            x       y       z     vdW  Elec       q    Type
REMARK                         _______ _______ _______ _____ _____    ______ ____
ROOT
ATOM      1  O   UNL     1      37.124 -24.740 -14.013  0.00  0.00    -0.270 OA
ENDROOT
BRANCH   1   2
ATOM      2  P   UNL     1      37.261 -26.311 -14.370  0.00  0.00    +0.473 P 
ATOM      3  O   UNL     1      38.618 -26.737 -14.850  0.00  0.00    -0.227 OA
BRANCH   2   4
ATOM      4  O   UNL     1      36.047 -26.578 -15.403  0.00  0.00    -0.303 OA
ATOM      5  H   UNL     1      35.898 -27.533 -15.489  0.00  0.00    +0.222 HD
ENDBRANCH   2   4
BRANCH   2   6
ATOM      6  O   UNL     1      36.760 -27.032 -13.012  0.00  0.00    -0.303 OA
ATOM      7  H   UNL     1      37.113 -26.556 -12.244  0.00  0.00    +0.222 HD
ENDBRANCH   2   6
ENDBRANCH   1   2
BRANCH   1   8
ATOM      8  C   UNL     1      35.822 -24.190 -13.874  0.00  0.00    +0.191 C 
BRANCH   8   9
ATOM      9  C   UNL     1      35.559 -23.853 -12.414  0.00  0.00    +0.206 C 
BRANCH   9  10
ATOM     10  O   UNL     1      34.939 -24.965 -11.795  0.00  0.00    -0.375 OA
ATOM     11  H   UNL     1      35.344 -25.784 -12.120  0.00  0.00    +0.211 HD
ENDBRANCH   9  10
BRANCH   9  13
ATOM     12  O   UNL     1      37.273 -22.420 -11.466  0.00  0.00    -0.286 OA
ATOM     13  C   UNL     1      36.860 -23.551 -11.701  0.00  0.00    +0.239 C 
ENDBRANCH   9  13
ENDBRANCH   8   9
ENDBRANCH   1   8
TORSDOF 7
ENDMDL
MODEL 9
REMARK VINA RESULT:      -5.4      3.176      4.190
REMARK  Name = 439168
REMARK  7 active torsions:
REMARK  status: ('A' for Active; 'I' for Inactive)
REMARK    1  A    between atoms: O_1  and  P_2
REMARK    2  A    between atoms: O_1  and  C_8
REMARK    3  A    between atoms: P_2  and  O_4
REMARK    4  A    between atoms: P_2  and  O_6
REMARK    5  A    between atoms: C_8  and  C_9
REMARK    6  A    between atoms: C_9  and  O_10
REMARK    7  A    between atoms: C_9  and  C_13
REMARK                            x       y       z     vdW  Elec       q    Type
REMARK                         _______ _______ _______ _____ _____    ______ ____
ROOT
ATOM      1  O   UNL     1      37.539 -25.221 -11.964  0.00  0.00    -0.270 OA
ENDROOT
BRANCH   1   2
ATOM      2  P   UNL     1      36.332 -24.300 -11.408  0.00  0.00    +0.473 P 
ATOM      3  O   UNL     1      35.363 -25.002 -10.501  0.00  0.00    -0.227 OA
BRANCH   2   4
ATOM      4  O   UNL     1      35.688 -23.662 -12.747  0.00  0.00    -0.303 OA
ATOM      5  H   UNL     1      36.397 -23.332 -13.322  0.00  0.00    +0.222 HD
ENDBRANCH   2   4
BRANCH   2   6
ATOM      6  O   UNL     1      37.112 -23.052 -10.739  0.00  0.00    -0.303 OA
ATOM      7  H   UNL     1      36.501 -22.554 -10.174  0.00  0.00    +0.222 HD
ENDBRANCH   2   6
ENDBRANCH   1   2
BRANCH   1   8
ATOM      8  C   UNL     1      37.220 -26.315 -12.812  0.00  0.00    +0.191 C 
BRANCH   8   9
ATOM      9  C   UNL     1      37.705 -26.029 -14.225  0.00  0.00    +0.206 C 
BRANCH   9  10
ATOM     10  O   UNL     1      38.826 -26.849 -14.497  0.00  0.00    -0.375 OA
ATOM     11  H   UNL     1      38.543 -27.629 -14.999  0.00  0.00    +0.211 HD
ENDBRANCH   9  10
BRANCH   9  13
ATOM     12  O   UNL     1      36.683 -27.219 -16.078  0.00  0.00    -0.286 OA
ATOM     13  C   UNL     1      36.612 -26.337 -15.228  0.00  0.00    +0.239 C 
ENDBRANCH   9  13
ENDBRANCH   8   9
ENDBRANCH   1   8
TORSDOF 7
ENDMDL
