MODEL 1
REMARK VINA RESULT:      -8.6      0.000      0.000
REMARK  Name = 11667832
REMARK  5 active torsions:
REMARK  status: ('A' for Active; 'I' for Inactive)
REMARK    1  A    between atoms: N_2  and  C_29
REMARK    2  A    between atoms: C_4  and  O_25
REMARK    3  A    between atoms: C_15  and  O_27
REMARK    4  A    between atoms: C_17  and  C_22
REMARK    5  A    between atoms: C_29  and  C_30
REMARK                            x       y       z     vdW  Elec       q    Type
REMARK                         _______ _______ _______ _____ _____    ______ ____
ROOT
ATOM      1  O   UNL     1      32.265 -10.541 -19.664  0.00  0.00    -0.296 OA
ATOM      2  N   UNL     1      31.760  -6.026 -24.084  0.00  0.00    +0.390 N 
ATOM      3  C   UNL     1      31.732  -8.491 -22.500  0.00  0.00    +0.047 C 
ATOM      4  C   UNL     1      32.263  -7.132 -21.938  0.00  0.00    +0.076 C 
ATOM      5  C   UNL     1      32.848  -6.321 -23.119  0.00  0.00    -0.028 C 
ATOM      6  C   UNL     1      30.636  -8.184 -23.558  0.00  0.00    -0.016 C 
ATOM      7  C   UNL     1      33.268  -7.347 -20.778  0.00  0.00    +0.033 C 
ATOM      8  C   UNL     1      31.086  -9.282 -21.334  0.00  0.00    +0.071 C 
ATOM      9  C   UNL     1      31.109  -7.210 -24.648  0.00  0.00    -0.077 C 
ATOM     10  C   UNL     1      32.863  -9.256 -23.220  0.00  0.00    +0.009 C 
ATOM     11  C   UNL     1      34.072  -7.048 -23.712  0.00  0.00    +0.008 C 
ATOM     12  C   UNL     1      33.943  -8.552 -23.804  0.00  0.00    -0.025 C 
ATOM     13  C   UNL     1      32.673  -8.178 -19.644  0.00  0.00    +0.067 C 
ATOM     14  C   UNL     1      32.058  -9.447 -20.184  0.00  0.00    +0.151 C 
ATOM     15  C   UNL     1      32.823 -10.654 -23.379  0.00  0.00    +0.134 C 
ATOM     16  C   UNL     1      34.959  -9.255 -24.475  0.00  0.00    -0.004 C 
ATOM     17  C   UNL     1      33.836 -11.337 -24.054  0.00  0.00    +0.086 C 
ATOM     18  C   UNL     1      34.906 -10.640 -24.597  0.00  0.00    +0.007 C 
ATOM     19  H   UNL     1      31.055  -5.566 -23.509  0.00  0.00    -0.080 HD
ENDROOT
BRANCH  17  22
ATOM     20  O   UNL     1      33.395 -13.296 -25.287  0.00  0.00    -0.270 OA
ATOM     21  N   UNL     1      34.227 -13.573 -23.168  0.00  0.00    -0.325 N 
ATOM     22  C   UNL     1      33.792 -12.785 -24.227  0.00  0.00    +0.246 C 
ATOM     23  H   UNL     1      34.212 -14.555 -23.248  0.00  0.00    +0.145 HD
ATOM     24  H   UNL     1      34.550 -13.150 -22.340  0.00  0.00    +0.145 HD
ENDBRANCH  17  22
BRANCH   4  25
ATOM     25  O   UNL     1      31.169  -6.378 -21.384  0.00  0.00    -0.388 OA
ATOM     26  H   UNL     1      30.952  -5.641 -21.976  0.00  0.00    +0.210 HD
ENDBRANCH   4  25
BRANCH  15  27
ATOM     27  O   UNL     1      31.764 -11.417 -22.982  0.00  0.00    -0.506 OA
ATOM     28  H   UNL     1      31.794 -11.869 -22.162  0.00  0.00    +0.292 HD
ENDBRANCH  15  27
BRANCH   2  29
ATOM     29  C   UNL     1      32.146  -5.082 -25.128  0.00  0.00    -0.077 C 
BRANCH  29  30
ATOM     30  C   UNL     1      31.309  -3.816 -25.058  0.00  0.00    -0.021 C 
ATOM     31  C   UNL     1      32.017  -2.517 -24.946  0.00  0.00    -0.002 C 
ATOM     32  C   UNL     1      31.270  -3.077 -23.772  0.00  0.00    -0.002 C 
ENDBRANCH  29  30
ENDBRANCH   2  29
TORSDOF 5
ENDMDL
MODEL 2
REMARK VINA RESULT:      -7.3      1.209      1.401
REMARK  Name = 11667832
REMARK  5 active torsions:
REMARK  status: ('A' for Active; 'I' for Inactive)
REMARK    1  A    between atoms: N_2  and  C_29
REMARK    2  A    between atoms: C_4  and  O_25
REMARK    3  A    between atoms: C_15  and  O_27
REMARK    4  A    between atoms: C_17  and  C_22
REMARK    5  A    between atoms: C_29  and  C_30
REMARK                            x       y       z     vdW  Elec       q    Type
REMARK                         _______ _______ _______ _____ _____    ______ ____
ROOT
ATOM      1  O   UNL     1      31.574 -11.697 -20.373  0.00  0.00    -0.296 OA
ATOM      2  N   UNL     1      31.900  -6.202 -23.517  0.00  0.00    +0.390 N 
ATOM      3  C   UNL     1      31.554  -8.975 -22.637  0.00  0.00    +0.047 C 
ATOM      4  C   UNL     1      32.026  -7.838 -21.675  0.00  0.00    +0.076 C 
ATOM      5  C   UNL     1      32.812  -6.799 -22.510  0.00  0.00    -0.028 C 
ATOM      6  C   UNL     1      30.649  -8.344 -23.731  0.00  0.00    -0.016 C 
ATOM      7  C   UNL     1      32.827  -8.400 -20.474  0.00  0.00    +0.033 C 
ATOM      8  C   UNL     1      30.710  -9.987 -21.821  0.00  0.00    +0.071 C 
ATOM      9  C   UNL     1      31.316  -7.163 -24.454  0.00  0.00    -0.077 C 
ATOM     10  C   UNL     1      32.765  -9.611 -23.355  0.00  0.00    +0.009 C 
ATOM     11  C   UNL     1      34.095  -7.435 -23.083  0.00  0.00    +0.008 C 
ATOM     12  C   UNL     1      33.942  -8.858 -23.574  0.00  0.00    -0.025 C 
ATOM     13  C   UNL     1      32.037  -9.445 -19.690  0.00  0.00    +0.067 C 
ATOM     14  C   UNL     1      31.482 -10.496 -20.621  0.00  0.00    +0.151 C 
ATOM     15  C   UNL     1      32.713 -10.919 -23.870  0.00  0.00    +0.134 C 
ATOM     16  C   UNL     1      35.033  -9.437 -24.245  0.00  0.00    -0.004 C 
ATOM     17  C   UNL     1      33.801 -11.480 -24.541  0.00  0.00    +0.086 C 
ATOM     18  C   UNL     1      34.963 -10.742 -24.724  0.00  0.00    +0.007 C 
ATOM     19  H   UNL     1      31.125  -5.854 -22.953  0.00  0.00    -0.080 HD
ENDROOT
BRANCH  17  22
ATOM     20  O   UNL     1      33.933 -13.825 -24.361  0.00  0.00    -0.270 OA
ATOM     21  N   UNL     1      33.460 -12.973 -26.436  0.00  0.00    -0.325 N 
ATOM     22  C   UNL     1      33.746 -12.833 -25.083  0.00  0.00    +0.246 C 
ATOM     23  H   UNL     1      33.414 -13.870 -26.839  0.00  0.00    +0.145 HD
ATOM     24  H   UNL     1      33.302 -12.175 -26.991  0.00  0.00    +0.145 HD
ENDBRANCH  17  22
BRANCH   4  25
ATOM     25  O   UNL     1      30.877  -7.174 -21.113  0.00  0.00    -0.388 OA
ATOM     26  H   UNL     1      30.796  -6.287 -21.499  0.00  0.00    +0.210 HD
ENDBRANCH   4  25
BRANCH  15  27
ATOM     27  O   UNL     1      31.584 -11.685 -23.841  0.00  0.00    -0.506 OA
ATOM     28  H   UNL     1      31.650 -12.619 -23.869  0.00  0.00    +0.292 HD
ENDBRANCH  15  27
BRANCH   2  29
ATOM     29  C   UNL     1      32.472  -5.056 -24.216  0.00  0.00    -0.077 C 
BRANCH  29  30
ATOM     30  C   UNL     1      32.440  -5.261 -25.722  0.00  0.00    -0.021 C 
ATOM     31  C   UNL     1      33.652  -4.907 -26.500  0.00  0.00    -0.002 C 
ATOM     32  C   UNL     1      32.419  -4.057 -26.588  0.00  0.00    -0.002 C 
ENDBRANCH  29  30
ENDBRANCH   2  29
TORSDOF 5
ENDMDL
MODEL 3
REMARK VINA RESULT:      -5.8      1.282      1.620
REMARK  Name = 11667832
REMARK  5 active torsions:
REMARK  status: ('A' for Active; 'I' for Inactive)
REMARK    1  A    between atoms: N_2  and  C_29
REMARK    2  A    between atoms: C_4  and  O_25
REMARK    3  A    between atoms: C_15  and  O_27
REMARK    4  A    between atoms: C_17  and  C_22
REMARK    5  A    between atoms: C_29  and  C_30
REMARK                            x       y       z     vdW  Elec       q    Type
REMARK                         _______ _______ _______ _____ _____    ______ ____
ROOT
ATOM      1  O   UNL     1      32.398  -9.951 -20.034  0.00  0.00    -0.296 OA
ATOM      2  N   UNL     1      32.083  -5.474 -24.510  0.00  0.00    +0.390 N 
ATOM      3  C   UNL     1      31.915  -7.903 -22.880  0.00  0.00    +0.047 C 
ATOM      4  C   UNL     1      32.587  -6.588 -22.368  0.00  0.00    +0.076 C 
ATOM      5  C   UNL     1      33.184  -5.849 -23.589  0.00  0.00    -0.028 C 
ATOM      6  C   UNL     1      30.801  -7.518 -23.894  0.00  0.00    -0.016 C 
ATOM      7  C   UNL     1      33.621  -6.873 -21.250  0.00  0.00    +0.033 C 
ATOM      8  C   UNL     1      31.257  -8.619 -21.673  0.00  0.00    +0.071 C 
ATOM      9  C   UNL     1      31.307  -6.605 -25.022  0.00  0.00    -0.077 C 
ATOM     10  C   UNL     1      32.942  -8.775 -23.636  0.00  0.00    +0.009 C 
ATOM     11  C   UNL     1      34.312  -6.688 -24.222  0.00  0.00    +0.008 C 
ATOM     12  C   UNL     1      34.050  -8.176 -24.280  0.00  0.00    -0.025 C 
ATOM     13  C   UNL     1      33.009  -7.632 -20.075  0.00  0.00    +0.067 C 
ATOM     14  C   UNL     1      32.263  -8.850 -20.564  0.00  0.00    +0.151 C 
ATOM     15  C   UNL     1      32.773 -10.165 -23.767  0.00  0.00    +0.134 C 
ATOM     16  C   UNL     1      34.970  -8.974 -24.983  0.00  0.00    -0.004 C 
ATOM     17  C   UNL     1      33.692 -10.945 -24.474  0.00  0.00    +0.086 C 
ATOM     18  C   UNL     1      34.792 -10.351 -25.077  0.00  0.00    +0.007 C 
ATOM     19  H   UNL     1      31.447  -4.946 -23.912  0.00  0.00    -0.080 HD
ENDROOT
BRANCH  17  22
ATOM     20  O   UNL     1      32.930 -13.053 -23.751  0.00  0.00    -0.270 OA
ATOM     21  N   UNL     1      34.010 -12.982 -25.772  0.00  0.00    -0.325 N 
ATOM     22  C   UNL     1      33.515 -12.385 -24.619  0.00  0.00    +0.246 C 
ATOM     23  H   UNL     1      33.910 -13.952 -25.906  0.00  0.00    +0.145 HD
ATOM     24  H   UNL     1      34.460 -12.434 -26.455  0.00  0.00    +0.145 HD
ENDBRANCH  17  22
BRANCH   4  25
ATOM     25  O   UNL     1      31.587  -5.734 -21.779  0.00  0.00    -0.388 OA
ATOM     26  H   UNL     1      31.006  -5.390 -22.476  0.00  0.00    +0.210 HD
ENDBRANCH   4  25
BRANCH  15  27
ATOM     27  O   UNL     1      31.672 -10.828 -23.309  0.00  0.00    -0.506 OA
ATOM     28  H   UNL     1      31.579 -11.006 -22.395  0.00  0.00    +0.292 HD
ENDBRANCH  15  27
BRANCH   2  29
ATOM     29  C   UNL     1      32.500  -4.582 -25.587  0.00  0.00    -0.077 C 
BRANCH  29  30
ATOM     30  C   UNL     1      33.350  -5.318 -26.610  0.00  0.00    -0.021 C 
ATOM     31  C   UNL     1      34.667  -4.740 -26.968  0.00  0.00    -0.002 C 
ATOM     32  C   UNL     1      33.529  -4.695 -27.944  0.00  0.00    -0.002 C 
ENDBRANCH  29  30
ENDBRANCH   2  29
TORSDOF 5
ENDMDL
