MODEL 1
REMARK VINA RESULT:     -10.5      0.000      0.000
REMARK  Name = 45480632
REMARK  4 active torsions:
REMARK  status: ('A' for Active; 'I' for Inactive)
REMARK    1  A    between atoms: C_8  and  O_27
REMARK    2  A    between atoms: C_23  and  C_31
REMARK    3  A    between atoms: C_25  and  O_29
REMARK    4  A    between atoms: C_31  and  O_32
REMARK                            x       y       z     vdW  Elec       q    Type
REMARK                         _______ _______ _______ _____ _____    ______ ____
ROOT
ATOM      1  O   UNL     1      33.155  -9.967 -24.393  0.00  0.00    -0.347 OA
ATOM      2  O   UNL     1      31.546  -8.050 -21.732  0.00  0.00    -0.353 OA
ATOM      3  O   UNL     1      32.700 -12.668 -21.904  0.00  0.00    -0.353 OA
ATOM      4  O   UNL     1      31.965  -5.347 -24.218  0.00  0.00    -0.346 OA
ATOM      5  O   UNL     1      33.832 -15.674 -23.674  0.00  0.00    -0.346 OA
ATOM      6  C   UNL     1      32.969  -8.870 -23.498  0.00  0.00    +0.172 C 
ATOM      7  C   UNL     1      31.755  -9.140 -22.622  0.00  0.00    +0.147 C 
ATOM      8  C   UNL     1      32.749  -7.589 -24.295  0.00  0.00    +0.169 C 
ATOM      9  C   UNL     1      31.990 -10.416 -21.828  0.00  0.00    +0.065 C 
ATOM     10  C   UNL     1      32.338 -11.586 -22.759  0.00  0.00    +0.149 C 
ATOM     11  C   UNL     1      32.361  -6.426 -23.368  0.00  0.00    +0.172 C 
ATOM     12  C   UNL     1      33.481 -11.192 -23.711  0.00  0.00    +0.164 C 
ATOM     13  C   UNL     1      31.216  -6.837 -22.425  0.00  0.00    +0.149 C 
ATOM     14  C   UNL     1      32.600 -13.962 -22.502  0.00  0.00    +0.151 C 
ATOM     15  C   UNL     1      30.914  -5.796 -21.341  0.00  0.00    +0.058 C 
ATOM     16  C   UNL     1      33.763 -12.202 -24.788  0.00  0.00    +0.003 C 
ATOM     17  C   UNL     1      33.859 -14.282 -23.331  0.00  0.00    +0.164 C 
ATOM     18  C   UNL     1      33.925 -13.522 -24.628  0.00  0.00    +0.003 C 
ATOM     19  C   UNL     1      32.367 -14.963 -21.351  0.00  0.00    +0.058 C 
ATOM     20  C   UNL     1      30.346  -4.496 -21.815  0.00  0.00    -0.026 C 
ATOM     21  C   UNL     1      32.047  -4.061 -23.617  0.00  0.00    +0.168 C 
ATOM     22  C   UNL     1      30.835  -3.741 -22.807  0.00  0.00    +0.001 C 
ATOM     23  C   UNL     1      34.936 -16.445 -23.176  0.00  0.00    +0.176 C 
ATOM     24  C   UNL     1      33.578 -15.148 -20.480  0.00  0.00    -0.026 C 
ATOM     25  C   UNL     1      34.587 -17.061 -21.804  0.00  0.00    +0.162 C 
ATOM     26  C   UNL     1      34.547 -16.053 -20.686  0.00  0.00    +0.001 C 
ENDROOT
BRANCH   8  27
ATOM     27  O   UNL     1      33.966  -7.263 -24.969  0.00  0.00    -0.379 OA
ATOM     28  H   UNL     1      34.434  -8.080 -25.203  0.00  0.00    +0.211 HD
ENDBRANCH   8  27
BRANCH  25  29
ATOM     29  O   UNL     1      35.563 -18.038 -21.439  0.00  0.00    -0.377 OA
ATOM     30  H   UNL     1      36.451 -17.663 -21.543  0.00  0.00    +0.211 HD
ENDBRANCH  25  29
BRANCH  23  31
ATOM     31  C   UNL     1      35.188 -17.523 -24.233  0.00  0.00    +0.170 C 
BRANCH  31  32
ATOM     32  O   UNL     1      34.694 -17.057 -25.473  0.00  0.00    -0.379 OA
ATOM     33  H   UNL     1      35.357 -17.212 -26.164  0.00  0.00    +0.211 HD
ENDBRANCH  31  32
ENDBRANCH  23  31
TORSDOF 4
ENDMDL
MODEL 2
REMARK VINA RESULT:      -8.5      1.553      9.665
REMARK  Name = 45480632
REMARK  4 active torsions:
REMARK  status: ('A' for Active; 'I' for Inactive)
REMARK    1  A    between atoms: C_8  and  O_27
REMARK    2  A    between atoms: C_23  and  C_31
REMARK    3  A    between atoms: C_25  and  O_29
REMARK    4  A    between atoms: C_31  and  O_32
REMARK                            x       y       z     vdW  Elec       q    Type
REMARK                         _______ _______ _______ _____ _____    ______ ____
ROOT
ATOM      1  O   UNL     1      32.015 -13.504 -21.570  0.00  0.00    -0.347 OA
ATOM      2  O   UNL     1      34.805 -15.218 -23.188  0.00  0.00    -0.353 OA
ATOM      3  O   UNL     1      33.368 -10.692 -23.562  0.00  0.00    -0.353 OA
ATOM      4  O   UNL     1      33.448 -18.045 -21.229  0.00  0.00    -0.346 OA
ATOM      5  O   UNL     1      30.965  -7.984 -22.978  0.00  0.00    -0.346 OA
ATOM      6  C   UNL     1      33.165 -14.345 -21.650  0.00  0.00    +0.172 C 
ATOM      7  C   UNL     1      33.665 -14.372 -23.086  0.00  0.00    +0.147 C 
ATOM      8  C   UNL     1      32.798 -15.759 -21.210  0.00  0.00    +0.169 C 
ATOM      9  C   UNL     1      34.034 -12.959 -23.510  0.00  0.00    +0.065 C 
ATOM     10  C   UNL     1      32.857 -11.997 -23.296  0.00  0.00    +0.149 C 
ATOM     11  C   UNL     1      33.962 -16.731 -21.462  0.00  0.00    +0.172 C 
ATOM     12  C   UNL     1      32.313 -12.126 -21.862  0.00  0.00    +0.164 C 
ATOM     13  C   UNL     1      34.492 -16.590 -22.899  0.00  0.00    +0.149 C 
ATOM     14  C   UNL     1      32.377  -9.717 -23.888  0.00  0.00    +0.151 C 
ATOM     15  C   UNL     1      35.779 -17.383 -23.157  0.00  0.00    +0.058 C 
ATOM     16  C   UNL     1      31.039 -11.366 -21.616  0.00  0.00    +0.003 C 
ATOM     17  C   UNL     1      31.738  -9.136 -22.612  0.00  0.00    +0.164 C 
ATOM     18  C   UNL     1      30.791 -10.089 -21.935  0.00  0.00    +0.003 C 
ATOM     19  C   UNL     1      33.079  -8.647 -24.751  0.00  0.00    +0.058 C 
ATOM     20  C   UNL     1      35.653 -18.873 -23.120  0.00  0.00    -0.026 C 
ATOM     21  C   UNL     1      34.436 -19.019 -20.922  0.00  0.00    +0.168 C 
ATOM     22  C   UNL     1      35.066 -19.587 -22.150  0.00  0.00    +0.001 C 
ATOM     23  C   UNL     1      31.383  -6.752 -22.371  0.00  0.00    +0.176 C 
ATOM     24  C   UNL     1      34.051  -7.809 -23.970  0.00  0.00    -0.026 C 
ATOM     25  C   UNL     1      32.392  -6.020 -23.281  0.00  0.00    +0.162 C 
ATOM     26  C   UNL     1      33.748  -6.674 -23.322  0.00  0.00    +0.001 C 
ENDROOT
BRANCH   8  27
ATOM     27  O   UNL     1      32.504 -15.733 -19.812  0.00  0.00    -0.379 OA
ATOM     28  H   UNL     1      33.200 -15.246 -19.344  0.00  0.00    +0.211 HD
ENDBRANCH   8  27
BRANCH  25  29
ATOM     29  O   UNL     1      32.597  -4.684 -22.816  0.00  0.00    -0.377 OA
ATOM     30  H   UNL     1      31.953  -4.482 -22.120  0.00  0.00    +0.211 HD
ENDBRANCH  25  29
BRANCH  23  31
ATOM     31  C   UNL     1      30.101  -5.939 -22.178  0.00  0.00    +0.170 C 
BRANCH  31  32
ATOM     32  O   UNL     1      30.340  -4.956 -21.191  0.00  0.00    -0.379 OA
ATOM     33  H   UNL     1      29.642  -4.284 -21.229  0.00  0.00    +0.211 HD
ENDBRANCH  31  32
ENDBRANCH  23  31
TORSDOF 4
ENDMDL
MODEL 3
REMARK VINA RESULT:      -8.4      1.452      3.558
REMARK  Name = 45480632
REMARK  4 active torsions:
REMARK  status: ('A' for Active; 'I' for Inactive)
REMARK    1  A    between atoms: C_8  and  O_27
REMARK    2  A    between atoms: C_23  and  C_31
REMARK    3  A    between atoms: C_25  and  O_29
REMARK    4  A    between atoms: C_31  and  O_32
REMARK                            x       y       z     vdW  Elec       q    Type
REMARK                         _______ _______ _______ _____ _____    ______ ____
ROOT
ATOM      1  O   UNL     1      32.684 -12.081 -21.453  0.00  0.00    -0.347 OA
ATOM      2  O   UNL     1      32.847  -9.661 -24.184  0.00  0.00    -0.353 OA
ATOM      3  O   UNL     1      34.144 -14.243 -24.079  0.00  0.00    -0.353 OA
ATOM      4  O   UNL     1      31.417  -7.480 -21.565  0.00  0.00    -0.346 OA
ATOM      5  O   UNL     1      34.835 -17.388 -22.323  0.00  0.00    -0.346 OA
ATOM      6  C   UNL     1      32.209 -11.050 -22.318  0.00  0.00    +0.172 C 
ATOM      7  C   UNL     1      33.298 -10.698 -23.321  0.00  0.00    +0.147 C 
ATOM      8  C   UNL     1      31.852  -9.815 -21.498  0.00  0.00    +0.169 C 
ATOM      9  C   UNL     1      33.640 -11.936 -24.137  0.00  0.00    +0.065 C 
ATOM     10  C   UNL     1      34.014 -13.110 -23.223  0.00  0.00    +0.149 C 
ATOM     11  C   UNL     1      31.517  -8.626 -22.413  0.00  0.00    +0.172 C 
ATOM     12  C   UNL     1      32.933 -13.317 -22.147  0.00  0.00    +0.164 C 
ATOM     13  C   UNL     1      32.608  -8.433 -23.480  0.00  0.00    +0.149 C 
ATOM     14  C   UNL     1      34.931 -15.309 -23.545  0.00  0.00    +0.151 C 
ATOM     15  C   UNL     1      32.242  -7.395 -24.548  0.00  0.00    +0.058 C 
ATOM     16  C   UNL     1      33.302 -14.319 -21.087  0.00  0.00    +0.003 C 
ATOM     17  C   UNL     1      34.089 -16.196 -22.607  0.00  0.00    +0.164 C 
ATOM     18  C   UNL     1      33.796 -15.549 -21.281  0.00  0.00    +0.003 C 
ATOM     19  C   UNL     1      35.504 -16.082 -24.751  0.00  0.00    +0.058 C 
ATOM     20  C   UNL     1      32.142  -5.977 -24.082  0.00  0.00    -0.026 C 
ATOM     21  C   UNL     1      30.650  -6.412 -22.104  0.00  0.00    +0.168 C 
ATOM     22  C   UNL     1      31.453  -5.547 -23.017  0.00  0.00    +0.001 C 
ATOM     23  C   UNL     1      34.209 -18.611 -22.739  0.00  0.00    +0.176 C 
ATOM     24  C   UNL     1      34.457 -16.854 -25.503  0.00  0.00    -0.026 C 
ATOM     25  C   UNL     1      34.668 -18.996 -24.161  0.00  0.00    +0.162 C 
ATOM     26  C   UNL     1      34.087 -18.117 -25.238  0.00  0.00    +0.001 C 
ENDROOT
BRANCH   8  27
ATOM     27  O   UNL     1      30.712 -10.123 -20.694  0.00  0.00    -0.379 OA
ATOM     28  H   UNL     1      30.942 -10.818 -20.058  0.00  0.00    +0.211 HD
ENDBRANCH   8  27
BRANCH  25  29
ATOM     29  O   UNL     1      34.268 -20.333 -24.466  0.00  0.00    -0.377 OA
ATOM     30  H   UNL     1      34.177 -20.432 -25.426  0.00  0.00    +0.211 HD
ENDBRANCH  25  29
BRANCH  23  31
ATOM     31  C   UNL     1      34.634 -19.657 -21.705  0.00  0.00    +0.170 C 
BRANCH  31  32
ATOM     32  O   UNL     1      35.187 -18.985 -20.591  0.00  0.00    -0.379 OA
ATOM     33  H   UNL     1      36.060 -19.358 -20.389  0.00  0.00    +0.211 HD
ENDBRANCH  31  32
ENDBRANCH  23  31
TORSDOF 4
ENDMDL
