MODEL 1
REMARK VINA RESULT:      -8.9      0.000      0.000
REMARK  Name = 5775429
REMARK  2 active torsions:
REMARK  status: ('A' for Active; 'I' for Inactive)
REMARK    1  A    between atoms: N_2  and  C_7
REMARK    2  A    between atoms: N_2  and  N_14
REMARK                            x       y       z     vdW  Elec       q    Type
REMARK                         _______ _______ _______ _____ _____    ______ ____
ROOT
ATOM      1  O   UNL     1      32.704 -21.669 -19.917  0.00  0.00    -0.285 OA
ATOM      2  C   UNL     1      34.533 -20.293 -20.529  0.00  0.00    +0.037 C 
ATOM      3  C   UNL     1      35.899 -20.056 -20.337  0.00  0.00    -0.015 C 
ATOM      4  C   UNL     1      33.890 -21.403 -19.801  0.00  0.00    +0.211 C 
ATOM      5  C   UNL     1      36.692 -20.891 -19.432  0.00  0.00    +0.054 C 
ATOM      6  C   UNL     1      34.733 -22.242 -18.878  0.00  0.00    +0.122 C 
ATOM      7  C   UNL     1      33.779 -19.493 -21.393  0.00  0.00    +0.003 C 
ATOM      8  C   UNL     1      36.506 -19.001 -21.031  0.00  0.00    -0.004 C 
ATOM      9  C   UNL     1      36.166 -21.911 -18.747  0.00  0.00    -0.000 C 
ATOM     10  C   UNL     1      34.397 -18.446 -22.076  0.00  0.00    +0.000 C 
ATOM     11  C   UNL     1      35.757 -18.200 -21.895  0.00  0.00    -0.000 C 
ENDROOT
BRANCH   6  12
ATOM     12  N   UNL     1      34.150 -23.209 -18.251  0.00  0.00    -0.144 NA
BRANCH  12  14
ATOM     13  O   UNL     1      35.293 -24.234 -15.968  0.00  0.00    -0.251 OA
ATOM     14  N   UNL     1      33.730 -22.873 -17.013  0.00  0.00    -0.200 N 
ATOM     15  N   UNL     1      33.817 -22.992 -14.722  0.00  0.00    -0.312 N 
ATOM     16  C   UNL     1      34.360 -23.435 -15.914  0.00  0.00    +0.315 C 
ATOM     17  H   UNL     1      32.986 -22.238 -16.892  0.00  0.00    +0.176 HD
ATOM     18  H   UNL     1      34.177 -23.318 -13.866  0.00  0.00    +0.147 HD
ATOM     19  H   UNL     1      33.069 -22.351 -14.729  0.00  0.00    +0.147 HD
ENDBRANCH  12  14
ENDBRANCH   6  12
TORSDOF 2
ENDMDL
MODEL 2
REMARK VINA RESULT:      -8.8      1.287      2.129
REMARK  Name = 5775429
REMARK  2 active torsions:
REMARK  status: ('A' for Active; 'I' for Inactive)
REMARK    1  A    between atoms: N_2  and  C_7
REMARK    2  A    between atoms: N_2  and  N_14
REMARK                            x       y       z     vdW  Elec       q    Type
REMARK                         _______ _______ _______ _____ _____    ______ ____
ROOT
ATOM      1  O   UNL     1      36.670 -22.026 -18.756  0.00  0.00    -0.285 OA
ATOM      2  C   UNL     1      35.538 -20.459 -20.125  0.00  0.00    +0.037 C 
ATOM      3  C   UNL     1      34.283 -20.030 -20.575  0.00  0.00    -0.015 C 
ATOM      4  C   UNL     1      35.612 -21.597 -19.190  0.00  0.00    +0.211 C 
ATOM      5  C   UNL     1      33.054 -20.691 -20.130  0.00  0.00    +0.054 C 
ATOM      6  C   UNL     1      34.331 -22.255 -18.754  0.00  0.00    +0.122 C 
ATOM      7  C   UNL     1      36.709 -19.825 -20.552  0.00  0.00    +0.003 C 
ATOM      8  C   UNL     1      34.216 -18.948 -21.463  0.00  0.00    -0.004 C 
ATOM      9  C   UNL     1      33.058 -21.726 -19.285  0.00  0.00    -0.000 C 
ATOM     10  C   UNL     1      36.627 -18.750 -21.436  0.00  0.00    +0.000 C 
ATOM     11  C   UNL     1      35.384 -18.313 -21.890  0.00  0.00    -0.000 C 
ENDROOT
BRANCH   6  12
ATOM     12  N   UNL     1      34.419 -23.249 -17.935  0.00  0.00    -0.144 NA
BRANCH  12  14
ATOM     13  O   UNL     1      36.255 -23.823 -15.967  0.00  0.00    -0.251 OA
ATOM     14  N   UNL     1      34.235 -22.900 -16.643  0.00  0.00    -0.200 N 
ATOM     15  N   UNL     1      34.875 -22.804 -14.441  0.00  0.00    -0.312 N 
ATOM     16  C   UNL     1      35.209 -23.228 -15.714  0.00  0.00    +0.315 C 
ATOM     17  H   UNL     1      33.421 -22.421 -16.365  0.00  0.00    +0.176 HD
ATOM     18  H   UNL     1      35.487 -22.976 -13.689  0.00  0.00    +0.147 HD
ATOM     19  H   UNL     1      34.026 -22.330 -14.286  0.00  0.00    +0.147 HD
ENDBRANCH  12  14
ENDBRANCH   6  12
TORSDOF 2
ENDMDL
MODEL 3
REMARK VINA RESULT:      -8.6      1.054      1.176
REMARK  Name = 5775429
REMARK  2 active torsions:
REMARK  status: ('A' for Active; 'I' for Inactive)
REMARK    1  A    between atoms: N_2  and  C_7
REMARK    2  A    between atoms: N_2  and  N_14
REMARK                            x       y       z     vdW  Elec       q    Type
REMARK                         _______ _______ _______ _____ _____    ______ ____
ROOT
ATOM      1  O   UNL     1      32.515 -22.273 -18.713  0.00  0.00    -0.285 OA
ATOM      2  C   UNL     1      34.020 -20.881 -19.900  0.00  0.00    +0.037 C 
ATOM      3  C   UNL     1      35.363 -20.514 -20.047  0.00  0.00    -0.015 C 
ATOM      4  C   UNL     1      33.663 -21.903 -18.897  0.00  0.00    +0.211 C 
ATOM      5  C   UNL     1      36.409 -21.127 -19.225  0.00  0.00    +0.054 C 
ATOM      6  C   UNL     1      34.762 -22.513 -18.069  0.00  0.00    +0.122 C 
ATOM      7  C   UNL     1      33.024 -20.293 -20.685  0.00  0.00    +0.003 C 
ATOM      8  C   UNL     1      35.698 -19.543 -21.000  0.00  0.00    -0.004 C 
ATOM      9  C   UNL     1      36.147 -22.057 -18.302  0.00  0.00    -0.000 C 
ATOM     10  C   UNL     1      33.372 -19.328 -21.630  0.00  0.00    +0.000 C 
ATOM     11  C   UNL     1      34.706 -18.954 -21.787  0.00  0.00    -0.000 C 
ENDROOT
BRANCH   6  12
ATOM     12  N   UNL     1      34.427 -23.406 -17.198  0.00  0.00    -0.144 NA
BRANCH  12  14
ATOM     13  O   UNL     1      36.047 -24.767 -15.440  0.00  0.00    -0.251 OA
ATOM     14  N   UNL     1      34.612 -23.008 -15.921  0.00  0.00    -0.200 N 
ATOM     15  N   UNL     1      35.530 -23.217 -13.828  0.00  0.00    -0.312 N 
ATOM     16  C   UNL     1      35.445 -23.751 -15.100  0.00  0.00    +0.315 C 
ATOM     17  H   UNL     1      34.161 -22.203 -15.578  0.00  0.00    +0.176 HD
ATOM     18  H   UNL     1      36.092 -23.653 -13.147  0.00  0.00    +0.147 HD
ATOM     19  H   UNL     1      35.029 -22.400 -13.601  0.00  0.00    +0.147 HD
ENDBRANCH  12  14
ENDBRANCH   6  12
TORSDOF 2
ENDMDL
MODEL 4
REMARK VINA RESULT:      -8.6      7.664     10.002
REMARK  Name = 5775429
REMARK  2 active torsions:
REMARK  status: ('A' for Active; 'I' for Inactive)
REMARK    1  A    between atoms: N_2  and  C_7
REMARK    2  A    between atoms: N_2  and  N_14
REMARK                            x       y       z     vdW  Elec       q    Type
REMARK                         _______ _______ _______ _____ _____    ______ ____
ROOT
ATOM      1  O   UNL     1      34.561 -14.224 -22.170  0.00  0.00    -0.285 OA
ATOM      2  C   UNL     1      34.553 -16.150 -23.549  0.00  0.00    +0.037 C 
ATOM      3  C   UNL     1      34.160 -16.665 -24.790  0.00  0.00    -0.015 C 
ATOM      4  C   UNL     1      34.250 -14.742 -23.231  0.00  0.00    +0.211 C 
ATOM      5  C   UNL     1      33.460 -15.830 -25.769  0.00  0.00    +0.054 C 
ATOM      6  C   UNL     1      33.528 -13.911 -24.258  0.00  0.00    +0.122 C 
ATOM      7  C   UNL     1      35.220 -16.950 -22.617  0.00  0.00    +0.003 C 
ATOM      8  C   UNL     1      34.449 -18.003 -25.089  0.00  0.00    -0.004 C 
ATOM      9  C   UNL     1      33.159 -14.549 -25.538  0.00  0.00    -0.000 C 
ATOM     10  C   UNL     1      35.501 -18.281 -22.928  0.00  0.00    +0.000 C 
ATOM     11  C   UNL     1      35.117 -18.806 -24.161  0.00  0.00    -0.000 C 
ENDROOT
BRANCH   6  12
ATOM     12  N   UNL     1      33.274 -12.681 -23.959  0.00  0.00    -0.144 NA
BRANCH  12  14
ATOM     13  O   UNL     1      33.025  -9.944 -23.834  0.00  0.00    -0.251 OA
ATOM     14  N   UNL     1      34.306 -11.844 -24.201  0.00  0.00    -0.200 N 
ATOM     15  N   UNL     1      35.244  -9.758 -24.390  0.00  0.00    -0.312 N 
ATOM     16  C   UNL     1      34.096 -10.477 -24.116  0.00  0.00    +0.315 C 
ATOM     17  H   UNL     1      35.194 -12.199 -24.434  0.00  0.00    +0.176 HD
ATOM     18  H   UNL     1      35.227  -8.774 -24.363  0.00  0.00    +0.147 HD
ATOM     19  H   UNL     1      36.080 -10.229 -24.612  0.00  0.00    +0.147 HD
ENDBRANCH  12  14
ENDBRANCH   6  12
TORSDOF 2
ENDMDL
MODEL 5
REMARK VINA RESULT:      -8.6      3.558      5.219
REMARK  Name = 5775429
REMARK  2 active torsions:
REMARK  status: ('A' for Active; 'I' for Inactive)
REMARK    1  A    between atoms: N_2  and  C_7
REMARK    2  A    between atoms: N_2  and  N_14
REMARK                            x       y       z     vdW  Elec       q    Type
REMARK                         _______ _______ _______ _____ _____    ______ ____
ROOT
ATOM      1  O   UNL     1      35.117 -16.389 -20.309  0.00  0.00    -0.285 OA
ATOM      2  C   UNL     1      34.481 -15.937 -22.546  0.00  0.00    +0.037 C 
ATOM      3  C   UNL     1      34.438 -16.451 -23.848  0.00  0.00    -0.015 C 
ATOM      4  C   UNL     1      35.047 -16.769 -21.467  0.00  0.00    +0.211 C 
ATOM      5  C   UNL     1      34.941 -17.793 -24.148  0.00  0.00    +0.054 C 
ATOM      6  C   UNL     1      35.556 -18.143 -21.809  0.00  0.00    +0.122 C 
ATOM      7  C   UNL     1      34.000 -14.655 -22.263  0.00  0.00    +0.003 C 
ATOM      8  C   UNL     1      33.900 -15.658 -24.870  0.00  0.00    -0.004 C 
ATOM      9  C   UNL     1      35.463 -18.593 -23.213  0.00  0.00    -0.000 C 
ATOM     10  C   UNL     1      33.468 -13.877 -23.290  0.00  0.00    +0.000 C 
ATOM     11  C   UNL     1      33.418 -14.377 -24.590  0.00  0.00    -0.000 C 
ENDROOT
BRANCH   6  12
ATOM     12  N   UNL     1      36.046 -18.855 -20.850  0.00  0.00    -0.144 NA
BRANCH  12  14
ATOM     13  O   UNL     1      36.740 -21.377 -19.999  0.00  0.00    -0.251 OA
ATOM     14  N   UNL     1      35.155 -19.710 -20.304  0.00  0.00    -0.200 N 
ATOM     15  N   UNL     1      34.560 -21.718 -19.365  0.00  0.00    -0.312 N 
ATOM     16  C   UNL     1      35.587 -20.964 -19.902  0.00  0.00    +0.315 C 
ATOM     17  H   UNL     1      34.212 -19.448 -20.195  0.00  0.00    +0.176 HD
ATOM     18  H   UNL     1      34.738 -22.631 -19.041  0.00  0.00    +0.147 HD
ATOM     19  H   UNL     1      33.651 -21.344 -19.308  0.00  0.00    +0.147 HD
ENDBRANCH  12  14
ENDBRANCH   6  12
TORSDOF 2
ENDMDL
MODEL 6
REMARK VINA RESULT:      -8.6      4.262      6.663
REMARK  Name = 5775429
REMARK  2 active torsions:
REMARK  status: ('A' for Active; 'I' for Inactive)
REMARK    1  A    between atoms: N_2  and  C_7
REMARK    2  A    between atoms: N_2  and  N_14
REMARK                            x       y       z     vdW  Elec       q    Type
REMARK                         _______ _______ _______ _____ _____    ______ ____
ROOT
ATOM      1  O   UNL     1      37.238 -19.691 -20.564  0.00  0.00    -0.285 OA
ATOM      2  C   UNL     1      35.249 -20.750 -19.834  0.00  0.00    +0.037 C 
ATOM      3  C   UNL     1      33.859 -20.800 -19.988  0.00  0.00    -0.015 C 
ATOM      4  C   UNL     1      36.024 -19.791 -20.643  0.00  0.00    +0.211 C 
ATOM      5  C   UNL     1      33.170 -19.920 -20.935  0.00  0.00    +0.054 C 
ATOM      6  C   UNL     1      35.287 -18.901 -21.606  0.00  0.00    +0.122 C 
ATOM      7  C   UNL     1      35.903 -21.591 -18.928  0.00  0.00    +0.003 C 
ATOM      8  C   UNL     1      33.126 -21.713 -19.217  0.00  0.00    -0.004 C 
ATOM      9  C   UNL     1      33.818 -19.032 -21.695  0.00  0.00    -0.000 C 
ATOM     10  C   UNL     1      35.160 -22.494 -18.168  0.00  0.00    +0.000 C 
ATOM     11  C   UNL     1      33.775 -22.555 -18.312  0.00  0.00    -0.000 C 
ENDROOT
BRANCH   6  12
ATOM     12  N   UNL     1      35.985 -18.069 -22.305  0.00  0.00    -0.144 NA
BRANCH  12  14
ATOM     13  O   UNL     1      35.199 -15.623 -23.288  0.00  0.00    -0.251 OA
ATOM     14  N   UNL     1      35.524 -17.904 -23.564  0.00  0.00    -0.200 N 
ATOM     15  N   UNL     1      34.701 -16.633 -25.289  0.00  0.00    -0.312 N 
ATOM     16  C   UNL     1      35.148 -16.637 -23.981  0.00  0.00    +0.315 C 
ATOM     17  H   UNL     1      35.455 -18.672 -24.176  0.00  0.00    +0.176 HD
ATOM     18  H   UNL     1      34.404 -15.791 -25.705  0.00  0.00    +0.147 HD
ATOM     19  H   UNL     1      34.679 -17.471 -25.805  0.00  0.00    +0.147 HD
ENDBRANCH  12  14
ENDBRANCH   6  12
TORSDOF 2
ENDMDL
MODEL 7
REMARK VINA RESULT:      -8.5      7.219      9.323
REMARK  Name = 5775429
REMARK  2 active torsions:
REMARK  status: ('A' for Active; 'I' for Inactive)
REMARK    1  A    between atoms: N_2  and  C_7
REMARK    2  A    between atoms: N_2  and  N_14
REMARK                            x       y       z     vdW  Elec       q    Type
REMARK                         _______ _______ _______ _____ _____    ______ ____
ROOT
ATOM      1  O   UNL     1      33.757 -15.202 -24.972  0.00  0.00    -0.285 OA
ATOM      2  C   UNL     1      34.502 -16.595 -23.207  0.00  0.00    +0.037 C 
ATOM      3  C   UNL     1      34.722 -16.671 -21.826  0.00  0.00    -0.015 C 
ATOM      4  C   UNL     1      33.975 -15.342 -23.779  0.00  0.00    +0.211 C 
ATOM      5  C   UNL     1      34.437 -15.532 -20.951  0.00  0.00    +0.054 C 
ATOM      6  C   UNL     1      33.693 -14.190 -22.852  0.00  0.00    +0.122 C 
ATOM      7  C   UNL     1      34.776 -17.684 -24.039  0.00  0.00    +0.003 C 
ATOM      8  C   UNL     1      35.223 -17.863 -21.286  0.00  0.00    -0.004 C 
ATOM      9  C   UNL     1      33.959 -14.372 -21.411  0.00  0.00    -0.000 C 
ATOM     10  C   UNL     1      35.274 -18.864 -23.488  0.00  0.00    +0.000 C 
ATOM     11  C   UNL     1      35.497 -18.953 -22.114  0.00  0.00    -0.000 C 
ENDROOT
BRANCH   6  12
ATOM     12  N   UNL     1      33.232 -13.103 -23.374  0.00  0.00    -0.144 NA
BRANCH  12  14
ATOM     13  O   UNL     1      33.023 -10.377 -23.684  0.00  0.00    -0.251 OA
ATOM     14  N   UNL     1      34.171 -12.368 -24.008  0.00  0.00    -0.200 N 
ATOM     15  N   UNL     1      35.034 -10.391 -24.792  0.00  0.00    -0.312 N 
ATOM     16  C   UNL     1      33.990 -10.999 -24.121  0.00  0.00    +0.315 C 
ATOM     17  H   UNL     1      34.973 -12.799 -24.384  0.00  0.00    +0.176 HD
ATOM     18  H   UNL     1      35.025  -9.418 -24.939  0.00  0.00    +0.147 HD
ATOM     19  H   UNL     1      35.788 -10.931 -25.125  0.00  0.00    +0.147 HD
ENDBRANCH  12  14
ENDBRANCH   6  12
TORSDOF 2
ENDMDL
MODEL 8
REMARK VINA RESULT:      -8.4      4.351      6.428
REMARK  Name = 5775429
REMARK  2 active torsions:
REMARK  status: ('A' for Active; 'I' for Inactive)
REMARK    1  A    between atoms: N_2  and  C_7
REMARK    2  A    between atoms: N_2  and  N_14
REMARK                            x       y       z     vdW  Elec       q    Type
REMARK                         _______ _______ _______ _____ _____    ______ ____
ROOT
ATOM      1  O   UNL     1      33.399 -18.314 -21.374  0.00  0.00    -0.285 OA
ATOM      2  C   UNL     1      34.353 -20.170 -20.253  0.00  0.00    +0.037 C 
ATOM      3  C   UNL     1      35.553 -20.803 -19.907  0.00  0.00    -0.015 C 
ATOM      4  C   UNL     1      34.403 -18.921 -21.037  0.00  0.00    +0.211 C 
ATOM      5  C   UNL     1      36.846 -20.245 -20.310  0.00  0.00    +0.054 C 
ATOM      6  C   UNL     1      35.747 -18.375 -21.435  0.00  0.00    +0.122 C 
ATOM      7  C   UNL     1      33.121 -20.706 -19.867  0.00  0.00    +0.003 C 
ATOM      8  C   UNL     1      35.502 -21.988 -19.162  0.00  0.00    -0.004 C 
ATOM      9  C   UNL     1      36.955 -19.118 -21.020  0.00  0.00    -0.000 C 
ATOM     10  C   UNL     1      33.085 -21.887 -19.126  0.00  0.00    +0.000 C 
ATOM     11  C   UNL     1      34.273 -22.526 -18.775  0.00  0.00    -0.000 C 
ENDROOT
BRANCH   6  12
ATOM     12  N   UNL     1      35.768 -17.280 -22.120  0.00  0.00    -0.144 NA
BRANCH  12  14
ATOM     13  O   UNL     1      34.224 -15.613 -23.671  0.00  0.00    -0.251 OA
ATOM     14  N   UNL     1      35.596 -17.471 -23.446  0.00  0.00    -0.200 N 
ATOM     15  N   UNL     1      34.725 -16.914 -25.495  0.00  0.00    -0.312 N 
ATOM     16  C   UNL     1      34.802 -16.584 -24.155  0.00  0.00    +0.315 C 
ATOM     17  H   UNL     1      36.027 -18.230 -23.902  0.00  0.00    +0.176 HD
ATOM     18  H   UNL     1      34.190 -16.360 -26.108  0.00  0.00    +0.147 HD
ATOM     19  H   UNL     1      35.205 -17.703 -25.837  0.00  0.00    +0.147 HD
ENDBRANCH  12  14
ENDBRANCH   6  12
TORSDOF 2
ENDMDL
MODEL 9
REMARK VINA RESULT:      -8.4      7.316      9.316
REMARK  Name = 5775429
REMARK  2 active torsions:
REMARK  status: ('A' for Active; 'I' for Inactive)
REMARK    1  A    between atoms: N_2  and  C_7
REMARK    2  A    between atoms: N_2  and  N_14
REMARK                            x       y       z     vdW  Elec       q    Type
REMARK                         _______ _______ _______ _____ _____    ______ ____
ROOT
ATOM      1  O   UNL     1      34.411 -14.383 -21.797  0.00  0.00    -0.285 OA
ATOM      2  C   UNL     1      34.519 -16.156 -23.363  0.00  0.00    +0.037 C 
ATOM      3  C   UNL     1      34.199 -16.550 -24.668  0.00  0.00    -0.015 C 
ATOM      4  C   UNL     1      34.163 -14.795 -22.919  0.00  0.00    +0.211 C 
ATOM      5  C   UNL     1      33.523 -15.633 -25.590  0.00  0.00    +0.054 C 
ATOM      6  C   UNL     1      33.469 -13.879 -23.890  0.00  0.00    +0.122 C 
ATOM      7  C   UNL     1      35.163 -17.034 -22.486  0.00  0.00    +0.003 C 
ATOM      8  C   UNL     1      34.538 -17.843 -25.087  0.00  0.00    -0.004 C 
ATOM      9  C   UNL     1      33.177 -14.390 -25.245  0.00  0.00    -0.000 C 
ATOM     10  C   UNL     1      35.494 -18.318 -22.916  0.00  0.00    +0.000 C 
ATOM     11  C   UNL     1      35.183 -18.722 -24.213  0.00  0.00    -0.000 C 
ENDROOT
BRANCH   6  12
ATOM     12  N   UNL     1      33.168 -12.692 -23.480  0.00  0.00    -0.144 NA
BRANCH  12  14
ATOM     13  O   UNL     1      32.216 -10.363 -22.369  0.00  0.00    -0.251 OA
ATOM     14  N   UNL     1      32.068 -12.655 -22.698  0.00  0.00    -0.200 N 
ATOM     15  N   UNL     1      30.518 -11.567 -21.402  0.00  0.00    -0.312 N 
ATOM     16  C   UNL     1      31.655 -11.439 -22.177  0.00  0.00    +0.315 C 
ATOM     17  H   UNL     1      31.566 -13.479 -22.501  0.00  0.00    +0.176 HD
ATOM     18  H   UNL     1      30.123 -10.774 -20.973  0.00  0.00    +0.147 HD
ATOM     19  H   UNL     1      30.103 -12.451 -21.277  0.00  0.00    +0.147 HD
ENDBRANCH  12  14
ENDBRANCH   6  12
TORSDOF 2
ENDMDL
