MODEL 1
REMARK VINA RESULT:     -10.5      0.000      0.000
REMARK  Name = 68706
REMARK  5 active torsions:
REMARK  status: ('A' for Active; 'I' for Inactive)
REMARK    1  A    between atoms: N_1  and  C_13
REMARK    2  A    between atoms: C_3  and  C_19
REMARK    3  A    between atoms: C_4  and  C_7
REMARK    4  A    between atoms: C_19  and  C_21
REMARK    5  A    between atoms: C_21  and  O_22
REMARK                            x       y       z     vdW  Elec       q    Type
REMARK                         _______ _______ _______ _____ _____    ______ ____
ROOT
ATOM      1  N   UNL     1      34.470 -18.576 -21.394  0.00  0.00    -0.189 N 
ATOM      2  N   UNL     1      33.736 -17.545 -20.941  0.00  0.00    -0.174 NA
ATOM      3  C   UNL     1      34.758 -17.040 -22.922  0.00  0.00    +0.025 C 
ATOM      4  C   UNL     1      33.913 -16.606 -21.878  0.00  0.00    +0.097 C 
ATOM      5  C   UNL     1      35.102 -18.324 -22.576  0.00  0.00    +0.087 C 
ENDROOT
BRANCH   4   7
ATOM      6 CL   UNL     1      31.271 -11.304 -21.354  0.00  0.00    -0.082 Cl
ATOM      7  C   UNL     1      33.276 -15.325 -21.752  0.00  0.00    +0.019 C 
ATOM      8  C   UNL     1      33.003 -14.804 -20.487  0.00  0.00    +0.002 C 
ATOM      9  C   UNL     1      32.930 -14.602 -22.894  0.00  0.00    +0.002 C 
ATOM     10  C   UNL     1      32.381 -13.561 -20.364  0.00  0.00    +0.011 C 
ATOM     11  C   UNL     1      32.310 -13.359 -22.771  0.00  0.00    +0.011 C 
ATOM     12  C   UNL     1      32.036 -12.839 -21.506  0.00  0.00    +0.058 C 
ENDBRANCH   4   7
BRANCH   1  13
ATOM     13  C   UNL     1      34.536 -19.766 -20.674  0.00  0.00    +0.074 C 
ATOM     14  C   UNL     1      35.774 -20.330 -20.390  0.00  0.00    +0.017 C 
ATOM     15  C   UNL     1      33.363 -20.374 -20.242  0.00  0.00    +0.017 C 
ATOM     16  C   UNL     1      35.841 -21.520 -19.665  0.00  0.00    +0.001 C 
ATOM     17  C   UNL     1      33.430 -21.565 -19.519  0.00  0.00    +0.001 C 
ATOM     18  C   UNL     1      34.669 -22.138 -19.229  0.00  0.00    +0.000 C 
ENDBRANCH   1  13
BRANCH   3  19
ATOM     19  C   UNL     1      35.186 -16.298 -24.119  0.00  0.00    +0.139 C 
BRANCH  19  21
ATOM     20  O   UNL     1      34.519 -17.946 -25.783  0.00  0.00    -0.250 OA
ATOM     21  C   UNL     1      34.544 -16.780 -25.414  0.00  0.00    +0.318 C 
BRANCH  21  22
ATOM     22  O   UNL     1      33.992 -15.765 -26.130  0.00  0.00    -0.480 OA
ATOM     23  H   UNL     1      33.849 -15.866 -27.051  0.00  0.00    +0.295 HD
ENDBRANCH  21  22
ENDBRANCH  19  21
ENDBRANCH   3  19
TORSDOF 5
ENDMDL
MODEL 2
REMARK VINA RESULT:     -10.1      2.824      6.438
REMARK  Name = 68706
REMARK  5 active torsions:
REMARK  status: ('A' for Active; 'I' for Inactive)
REMARK    1  A    between atoms: N_1  and  C_13
REMARK    2  A    between atoms: C_3  and  C_19
REMARK    3  A    between atoms: C_4  and  C_7
REMARK    4  A    between atoms: C_19  and  C_21
REMARK    5  A    between atoms: C_21  and  O_22
REMARK                            x       y       z     vdW  Elec       q    Type
REMARK                         _______ _______ _______ _____ _____    ______ ____
ROOT
ATOM      1  N   UNL     1      33.340 -14.785 -22.077  0.00  0.00    -0.189 N 
ATOM      2  N   UNL     1      33.460 -15.830 -21.240  0.00  0.00    -0.174 NA
ATOM      3  C   UNL     1      34.467 -16.246 -23.248  0.00  0.00    +0.025 C 
ATOM      4  C   UNL     1      34.150 -16.723 -21.959  0.00  0.00    +0.097 C 
ATOM      5  C   UNL     1      33.926 -14.984 -23.292  0.00  0.00    +0.087 C 
ENDROOT
BRANCH   4   7
ATOM      6 CL   UNL     1      35.539 -22.018 -19.635  0.00  0.00    -0.082 Cl
ATOM      7  C   UNL     1      34.486 -18.002 -21.398  0.00  0.00    +0.019 C 
ATOM      8  C   UNL     1      33.475 -18.908 -21.074  0.00  0.00    +0.002 C 
ATOM      9  C   UNL     1      35.822 -18.339 -21.178  0.00  0.00    +0.002 C 
ATOM     10  C   UNL     1      33.801 -20.149 -20.527  0.00  0.00    +0.011 C 
ATOM     11  C   UNL     1      36.147 -19.580 -20.633  0.00  0.00    +0.011 C 
ATOM     12  C   UNL     1      35.137 -20.486 -20.307  0.00  0.00    +0.058 C 
ENDBRANCH   4   7
BRANCH   1  13
ATOM     13  C   UNL     1      32.668 -13.633 -21.677  0.00  0.00    +0.074 C 
ATOM     14  C   UNL     1      32.462 -13.392 -20.324  0.00  0.00    +0.017 C 
ATOM     15  C   UNL     1      32.214 -12.735 -22.636  0.00  0.00    +0.017 C 
ATOM     16  C   UNL     1      31.792 -12.236 -19.923  0.00  0.00    +0.001 C 
ATOM     17  C   UNL     1      31.543 -11.580 -22.235  0.00  0.00    +0.001 C 
ATOM     18  C   UNL     1      31.332 -11.330 -20.879  0.00  0.00    +0.000 C 
ENDBRANCH   1  13
BRANCH   3  19
ATOM     19  C   UNL     1      35.209 -16.932 -24.319  0.00  0.00    +0.139 C 
BRANCH  19  21
ATOM     20  O   UNL     1      34.519 -19.203 -24.864  0.00  0.00    -0.250 OA
ATOM     21  C   UNL     1      34.404 -17.999 -25.050  0.00  0.00    +0.318 C 
BRANCH  21  22
ATOM     22  O   UNL     1      33.529 -17.469 -25.945  0.00  0.00    -0.480 OA
ATOM     23  H   UNL     1      33.201 -17.995 -26.647  0.00  0.00    +0.295 HD
ENDBRANCH  21  22
ENDBRANCH  19  21
ENDBRANCH   3  19
TORSDOF 5
ENDMDL
MODEL 3
REMARK VINA RESULT:     -10.1      2.816      6.443
REMARK  Name = 68706
REMARK  5 active torsions:
REMARK  status: ('A' for Active; 'I' for Inactive)
REMARK    1  A    between atoms: N_1  and  C_13
REMARK    2  A    between atoms: C_3  and  C_19
REMARK    3  A    between atoms: C_4  and  C_7
REMARK    4  A    between atoms: C_19  and  C_21
REMARK    5  A    between atoms: C_21  and  O_22
REMARK                            x       y       z     vdW  Elec       q    Type
REMARK                         _______ _______ _______ _____ _____    ______ ____
ROOT
ATOM      1  N   UNL     1      33.296 -14.757 -22.035  0.00  0.00    -0.189 N 
ATOM      2  N   UNL     1      33.387 -15.814 -21.210  0.00  0.00    -0.174 NA
ATOM      3  C   UNL     1      34.437 -16.212 -23.199  0.00  0.00    +0.025 C 
ATOM      4  C   UNL     1      34.086 -16.704 -21.925  0.00  0.00    +0.097 C 
ATOM      5  C   UNL     1      33.909 -14.945 -23.239  0.00  0.00    +0.087 C 
ENDROOT
BRANCH   4   7
ATOM      6 CL   UNL     1      35.374 -22.045 -19.648  0.00  0.00    -0.082 Cl
ATOM      7  C   UNL     1      34.397 -17.993 -21.374  0.00  0.00    +0.019 C 
ATOM      8  C   UNL     1      35.727 -18.363 -21.172  0.00  0.00    +0.002 C 
ATOM      9  C   UNL     1      33.369 -18.877 -21.042  0.00  0.00    +0.002 C 
ATOM     10  C   UNL     1      36.029 -19.616 -20.639  0.00  0.00    +0.011 C 
ATOM     11  C   UNL     1      33.671 -20.129 -20.508  0.00  0.00    +0.011 C 
ATOM     12  C   UNL     1      35.001 -20.499 -20.307  0.00  0.00    +0.058 C 
ENDBRANCH   4   7
BRANCH   1  13
ATOM     13  C   UNL     1      32.625 -13.604 -21.635  0.00  0.00    +0.074 C 
ATOM     14  C   UNL     1      32.132 -12.729 -22.595  0.00  0.00    +0.017 C 
ATOM     15  C   UNL     1      32.452 -13.344 -20.281  0.00  0.00    +0.017 C 
ATOM     16  C   UNL     1      31.456 -11.576 -22.196  0.00  0.00    +0.001 C 
ATOM     17  C   UNL     1      31.778 -12.191 -19.882  0.00  0.00    +0.001 C 
ATOM     18  C   UNL     1      31.279 -11.307 -20.838  0.00  0.00    +0.000 C 
ENDBRANCH   1  13
BRANCH   3  19
ATOM     19  C   UNL     1      35.198 -16.892 -24.262  0.00  0.00    +0.139 C 
BRANCH  19  21
ATOM     20  O   UNL     1      34.458 -19.110 -24.940  0.00  0.00    -0.250 OA
ATOM     21  C   UNL     1      34.382 -17.896 -25.067  0.00  0.00    +0.318 C 
BRANCH  21  22
ATOM     22  O   UNL     1      33.548 -17.296 -25.956  0.00  0.00    -0.480 OA
ATOM     23  H   UNL     1      33.037 -17.817 -26.545  0.00  0.00    +0.295 HD
ENDBRANCH  21  22
ENDBRANCH  19  21
ENDBRANCH   3  19
TORSDOF 5
ENDMDL
MODEL 4
REMARK VINA RESULT:      -9.7      5.056      7.251
REMARK  Name = 68706
REMARK  5 active torsions:
REMARK  status: ('A' for Active; 'I' for Inactive)
REMARK    1  A    between atoms: N_1  and  C_13
REMARK    2  A    between atoms: C_3  and  C_19
REMARK    3  A    between atoms: C_4  and  C_7
REMARK    4  A    between atoms: C_19  and  C_21
REMARK    5  A    between atoms: C_21  and  O_22
REMARK                            x       y       z     vdW  Elec       q    Type
REMARK                         _______ _______ _______ _____ _____    ______ ____
ROOT
ATOM      1  N   UNL     1      32.894 -12.870 -22.937  0.00  0.00    -0.189 N 
ATOM      2  N   UNL     1      33.099 -11.692 -23.549  0.00  0.00    -0.174 NA
ATOM      3  C   UNL     1      31.747 -11.462 -21.722  0.00  0.00    +0.025 C 
ATOM      4  C   UNL     1      32.395 -10.831 -22.804  0.00  0.00    +0.097 C 
ATOM      5  C   UNL     1      32.092 -12.787 -21.837  0.00  0.00    +0.087 C 
ENDROOT
BRANCH   4   7
ATOM      6 CL   UNL     1      32.251  -5.056 -24.217  0.00  0.00    -0.082 Cl
ATOM      7  C   UNL     1      32.361  -9.436 -23.144  0.00  0.00    +0.019 C 
ATOM      8  C   UNL     1      31.138  -8.804 -23.373  0.00  0.00    +0.002 C 
ATOM      9  C   UNL     1      33.549  -8.713 -23.247  0.00  0.00    +0.002 C 
ATOM     10  C   UNL     1      31.104  -7.450 -23.706  0.00  0.00    +0.011 C 
ATOM     11  C   UNL     1      33.515  -7.359 -23.579  0.00  0.00    +0.011 C 
ATOM     12  C   UNL     1      32.293  -6.728 -23.808  0.00  0.00    +0.058 C 
ENDBRANCH   4   7
BRANCH   1  13
ATOM     13  C   UNL     1      33.479 -14.034 -23.430  0.00  0.00    +0.074 C 
ATOM     14  C   UNL     1      34.351 -14.759 -22.627  0.00  0.00    +0.017 C 
ATOM     15  C   UNL     1      33.180 -14.460 -24.719  0.00  0.00    +0.017 C 
ATOM     16  C   UNL     1      34.934 -15.926 -23.119  0.00  0.00    +0.001 C 
ATOM     17  C   UNL     1      33.764 -15.627 -25.211  0.00  0.00    +0.001 C 
ATOM     18  C   UNL     1      34.640 -16.361 -24.412  0.00  0.00    +0.000 C 
ENDBRANCH   1  13
BRANCH   3  19
ATOM     19  C   UNL     1      30.889 -10.854 -20.691  0.00  0.00    +0.139 C 
BRANCH  19  21
ATOM     20  O   UNL     1      32.398  -9.324 -19.546  0.00  0.00    -0.250 OA
ATOM     21  C   UNL     1      31.652 -10.291 -19.498  0.00  0.00    +0.318 C 
BRANCH  21  22
ATOM     22  O   UNL     1      31.415 -10.987 -18.354  0.00  0.00    -0.480 OA
ATOM     23  H   UNL     1      30.691 -10.756 -17.806  0.00  0.00    +0.295 HD
ENDBRANCH  21  22
ENDBRANCH  19  21
ENDBRANCH   3  19
TORSDOF 5
ENDMDL
MODEL 5
REMARK VINA RESULT:      -9.5      6.075      8.571
REMARK  Name = 68706
REMARK  5 active torsions:
REMARK  status: ('A' for Active; 'I' for Inactive)
REMARK    1  A    between atoms: N_1  and  C_13
REMARK    2  A    between atoms: C_3  and  C_19
REMARK    3  A    between atoms: C_4  and  C_7
REMARK    4  A    between atoms: C_19  and  C_21
REMARK    5  A    between atoms: C_21  and  O_22
REMARK                            x       y       z     vdW  Elec       q    Type
REMARK                         _______ _______ _______ _____ _____    ______ ____
ROOT
ATOM      1  N   UNL     1      32.236 -23.339 -16.587  0.00  0.00    -0.189 N 
ATOM      2  N   UNL     1      32.229 -22.615 -17.720  0.00  0.00    -0.174 NA
ATOM      3  C   UNL     1      34.348 -22.879 -16.907  0.00  0.00    +0.025 C 
ATOM      4  C   UNL     1      33.523 -22.335 -17.913  0.00  0.00    +0.097 C 
ATOM      5  C   UNL     1      33.480 -23.525 -16.061  0.00  0.00    +0.087 C 
ENDROOT
BRANCH   4   7
ATOM      6 CL   UNL     1      35.228 -19.111 -22.611  0.00  0.00    -0.082 Cl
ATOM      7  C   UNL     1      33.934 -21.557 -19.049  0.00  0.00    +0.019 C 
ATOM      8  C   UNL     1      35.273 -21.550 -19.441  0.00  0.00    +0.002 C 
ATOM      9  C   UNL     1      32.996 -20.807 -19.759  0.00  0.00    +0.002 C 
ATOM     10  C   UNL     1      35.674 -20.793 -20.542  0.00  0.00    +0.011 C 
ATOM     11  C   UNL     1      33.396 -20.051 -20.860  0.00  0.00    +0.011 C 
ATOM     12  C   UNL     1      34.735 -20.044 -21.251  0.00  0.00    +0.058 C 
ENDBRANCH   4   7
BRANCH   1  13
ATOM     13  C   UNL     1      31.046 -23.827 -16.053  0.00  0.00    +0.074 C 
ATOM     14  C   UNL     1      29.835 -23.272 -16.450  0.00  0.00    +0.017 C 
ATOM     15  C   UNL     1      31.082 -24.867 -15.132  0.00  0.00    +0.017 C 
ATOM     16  C   UNL     1      28.643 -23.763 -15.919  0.00  0.00    +0.001 C 
ATOM     17  C   UNL     1      29.890 -25.357 -14.599  0.00  0.00    +0.001 C 
ATOM     18  C   UNL     1      28.670 -24.806 -14.993  0.00  0.00    +0.000 C 
ENDBRANCH   1  13
BRANCH   3  19
ATOM     19  C   UNL     1      35.812 -22.784 -16.776  0.00  0.00    +0.139 C 
BRANCH  19  21
ATOM     20  O   UNL     1      36.430 -22.840 -14.421  0.00  0.00    -0.250 OA
ATOM     21  C   UNL     1      36.365 -23.410 -15.501  0.00  0.00    +0.318 C 
BRANCH  21  22
ATOM     22  O   UNL     1      36.787 -24.688 -15.690  0.00  0.00    -0.480 OA
ATOM     23  H   UNL     1      36.858 -25.270 -14.959  0.00  0.00    +0.295 HD
ENDBRANCH  21  22
ENDBRANCH  19  21
ENDBRANCH   3  19
TORSDOF 5
ENDMDL
MODEL 6
REMARK VINA RESULT:      -9.5      6.504      9.143
REMARK  Name = 68706
REMARK  5 active torsions:
REMARK  status: ('A' for Active; 'I' for Inactive)
REMARK    1  A    between atoms: N_1  and  C_13
REMARK    2  A    between atoms: C_3  and  C_19
REMARK    3  A    between atoms: C_4  and  C_7
REMARK    4  A    between atoms: C_19  and  C_21
REMARK    5  A    between atoms: C_21  and  O_22
REMARK                            x       y       z     vdW  Elec       q    Type
REMARK                         _______ _______ _______ _____ _____    ______ ____
ROOT
ATOM      1  N   UNL     1      35.541 -23.920 -15.454  0.00  0.00    -0.189 N 
ATOM      2  N   UNL     1      35.933 -23.194 -16.515  0.00  0.00    -0.174 NA
ATOM      3  C   UNL     1      33.657 -23.367 -16.414  0.00  0.00    +0.025 C 
ATOM      4  C   UNL     1      34.779 -22.856 -17.101  0.00  0.00    +0.097 C 
ATOM      5  C   UNL     1      34.188 -24.054 -15.350  0.00  0.00    +0.087 C 
ENDROOT
BRANCH   4   7
ATOM      6 CL   UNL     1      34.773 -19.553 -22.047  0.00  0.00    -0.082 Cl
ATOM      7  C   UNL     1      34.777 -22.059 -18.296  0.00  0.00    +0.019 C 
ATOM      8  C   UNL     1      35.982 -21.597 -18.827  0.00  0.00    +0.002 C 
ATOM      9  C   UNL     1      33.572 -21.747 -18.926  0.00  0.00    +0.002 C 
ATOM     10  C   UNL     1      35.980 -20.821 -19.986  0.00  0.00    +0.011 C 
ATOM     11  C   UNL     1      33.571 -20.973 -20.085  0.00  0.00    +0.011 C 
ATOM     12  C   UNL     1      34.775 -20.509 -20.615  0.00  0.00    +0.058 C 
ENDBRANCH   4   7
BRANCH   1  13
ATOM     13  C   UNL     1      36.481 -24.459 -14.580  0.00  0.00    +0.074 C 
ATOM     14  C   UNL     1      36.070 -24.954 -13.348  0.00  0.00    +0.017 C 
ATOM     15  C   UNL     1      37.821 -24.500 -14.951  0.00  0.00    +0.017 C 
ATOM     16  C   UNL     1      37.011 -25.497 -12.473  0.00  0.00    +0.001 C 
ATOM     17  C   UNL     1      38.761 -25.042 -14.076  0.00  0.00    +0.001 C 
ATOM     18  C   UNL     1      38.357 -25.541 -12.837  0.00  0.00    +0.000 C 
ENDBRANCH   1  13
BRANCH   3  19
ATOM     19  C   UNL     1      32.232 -23.211 -16.750  0.00  0.00    +0.139 C 
BRANCH  19  21
ATOM     20  O   UNL     1      31.150 -22.494 -14.689  0.00  0.00    -0.250 OA
ATOM     21  C   UNL     1      31.293 -23.344 -15.557  0.00  0.00    +0.318 C 
BRANCH  21  22
ATOM     22  O   UNL     1      30.620 -24.525 -15.554  0.00  0.00    -0.480 OA
ATOM     23  H   UNL     1      30.948 -25.249 -15.057  0.00  0.00    +0.295 HD
ENDBRANCH  21  22
ENDBRANCH  19  21
ENDBRANCH   3  19
TORSDOF 5
ENDMDL
MODEL 7
REMARK VINA RESULT:      -9.5      6.951     10.560
REMARK  Name = 68706
REMARK  5 active torsions:
REMARK  status: ('A' for Active; 'I' for Inactive)
REMARK    1  A    between atoms: N_1  and  C_13
REMARK    2  A    between atoms: C_3  and  C_19
REMARK    3  A    between atoms: C_4  and  C_7
REMARK    4  A    between atoms: C_19  and  C_21
REMARK    5  A    between atoms: C_21  and  O_22
REMARK                            x       y       z     vdW  Elec       q    Type
REMARK                         _______ _______ _______ _____ _____    ______ ____
ROOT
ATOM      1  N   UNL     1      34.009 -22.256 -17.986  0.00  0.00    -0.189 N 
ATOM      2  N   UNL     1      35.094 -22.644 -17.294  0.00  0.00    -0.174 NA
ATOM      3  C   UNL     1      33.170 -23.435 -16.349  0.00  0.00    +0.025 C 
ATOM      4  C   UNL     1      34.578 -23.365 -16.292  0.00  0.00    +0.097 C 
ATOM      5  C   UNL     1      32.833 -22.704 -17.461  0.00  0.00    +0.087 C 
ENDROOT
BRANCH   4   7
ATOM      6 CL   UNL     1      38.147 -25.846 -12.232  0.00  0.00    -0.082 Cl
ATOM      7  C   UNL     1      35.439 -23.965 -15.311  0.00  0.00    +0.019 C 
ATOM      8  C   UNL     1      35.942 -23.195 -14.261  0.00  0.00    +0.002 C 
ATOM      9  C   UNL     1      35.774 -25.316 -15.408  0.00  0.00    +0.002 C 
ATOM     10  C   UNL     1      36.780 -23.777 -13.310  0.00  0.00    +0.011 C 
ATOM     11  C   UNL     1      36.611 -25.897 -14.456  0.00  0.00    +0.011 C 
ATOM     12  C   UNL     1      37.114 -25.128 -13.407  0.00  0.00    +0.058 C 
ENDBRANCH   4   7
BRANCH   1  13
ATOM     13  C   UNL     1      34.143 -21.471 -19.128  0.00  0.00    +0.074 C 
ATOM     14  C   UNL     1      33.013 -20.924 -19.723  0.00  0.00    +0.017 C 
ATOM     15  C   UNL     1      35.408 -21.238 -19.658  0.00  0.00    +0.017 C 
ATOM     16  C   UNL     1      33.147 -20.134 -20.864  0.00  0.00    +0.001 C 
ATOM     17  C   UNL     1      35.541 -20.449 -20.800  0.00  0.00    +0.001 C 
ATOM     18  C   UNL     1      34.411 -19.896 -21.404  0.00  0.00    +0.000 C 
ENDBRANCH   1  13
BRANCH   3  19
ATOM     19  C   UNL     1      32.252 -24.130 -15.430  0.00  0.00    +0.139 C 
BRANCH  19  21
ATOM     20  O   UNL     1      30.570 -22.621 -14.522  0.00  0.00    -0.250 OA
ATOM     21  C   UNL     1      31.623 -23.226 -14.377  0.00  0.00    +0.318 C 
BRANCH  21  22
ATOM     22  O   UNL     1      32.364 -23.159 -13.239  0.00  0.00    -0.480 OA
ATOM     23  H   UNL     1      33.210 -23.561 -13.207  0.00  0.00    +0.295 HD
ENDBRANCH  21  22
ENDBRANCH  19  21
ENDBRANCH   3  19
TORSDOF 5
ENDMDL
MODEL 8
REMARK VINA RESULT:      -9.4      6.953     10.537
REMARK  Name = 68706
REMARK  5 active torsions:
REMARK  status: ('A' for Active; 'I' for Inactive)
REMARK    1  A    between atoms: N_1  and  C_13
REMARK    2  A    between atoms: C_3  and  C_19
REMARK    3  A    between atoms: C_4  and  C_7
REMARK    4  A    between atoms: C_19  and  C_21
REMARK    5  A    between atoms: C_21  and  O_22
REMARK                            x       y       z     vdW  Elec       q    Type
REMARK                         _______ _______ _______ _____ _____    ______ ____
ROOT
ATOM      1  N   UNL     1      33.947 -22.261 -17.985  0.00  0.00    -0.189 N 
ATOM      2  N   UNL     1      35.026 -22.671 -17.296  0.00  0.00    -0.174 NA
ATOM      3  C   UNL     1      33.090 -23.426 -16.347  0.00  0.00    +0.025 C 
ATOM      4  C   UNL     1      34.499 -23.384 -16.294  0.00  0.00    +0.097 C 
ATOM      5  C   UNL     1      32.764 -22.686 -17.457  0.00  0.00    +0.087 C 
ENDROOT
BRANCH   4   7
ATOM      6 CL   UNL     1      38.023 -25.946 -12.246  0.00  0.00    -0.082 Cl
ATOM      7  C   UNL     1      35.351 -24.003 -15.317  0.00  0.00    +0.019 C 
ATOM      8  C   UNL     1      35.746 -25.331 -15.477  0.00  0.00    +0.002 C 
ATOM      9  C   UNL     1      35.783 -23.275 -14.207  0.00  0.00    +0.002 C 
ATOM     10  C   UNL     1      36.572 -25.932 -14.527  0.00  0.00    +0.011 C 
ATOM     11  C   UNL     1      36.609 -23.876 -13.258  0.00  0.00    +0.011 C 
ATOM     12  C   UNL     1      37.003 -25.205 -13.418  0.00  0.00    +0.058 C 
ENDBRANCH   4   7
BRANCH   1  13
ATOM     13  C   UNL     1      34.094 -21.476 -19.126  0.00  0.00    +0.074 C 
ATOM     14  C   UNL     1      35.360 -21.271 -19.661  0.00  0.00    +0.017 C 
ATOM     15  C   UNL     1      32.971 -20.911 -19.720  0.00  0.00    +0.017 C 
ATOM     16  C   UNL     1      35.506 -20.488 -20.806  0.00  0.00    +0.001 C 
ATOM     17  C   UNL     1      33.118 -20.128 -20.864  0.00  0.00    +0.001 C 
ATOM     18  C   UNL     1      34.385 -19.916 -21.408  0.00  0.00    +0.000 C 
ENDBRANCH   1  13
BRANCH   3  19
ATOM     19  C   UNL     1      32.161 -24.104 -15.426  0.00  0.00    +0.139 C 
BRANCH  19  21
ATOM     20  O   UNL     1      30.466 -22.582 -14.568  0.00  0.00    -0.250 OA
ATOM     21  C   UNL     1      31.518 -23.181 -14.398  0.00  0.00    +0.318 C 
BRANCH  21  22
ATOM     22  O   UNL     1      32.246 -23.090 -13.255  0.00  0.00    -0.480 OA
ATOM     23  H   UNL     1      32.024 -22.449 -12.608  0.00  0.00    +0.295 HD
ENDBRANCH  21  22
ENDBRANCH  19  21
ENDBRANCH   3  19
TORSDOF 5
ENDMDL
MODEL 9
REMARK VINA RESULT:      -9.3      2.638      3.901
REMARK  Name = 68706
REMARK  5 active torsions:
REMARK  status: ('A' for Active; 'I' for Inactive)
REMARK    1  A    between atoms: N_1  and  C_13
REMARK    2  A    between atoms: C_3  and  C_19
REMARK    3  A    between atoms: C_4  and  C_7
REMARK    4  A    between atoms: C_19  and  C_21
REMARK    5  A    between atoms: C_21  and  O_22
REMARK                            x       y       z     vdW  Elec       q    Type
REMARK                         _______ _______ _______ _____ _____    ______ ____
ROOT
ATOM      1  N   UNL     1      34.007 -15.664 -23.494  0.00  0.00    -0.189 N 
ATOM      2  N   UNL     1      33.797 -14.556 -22.763  0.00  0.00    -0.174 NA
ATOM      3  C   UNL     1      33.134 -14.268 -24.930  0.00  0.00    +0.025 C 
ATOM      4  C   UNL     1      33.263 -13.702 -23.645  0.00  0.00    +0.097 C 
ATOM      5  C   UNL     1      33.626 -15.543 -24.798  0.00  0.00    +0.087 C 
ENDROOT
BRANCH   4   7
ATOM      6 CL   UNL     1      31.736  -8.208 -21.956  0.00  0.00    -0.082 Cl
ATOM      7  C   UNL     1      32.894 -12.375 -23.237  0.00  0.00    +0.019 C 
ATOM      8  C   UNL     1      33.544 -11.270 -23.789  0.00  0.00    +0.002 C 
ATOM      9  C   UNL     1      31.886 -12.191 -22.290  0.00  0.00    +0.002 C 
ATOM     10  C   UNL     1      33.186  -9.982 -23.392  0.00  0.00    +0.011 C 
ATOM     11  C   UNL     1      31.528 -10.902 -21.895  0.00  0.00    +0.011 C 
ATOM     12  C   UNL     1      32.178  -9.798 -22.445  0.00  0.00    +0.058 C 
ENDBRANCH   4   7
BRANCH   1  13
ATOM     13  C   UNL     1      34.563 -16.800 -22.911  0.00  0.00    +0.074 C 
ATOM     14  C   UNL     1      34.877 -16.794 -21.557  0.00  0.00    +0.017 C 
ATOM     15  C   UNL     1      34.794 -17.928 -23.689  0.00  0.00    +0.017 C 
ATOM     16  C   UNL     1      35.430 -17.933 -20.972  0.00  0.00    +0.001 C 
ATOM     17  C   UNL     1      35.349 -19.066 -23.104  0.00  0.00    +0.001 C 
ATOM     18  C   UNL     1      35.667 -19.070 -21.746  0.00  0.00    +0.000 C 
ENDBRANCH   1  13
BRANCH   3  19
ATOM     19  C   UNL     1      32.596 -13.645 -26.152  0.00  0.00    +0.139 C 
BRANCH  19  21
ATOM     20  O   UNL     1      34.100 -13.764 -28.063  0.00  0.00    -0.250 OA
ATOM     21  C   UNL     1      33.663 -13.133 -27.112  0.00  0.00    +0.318 C 
BRANCH  21  22
ATOM     22  O   UNL     1      34.087 -11.881 -26.796  0.00  0.00    -0.480 OA
ATOM     23  H   UNL     1      33.556 -11.138 -27.008  0.00  0.00    +0.295 HD
ENDBRANCH  21  22
ENDBRANCH  19  21
ENDBRANCH   3  19
TORSDOF 5
ENDMDL
