MODEL 1
REMARK VINA RESULT:      -6.0      0.000      0.000
REMARK  Name = 10630
REMARK  1 active torsions:
REMARK  status: ('A' for Active; 'I' for Inactive)
REMARK    1  A    between atoms: N_4  and  C_10
REMARK                            x       y       z     vdW  Elec       q    Type
REMARK                         _______ _______ _______ _____ _____    ______ ____
ROOT
ATOM      1  O   UNL     1      35.050 -18.577 -23.087  0.00  0.00    -0.433 OA
ATOM      2  O   UNL     1      35.018 -16.436 -20.328  0.00  0.00    -0.271 OA
ATOM      3  O   UNL     1      34.682 -17.168 -24.842  0.00  0.00    -0.226 OA
ATOM      4  N   UNL     1      34.807 -16.408 -22.652  0.00  0.00    -0.193 N 
ATOM      5  C   UNL     1      35.180 -18.458 -21.660  0.00  0.00    +0.206 C 
ATOM      6  C   UNL     1      34.995 -16.980 -21.423  0.00  0.00    +0.270 C 
ATOM      7  C   UNL     1      34.079 -19.266 -20.990  0.00  0.00    +0.053 C 
ATOM      8  C   UNL     1      36.572 -18.912 -21.247  0.00  0.00    +0.053 C 
ATOM      9  C   UNL     1      34.829 -17.346 -23.640  0.00  0.00    +0.411 C 
ENDROOT
BRANCH   4  10
ATOM     10  C   UNL     1      34.594 -14.993 -22.883  0.00  0.00    +0.104 C 
ATOM     11  C   UNL     1      33.126 -14.632 -22.797  0.00  0.00    +0.024 C 
ENDBRANCH   4  10
TORSDOF 1
ENDMDL
MODEL 2
REMARK VINA RESULT:      -6.0      0.805      2.561
REMARK  Name = 10630
REMARK  1 active torsions:
REMARK  status: ('A' for Active; 'I' for Inactive)
REMARK    1  A    between atoms: N_4  and  C_10
REMARK                            x       y       z     vdW  Elec       q    Type
REMARK                         _______ _______ _______ _____ _____    ______ ____
ROOT
ATOM      1  O   UNL     1      35.085 -17.339 -20.393  0.00  0.00    -0.433 OA
ATOM      2  O   UNL     1      35.204 -18.154 -23.787  0.00  0.00    -0.271 OA
ATOM      3  O   UNL     1      34.758 -15.082 -20.412  0.00  0.00    -0.226 OA
ATOM      4  N   UNL     1      34.919 -16.324 -22.366  0.00  0.00    -0.193 N 
ATOM      5  C   UNL     1      35.228 -18.383 -21.371  0.00  0.00    +0.206 C 
ATOM      6  C   UNL     1      35.122 -17.640 -22.680  0.00  0.00    +0.270 C 
ATOM      7  C   UNL     1      36.596 -19.030 -21.214  0.00  0.00    +0.053 C 
ATOM      8  C   UNL     1      34.089 -19.378 -21.209  0.00  0.00    +0.053 C 
ATOM      9  C   UNL     1      34.905 -16.135 -21.017  0.00  0.00    +0.411 C 
ENDROOT
BRANCH   4  10
ATOM     10  C   UNL     1      34.757 -15.257 -23.334  0.00  0.00    +0.104 C 
ATOM     11  C   UNL     1      33.296 -14.930 -23.561  0.00  0.00    +0.024 C 
ENDBRANCH   4  10
TORSDOF 1
ENDMDL
MODEL 3
REMARK VINA RESULT:      -5.9      9.819     11.478
REMARK  Name = 10630
REMARK  1 active torsions:
REMARK  status: ('A' for Active; 'I' for Inactive)
REMARK    1  A    between atoms: N_4  and  C_10
REMARK                            x       y       z     vdW  Elec       q    Type
REMARK                         _______ _______ _______ _____ _____    ______ ____
ROOT
ATOM      1  O   UNL     1      35.617 -25.307 -15.492  0.00  0.00    -0.433 OA
ATOM      2  O   UNL     1      37.688 -23.339 -13.483  0.00  0.00    -0.271 OA
ATOM      3  O   UNL     1      36.869 -27.178 -15.853  0.00  0.00    -0.226 OA
ATOM      4  N   UNL     1      37.632 -25.413 -14.554  0.00  0.00    -0.193 N 
ATOM      5  C   UNL     1      35.767 -24.071 -14.773  0.00  0.00    +0.206 C 
ATOM      6  C   UNL     1      37.146 -24.191 -14.173  0.00  0.00    +0.270 C 
ATOM      7  C   UNL     1      35.692 -22.911 -15.754  0.00  0.00    +0.053 C 
ATOM      8  C   UNL     1      34.701 -23.991 -13.691  0.00  0.00    +0.053 C 
ATOM      9  C   UNL     1      36.739 -26.075 -15.341  0.00  0.00    +0.411 C 
ENDROOT
BRANCH   4  10
ATOM     10  C   UNL     1      38.933 -25.936 -14.189  0.00  0.00    +0.104 C 
ATOM     11  C   UNL     1      40.026 -25.376 -15.075  0.00  0.00    +0.024 C 
ENDBRANCH   4  10
TORSDOF 1
ENDMDL
MODEL 4
REMARK VINA RESULT:      -5.7     10.731     12.253
REMARK  Name = 10630
REMARK  1 active torsions:
REMARK  status: ('A' for Active; 'I' for Inactive)
REMARK    1  A    between atoms: N_4  and  C_10
REMARK                            x       y       z     vdW  Elec       q    Type
REMARK                         _______ _______ _______ _____ _____    ______ ____
ROOT
ATOM      1  O   UNL     1      36.711 -23.163 -13.696  0.00  0.00    -0.433 OA
ATOM      2  O   UNL     1      37.092 -26.245 -12.097  0.00  0.00    -0.271 OA
ATOM      3  O   UNL     1      38.114 -23.330 -15.486  0.00  0.00    -0.226 OA
ATOM      4  N   UNL     1      37.842 -25.061 -13.963  0.00  0.00    -0.193 N 
ATOM      5  C   UNL     1      36.314 -24.001 -12.597  0.00  0.00    +0.206 C 
ATOM      6  C   UNL     1      37.116 -25.259 -12.821  0.00  0.00    +0.270 C 
ATOM      7  C   UNL     1      36.701 -23.326 -11.290  0.00  0.00    +0.053 C 
ATOM      8  C   UNL     1      34.821 -24.276 -12.693  0.00  0.00    +0.053 C 
ATOM      9  C   UNL     1      37.616 -23.822 -14.482  0.00  0.00    +0.411 C 
ENDROOT
BRANCH   4  10
ATOM     10  C   UNL     1      38.750 -26.029 -14.546  0.00  0.00    +0.104 C 
ATOM     11  C   UNL     1      40.184 -25.758 -14.141  0.00  0.00    +0.024 C 
ENDBRANCH   4  10
TORSDOF 1
ENDMDL
MODEL 5
REMARK VINA RESULT:      -5.7     10.320     11.614
REMARK  Name = 10630
REMARK  1 active torsions:
REMARK  status: ('A' for Active; 'I' for Inactive)
REMARK    1  A    between atoms: N_4  and  C_10
REMARK                            x       y       z     vdW  Elec       q    Type
REMARK                         _______ _______ _______ _____ _____    ______ ____
ROOT
ATOM      1  O   UNL     1      37.916 -26.661 -14.387  0.00  0.00    -0.433 OA
ATOM      2  O   UNL     1      37.816 -23.224 -13.770  0.00  0.00    -0.271 OA
ATOM      3  O   UNL     1      36.202 -26.974 -15.858  0.00  0.00    -0.226 OA
ATOM      4  N   UNL     1      36.739 -24.879 -15.016  0.00  0.00    -0.193 N 
ATOM      5  C   UNL     1      38.504 -25.550 -13.689  0.00  0.00    +0.206 C 
ATOM      6  C   UNL     1      37.664 -24.380 -14.139  0.00  0.00    +0.270 C 
ATOM      7  C   UNL     1      38.374 -25.778 -12.190  0.00  0.00    +0.053 C 
ATOM      8  C   UNL     1      39.951 -25.392 -14.132  0.00  0.00    +0.053 C 
ATOM      9  C   UNL     1      36.875 -26.227 -15.161  0.00  0.00    +0.411 C 
ENDROOT
BRANCH   4  10
ATOM     10  C   UNL     1      35.731 -24.089 -15.693  0.00  0.00    +0.104 C 
ATOM     11  C   UNL     1      34.470 -23.968 -14.863  0.00  0.00    +0.024 C 
ENDBRANCH   4  10
TORSDOF 1
ENDMDL
MODEL 6
REMARK VINA RESULT:      -5.7      2.777      4.776
REMARK  Name = 10630
REMARK  1 active torsions:
REMARK  status: ('A' for Active; 'I' for Inactive)
REMARK    1  A    between atoms: N_4  and  C_10
REMARK                            x       y       z     vdW  Elec       q    Type
REMARK                         _______ _______ _______ _____ _____    ______ ____
ROOT
ATOM      1  O   UNL     1      33.607 -19.111 -21.244  0.00  0.00    -0.433 OA
ATOM      2  O   UNL     1      37.064 -19.503 -20.930  0.00  0.00    -0.271 OA
ATOM      3  O   UNL     1      32.777 -20.934 -20.154  0.00  0.00    -0.226 OA
ATOM      4  N   UNL     1      35.056 -20.530 -20.327  0.00  0.00    -0.193 N 
ATOM      5  C   UNL     1      34.907 -18.570 -21.535  0.00  0.00    +0.206 C 
ATOM      6  C   UNL     1      35.843 -19.572 -20.906  0.00  0.00    +0.270 C 
ATOM      7  C   UNL     1      35.096 -18.510 -23.044  0.00  0.00    +0.053 C 
ATOM      8  C   UNL     1      35.037 -17.205 -20.875  0.00  0.00    +0.053 C 
ATOM      9  C   UNL     1      33.734 -20.271 -20.530  0.00  0.00    +0.411 C 
ENDROOT
BRANCH   4  10
ATOM     10  C   UNL     1      35.553 -21.684 -19.605  0.00  0.00    +0.104 C 
ATOM     11  C   UNL     1      36.516 -21.281 -18.508  0.00  0.00    +0.024 C 
ENDBRANCH   4  10
TORSDOF 1
ENDMDL
MODEL 7
REMARK VINA RESULT:      -5.7      7.185      9.446
REMARK  Name = 10630
REMARK  1 active torsions:
REMARK  status: ('A' for Active; 'I' for Inactive)
REMARK    1  A    between atoms: N_4  and  C_10
REMARK                            x       y       z     vdW  Elec       q    Type
REMARK                         _______ _______ _______ _____ _____    ______ ____
ROOT
ATOM      1  O   UNL     1      32.805  -8.065 -20.340  0.00  0.00    -0.433 OA
ATOM      2  O   UNL     1      31.228  -9.109 -23.277  0.00  0.00    -0.271 OA
ATOM      3  O   UNL     1      32.342  -9.750 -18.875  0.00  0.00    -0.226 OA
ATOM      4  N   UNL     1      31.604  -9.788 -21.075  0.00  0.00    -0.193 N 
ATOM      5  C   UNL     1      32.519  -7.770 -21.718  0.00  0.00    +0.206 C 
ATOM      6  C   UNL     1      31.698  -8.957 -22.158  0.00  0.00    +0.270 C 
ATOM      7  C   UNL     1      31.713  -6.482 -21.796  0.00  0.00    +0.053 C 
ATOM      8  C   UNL     1      33.827  -7.688 -22.491  0.00  0.00    +0.053 C 
ATOM      9  C   UNL     1      32.247  -9.265 -19.995  0.00  0.00    +0.411 C 
ENDROOT
BRANCH   4  10
ATOM     10  C   UNL     1      30.900 -11.055 -21.064  0.00  0.00    +0.104 C 
ATOM     11  C   UNL     1      31.789 -12.189 -21.531  0.00  0.00    +0.024 C 
ENDBRANCH   4  10
TORSDOF 1
ENDMDL
MODEL 8
REMARK VINA RESULT:      -5.6      1.659      3.531
REMARK  Name = 10630
REMARK  1 active torsions:
REMARK  status: ('A' for Active; 'I' for Inactive)
REMARK    1  A    between atoms: N_4  and  C_10
REMARK                            x       y       z     vdW  Elec       q    Type
REMARK                         _______ _______ _______ _____ _____    ______ ____
ROOT
ATOM      1  O   UNL     1      34.766 -16.735 -20.389  0.00  0.00    -0.433 OA
ATOM      2  O   UNL     1      33.903 -15.775 -23.635  0.00  0.00    -0.271 OA
ATOM      3  O   UNL     1      36.042 -18.595 -20.720  0.00  0.00    -0.226 OA
ATOM      4  N   UNL     1      35.125 -17.397 -22.483  0.00  0.00    -0.193 N 
ATOM      5  C   UNL     1      34.066 -15.787 -21.213  0.00  0.00    +0.206 C 
ATOM      6  C   UNL     1      34.332 -16.289 -22.611  0.00  0.00    +0.270 C 
ATOM      7  C   UNL     1      32.583 -15.837 -20.881  0.00  0.00    +0.053 C 
ATOM      8  C   UNL     1      34.666 -14.405 -21.002  0.00  0.00    +0.053 C 
ATOM      9  C   UNL     1      35.379 -17.672 -21.173  0.00  0.00    +0.411 C 
ENDROOT
BRANCH   4  10
ATOM     10  C   UNL     1      35.621 -18.191 -23.589  0.00  0.00    +0.104 C 
ATOM     11  C   UNL     1      34.592 -19.201 -24.053  0.00  0.00    +0.024 C 
ENDBRANCH   4  10
TORSDOF 1
ENDMDL
MODEL 9
REMARK VINA RESULT:      -5.6      2.745      4.533
REMARK  Name = 10630
REMARK  1 active torsions:
REMARK  status: ('A' for Active; 'I' for Inactive)
REMARK    1  A    between atoms: N_4  and  C_10
REMARK                            x       y       z     vdW  Elec       q    Type
REMARK                         _______ _______ _______ _____ _____    ______ ____
ROOT
ATOM      1  O   UNL     1      32.635 -14.181 -25.069  0.00  0.00    -0.433 OA
ATOM      2  O   UNL     1      35.151 -15.184 -22.864  0.00  0.00    -0.271 OA
ATOM      3  O   UNL     1      32.741 -15.747 -26.723  0.00  0.00    -0.226 OA
ATOM      4  N   UNL     1      34.145 -15.804 -24.877  0.00  0.00    -0.193 N 
ATOM      5  C   UNL     1      33.322 -13.918 -23.834  0.00  0.00    +0.206 C 
ATOM      6  C   UNL     1      34.336 -15.033 -23.763  0.00  0.00    +0.270 C 
ATOM      7  C   UNL     1      34.002 -12.560 -23.922  0.00  0.00    +0.053 C 
ATOM      8  C   UNL     1      32.330 -14.001 -22.684  0.00  0.00    +0.053 C 
ATOM      9  C   UNL     1      33.149 -15.304 -25.659  0.00  0.00    +0.411 C 
ENDROOT
BRANCH   4  10
ATOM     10  C   UNL     1      34.911 -16.992 -25.202  0.00  0.00    +0.104 C 
ATOM     11  C   UNL     1      34.430 -18.194 -24.417  0.00  0.00    +0.024 C 
ENDBRANCH   4  10
TORSDOF 1
ENDMDL
