MODEL 1
REMARK VINA RESULT:     -11.9      0.000      0.000
REMARK  Name = 6914621
REMARK  7 active torsions:
REMARK  status: ('A' for Active; 'I' for Inactive)
REMARK    1  A    between atoms: C_1  and  C_9
REMARK    2  A    between atoms: C_6  and  O_22
REMARK    3  A    between atoms: N_8  and  C_14
REMARK    4  A    between atoms: C_14  and  C_18
REMARK    5  A    between atoms: N_17  and  O_20
REMARK    6  A    between atoms: O_22  and  C_23
REMARK    7  A    between atoms: C_23  and  C_25
REMARK                            x       y       z     vdW  Elec       q    Type
REMARK                         _______ _______ _______ _____ _____    ______ ____
ROOT
ATOM      1  C   UNL     1      34.893 -19.341 -20.975  0.00  0.00    -0.014 C 
ATOM      2  C   UNL     1      33.503 -19.300 -20.991  0.00  0.00    -0.001 C 
ATOM      3  C   UNL     1      35.561 -20.357 -20.298  0.00  0.00    -0.001 C 
ATOM      4  C   UNL     1      32.773 -20.284 -20.322  0.00  0.00    +0.037 C 
ATOM      5  C   UNL     1      34.832 -21.340 -19.629  0.00  0.00    +0.037 C 
ATOM      6  C   UNL     1      33.438 -21.304 -19.642  0.00  0.00    +0.139 C 
ENDROOT
BRANCH   1   9
ATOM      7  O   UNL     1      35.209 -18.474 -24.103  0.00  0.00    -0.275 OA
ATOM      8  N   UNL     1      34.339 -16.694 -22.844  0.00  0.00    -0.273 N 
ATOM      9  C   UNL     1      35.695 -18.260 -21.707  0.00  0.00    +0.089 C 
ATOM     10  C   UNL     1      35.650 -16.910 -20.950  0.00  0.00    +0.034 C 
ATOM     11  C   UNL     1      34.402 -16.229 -21.480  0.00  0.00    +0.095 C 
ATOM     12  C   UNL     1      35.084 -17.854 -23.056  0.00  0.00    +0.229 C 
ATOM     13  C   UNL     1      37.141 -18.722 -21.935  0.00  0.00    +0.014 C 
BRANCH   8  14
ATOM     14  C   UNL     1      33.502 -16.043 -23.828  0.00  0.00    +0.154 C 
ATOM     15  C   UNL     1      34.117 -16.122 -25.217  0.00  0.00    +0.031 C 
BRANCH  14  18
ATOM     16  O   UNL     1      32.373 -14.219 -22.702  0.00  0.00    -0.271 OA
ATOM     17  N   UNL     1      34.285 -13.772 -23.914  0.00  0.00    -0.196 N 
ATOM     18  C   UNL     1      33.312 -14.595 -23.400  0.00  0.00    +0.262 C 
ATOM     19  H   UNL     1      35.022 -14.117 -24.470  0.00  0.00    +0.182 HD
BRANCH  17  20
ATOM     20  O   UNL     1      34.168 -12.412 -23.599  0.00  0.00    -0.295 OA
ATOM     21  H   UNL     1      33.344 -12.062 -23.973  0.00  0.00    +0.241 HD
ENDBRANCH  17  20
ENDBRANCH  14  18
ENDBRANCH   8  14
ENDBRANCH   1   9
BRANCH   6  22
ATOM     22  O   UNL     1      32.726 -22.264 -18.991  0.00  0.00    -0.471 OA
BRANCH  22  23
ATOM     23  C   UNL     1      33.459 -23.170 -18.168  0.00  0.00    +0.229 C 
BRANCH  23  25
ATOM     24  N   UNL     1      31.528 -23.325 -14.354  0.00  0.00    -0.410 NA
ATOM     25  C   UNL     1      32.815 -23.235 -16.815  0.00  0.00    +0.012 C 
ATOM     26  C   UNL     1      33.535 -23.575 -15.665  0.00  0.00    +0.096 C 
ATOM     27  C   UNL     1      31.463 -22.942 -16.737  0.00  0.00    +0.023 C 
ATOM     28  C   UNL     1      32.841 -23.608 -14.436  0.00  0.00    +0.116 C 
ATOM     29  C   UNL     1      30.871 -23.002 -15.492  0.00  0.00    +0.109 C 
ATOM     30  C   UNL     1      34.907 -23.876 -15.714  0.00  0.00    -0.015 C 
ATOM     31  C   UNL     1      33.556 -23.946 -13.290  0.00  0.00    +0.028 C 
ATOM     32  C   UNL     1      35.597 -24.211 -14.552  0.00  0.00    -0.004 C 
ATOM     33  C   UNL     1      29.417 -22.695 -15.355  0.00  0.00    +0.066 C 
ATOM     34  C   UNL     1      34.920 -24.246 -13.339  0.00  0.00    +0.002 C 
ENDBRANCH  23  25
ENDBRANCH  22  23
ENDBRANCH   6  22
TORSDOF 7
ENDMDL
MODEL 2
REMARK VINA RESULT:     -11.9      3.298     10.286
REMARK  Name = 6914621
REMARK  7 active torsions:
REMARK  status: ('A' for Active; 'I' for Inactive)
REMARK    1  A    between atoms: C_1  and  C_9
REMARK    2  A    between atoms: C_6  and  O_22
REMARK    3  A    between atoms: N_8  and  C_14
REMARK    4  A    between atoms: C_14  and  C_18
REMARK    5  A    between atoms: N_17  and  O_20
REMARK    6  A    between atoms: O_22  and  C_23
REMARK    7  A    between atoms: C_23  and  C_25
REMARK                            x       y       z     vdW  Elec       q    Type
REMARK                         _______ _______ _______ _____ _____    ______ ____
ROOT
ATOM      1  C   UNL     1      34.863 -22.920 -16.885  0.00  0.00    -0.014 C 
ATOM      2  C   UNL     1      33.900 -22.816 -17.884  0.00  0.00    -0.001 C 
ATOM      3  C   UNL     1      36.118 -22.344 -17.052  0.00  0.00    -0.001 C 
ATOM      4  C   UNL     1      34.196 -22.129 -19.062  0.00  0.00    +0.037 C 
ATOM      5  C   UNL     1      36.414 -21.657 -18.229  0.00  0.00    +0.037 C 
ATOM      6  C   UNL     1      35.452 -21.549 -19.234  0.00  0.00    +0.139 C 
ENDROOT
BRANCH   1   9
ATOM      7  O   UNL     1      35.507 -25.923 -15.787  0.00  0.00    -0.275 OA
ATOM      8  N   UNL     1      36.458 -24.311 -14.369  0.00  0.00    -0.273 N 
ATOM      9  C   UNL     1      34.538 -23.677 -15.592  0.00  0.00    +0.089 C 
ATOM     10  C   UNL     1      34.726 -22.777 -14.346  0.00  0.00    +0.034 C 
ATOM     11  C   UNL     1      36.190 -22.948 -13.983  0.00  0.00    +0.095 C 
ATOM     12  C   UNL     1      35.527 -24.809 -15.282  0.00  0.00    +0.229 C 
ATOM     13  C   UNL     1      33.119 -24.258 -15.649  0.00  0.00    +0.014 C 
BRANCH   8  14
ATOM     14  C   UNL     1      37.634 -25.014 -13.902  0.00  0.00    +0.154 C 
ATOM     15  C   UNL     1      38.070 -24.514 -12.534  0.00  0.00    +0.031 C 
BRANCH  14  18
ATOM     16  O   UNL     1      38.949 -23.743 -15.491  0.00  0.00    -0.271 OA
ATOM     17  N   UNL     1      39.432 -25.978 -15.174  0.00  0.00    -0.196 N 
ATOM     18  C   UNL     1      38.738 -24.816 -14.930  0.00  0.00    +0.262 C 
ATOM     19  H   UNL     1      39.228 -26.817 -14.700  0.00  0.00    +0.182 HD
BRANCH  17  20
ATOM     20  O   UNL     1      40.447 -25.896 -16.136  0.00  0.00    -0.295 OA
ATOM     21  H   UNL     1      40.055 -25.720 -17.006  0.00  0.00    +0.241 HD
ENDBRANCH  17  20
ENDBRANCH  14  18
ENDBRANCH   8  14
ENDBRANCH   1   9
BRANCH   6  22
ATOM     22  O   UNL     1      35.741 -20.877 -20.382  0.00  0.00    -0.471 OA
BRANCH  22  23
ATOM     23  C   UNL     1      35.791 -19.453 -20.307  0.00  0.00    +0.229 C 
BRANCH  23  25
ATOM     24  N   UNL     1      34.540 -17.906 -24.094  0.00  0.00    -0.410 NA
ATOM     25  C   UNL     1      35.347 -18.877 -21.619  0.00  0.00    +0.012 C 
ATOM     26  C   UNL     1      34.972 -17.535 -21.752  0.00  0.00    +0.096 C 
ATOM     27  C   UNL     1      35.319 -19.726 -22.713  0.00  0.00    +0.023 C 
ATOM     28  C   UNL     1      34.569 -17.085 -23.027  0.00  0.00    +0.116 C 
ATOM     29  C   UNL     1      34.910 -19.194 -23.919  0.00  0.00    +0.109 C 
ATOM     30  C   UNL     1      34.991 -16.651 -20.660  0.00  0.00    -0.015 C 
ATOM     31  C   UNL     1      34.196 -15.750 -23.162  0.00  0.00    +0.028 C 
ATOM     32  C   UNL     1      34.613 -15.321 -20.824  0.00  0.00    -0.004 C 
ATOM     33  C   UNL     1      34.862 -20.069 -25.128  0.00  0.00    +0.066 C 
ATOM     34  C   UNL     1      34.214 -14.871 -22.076  0.00  0.00    +0.002 C 
ENDBRANCH  23  25
ENDBRANCH  22  23
ENDBRANCH   6  22
TORSDOF 7
ENDMDL
MODEL 3
REMARK VINA RESULT:     -11.3      0.790      2.268
REMARK  Name = 6914621
REMARK  7 active torsions:
REMARK  status: ('A' for Active; 'I' for Inactive)
REMARK    1  A    between atoms: C_1  and  C_9
REMARK    2  A    between atoms: C_6  and  O_22
REMARK    3  A    between atoms: N_8  and  C_14
REMARK    4  A    between atoms: C_14  and  C_18
REMARK    5  A    between atoms: N_17  and  O_20
REMARK    6  A    between atoms: O_22  and  C_23
REMARK    7  A    between atoms: C_23  and  C_25
REMARK                            x       y       z     vdW  Elec       q    Type
REMARK                         _______ _______ _______ _____ _____    ______ ____
ROOT
ATOM      1  C   UNL     1      34.891 -19.269 -21.022  0.00  0.00    -0.014 C 
ATOM      2  C   UNL     1      33.501 -19.209 -21.002  0.00  0.00    -0.001 C 
ATOM      3  C   UNL     1      35.562 -20.290 -20.357  0.00  0.00    -0.001 C 
ATOM      4  C   UNL     1      32.776 -20.179 -20.309  0.00  0.00    +0.037 C 
ATOM      5  C   UNL     1      34.838 -21.260 -19.665  0.00  0.00    +0.037 C 
ATOM      6  C   UNL     1      33.444 -21.205 -19.642  0.00  0.00    +0.139 C 
ENDROOT
BRANCH   1   9
ATOM      7  O   UNL     1      35.142 -18.425 -24.162  0.00  0.00    -0.275 OA
ATOM      8  N   UNL     1      34.324 -16.627 -22.894  0.00  0.00    -0.273 N 
ATOM      9  C   UNL     1      35.688 -18.202 -21.781  0.00  0.00    +0.089 C 
ATOM     10  C   UNL     1      35.678 -16.847 -21.032  0.00  0.00    +0.034 C 
ATOM     11  C   UNL     1      34.425 -16.154 -21.536  0.00  0.00    +0.095 C 
ATOM     12  C   UNL     1      35.050 -17.797 -23.117  0.00  0.00    +0.229 C 
ATOM     13  C   UNL     1      37.122 -18.683 -22.040  0.00  0.00    +0.014 C 
BRANCH   8  14
ATOM     14  C   UNL     1      33.471 -15.972 -23.863  0.00  0.00    +0.154 C 
ATOM     15  C   UNL     1      34.062 -16.050 -25.262  0.00  0.00    +0.031 C 
BRANCH  14  18
ATOM     16  O   UNL     1      32.379 -14.152 -22.695  0.00  0.00    -0.271 OA
ATOM     17  N   UNL     1      34.242 -13.698 -23.981  0.00  0.00    -0.196 N 
ATOM     18  C   UNL     1      33.292 -14.525 -23.429  0.00  0.00    +0.262 C 
ATOM     19  H   UNL     1      34.957 -14.040 -24.565  0.00  0.00    +0.182 HD
BRANCH  17  20
ATOM     20  O   UNL     1      34.131 -12.338 -23.663  0.00  0.00    -0.295 OA
ATOM     21  H   UNL     1      34.886 -12.071 -23.116  0.00  0.00    +0.241 HD
ENDBRANCH  17  20
ENDBRANCH  14  18
ENDBRANCH   8  14
ENDBRANCH   1   9
BRANCH   6  22
ATOM     22  O   UNL     1      32.737 -22.153 -18.967  0.00  0.00    -0.471 OA
BRANCH  22  23
ATOM     23  C   UNL     1      33.453 -23.303 -18.521  0.00  0.00    +0.229 C 
BRANCH  23  25
ATOM     24  N   UNL     1      33.831 -23.220 -14.261  0.00  0.00    -0.410 NA
ATOM     25  C   UNL     1      33.548 -23.273 -17.025  0.00  0.00    +0.012 C 
ATOM     26  C   UNL     1      32.411 -23.229 -16.209  0.00  0.00    +0.096 C 
ATOM     27  C   UNL     1      34.815 -23.290 -16.465  0.00  0.00    +0.023 C 
ATOM     28  C   UNL     1      32.602 -23.203 -14.811  0.00  0.00    +0.116 C 
ATOM     29  C   UNL     1      34.901 -23.262 -15.087  0.00  0.00    +0.109 C 
ATOM     30  C   UNL     1      31.114 -23.211 -16.749  0.00  0.00    -0.015 C 
ATOM     31  C   UNL     1      31.473 -23.160 -13.997  0.00  0.00    +0.028 C 
ATOM     32  C   UNL     1      30.003 -23.168 -15.912  0.00  0.00    -0.004 C 
ATOM     33  C   UNL     1      36.244 -23.278 -14.436  0.00  0.00    +0.066 C 
ATOM     34  C   UNL     1      30.184 -23.142 -14.534  0.00  0.00    +0.002 C 
ENDBRANCH  23  25
ENDBRANCH  22  23
ENDBRANCH   6  22
TORSDOF 7
ENDMDL
MODEL 4
REMARK VINA RESULT:     -11.3      3.522     10.337
REMARK  Name = 6914621
REMARK  7 active torsions:
REMARK  status: ('A' for Active; 'I' for Inactive)
REMARK    1  A    between atoms: C_1  and  C_9
REMARK    2  A    between atoms: C_6  and  O_22
REMARK    3  A    between atoms: N_8  and  C_14
REMARK    4  A    between atoms: C_14  and  C_18
REMARK    5  A    between atoms: N_17  and  O_20
REMARK    6  A    between atoms: O_22  and  C_23
REMARK    7  A    between atoms: C_23  and  C_25
REMARK                            x       y       z     vdW  Elec       q    Type
REMARK                         _______ _______ _______ _____ _____    ______ ____
ROOT
ATOM      1  C   UNL     1      34.975 -22.709 -16.954  0.00  0.00    -0.014 C 
ATOM      2  C   UNL     1      36.152 -22.057 -17.311  0.00  0.00    -0.001 C 
ATOM      3  C   UNL     1      33.892 -22.737 -17.827  0.00  0.00    -0.001 C 
ATOM      4  C   UNL     1      36.245 -21.428 -18.553  0.00  0.00    +0.037 C 
ATOM      5  C   UNL     1      33.985 -22.108 -19.068  0.00  0.00    +0.037 C 
ATOM      6  C   UNL     1      35.162 -21.454 -19.431  0.00  0.00    +0.139 C 
ENDROOT
BRANCH   1   9
ATOM      7  O   UNL     1      34.952 -25.820 -15.975  0.00  0.00    -0.275 OA
ATOM      8  N   UNL     1      36.778 -24.680 -15.038  0.00  0.00    -0.273 N 
ATOM      9  C   UNL     1      34.872 -23.398 -15.589  0.00  0.00    +0.089 C 
ATOM     10  C   UNL     1      35.736 -22.681 -14.523  0.00  0.00    +0.034 C 
ATOM     11  C   UNL     1      37.102 -23.328 -14.656  0.00  0.00    +0.095 C 
ATOM     12  C   UNL     1      35.492 -24.802 -15.565  0.00  0.00    +0.229 C 
ATOM     13  C   UNL     1      33.406 -23.494 -15.143  0.00  0.00    +0.014 C 
BRANCH   8  14
ATOM     14  C   UNL     1      37.753 -25.747 -14.950  0.00  0.00    +0.154 C 
ATOM     15  C   UNL     1      37.241 -26.894 -14.092  0.00  0.00    +0.031 C 
BRANCH  14  18
ATOM     16  O   UNL     1      39.128 -24.771 -13.210  0.00  0.00    -0.271 OA
ATOM     17  N   UNL     1      40.042 -25.104 -15.304  0.00  0.00    -0.196 N 
ATOM     18  C   UNL     1      39.034 -25.166 -14.371  0.00  0.00    +0.262 C 
ATOM     19  H   UNL     1      39.922 -25.433 -16.224  0.00  0.00    +0.182 HD
BRANCH  17  20
ATOM     20  O   UNL     1      41.250 -24.548 -14.865  0.00  0.00    -0.295 OA
ATOM     21  H   UNL     1      41.167 -23.582 -14.824  0.00  0.00    +0.241 HD
ENDBRANCH  17  20
ENDBRANCH  14  18
ENDBRANCH   8  14
ENDBRANCH   1   9
BRANCH   6  22
ATOM     22  O   UNL     1      35.254 -20.841 -20.643  0.00  0.00    -0.471 OA
BRANCH  22  23
ATOM     23  C   UNL     1      36.220 -19.799 -20.773  0.00  0.00    +0.229 C 
BRANCH  23  25
ATOM     24  N   UNL     1      34.378 -16.344 -22.497  0.00  0.00    -0.410 NA
ATOM     25  C   UNL     1      35.571 -18.606 -21.410  0.00  0.00    +0.012 C 
ATOM     26  C   UNL     1      35.164 -18.609 -22.750  0.00  0.00    +0.096 C 
ATOM     27  C   UNL     1      35.383 -17.483 -20.621  0.00  0.00    +0.023 C 
ATOM     28  C   UNL     1      34.563 -17.439 -23.260  0.00  0.00    +0.116 C 
ATOM     29  C   UNL     1      34.786 -16.387 -21.209  0.00  0.00    +0.109 C 
ATOM     30  C   UNL     1      35.342 -19.733 -23.573  0.00  0.00    -0.015 C 
ATOM     31  C   UNL     1      34.157 -17.439 -24.591  0.00  0.00    +0.028 C 
ATOM     32  C   UNL     1      34.926 -19.705 -24.902  0.00  0.00    -0.004 C 
ATOM     33  C   UNL     1      34.562 -15.152 -20.400  0.00  0.00    +0.066 C 
ATOM     34  C   UNL     1      34.334 -18.557 -25.411  0.00  0.00    +0.002 C 
ENDBRANCH  23  25
ENDBRANCH  22  23
ENDBRANCH   6  22
TORSDOF 7
ENDMDL
MODEL 5
REMARK VINA RESULT:     -11.2      3.428     10.523
REMARK  Name = 6914621
REMARK  7 active torsions:
REMARK  status: ('A' for Active; 'I' for Inactive)
REMARK    1  A    between atoms: C_1  and  C_9
REMARK    2  A    between atoms: C_6  and  O_22
REMARK    3  A    between atoms: N_8  and  C_14
REMARK    4  A    between atoms: C_14  and  C_18
REMARK    5  A    between atoms: N_17  and  O_20
REMARK    6  A    between atoms: O_22  and  C_23
REMARK    7  A    between atoms: C_23  and  C_25
REMARK                            x       y       z     vdW  Elec       q    Type
REMARK                         _______ _______ _______ _____ _____    ______ ____
ROOT
ATOM      1  C   UNL     1      34.906 -22.758 -17.024  0.00  0.00    -0.014 C 
ATOM      2  C   UNL     1      36.111 -22.145 -17.353  0.00  0.00    -0.001 C 
ATOM      3  C   UNL     1      33.837 -22.736 -17.913  0.00  0.00    -0.001 C 
ATOM      4  C   UNL     1      36.247 -21.503 -18.584  0.00  0.00    +0.037 C 
ATOM      5  C   UNL     1      33.972 -22.094 -19.144  0.00  0.00    +0.037 C 
ATOM      6  C   UNL     1      35.178 -21.478 -19.480  0.00  0.00    +0.139 C 
ENDROOT
BRANCH   1   9
ATOM      7  O   UNL     1      35.192 -25.850 -16.025  0.00  0.00    -0.275 OA
ATOM      8  N   UNL     1      36.748 -24.484 -14.917  0.00  0.00    -0.273 N 
ATOM      9  C   UNL     1      34.756 -23.462 -15.670  0.00  0.00    +0.089 C 
ATOM     10  C   UNL     1      35.405 -22.641 -14.529  0.00  0.00    +0.034 C 
ATOM     11  C   UNL     1      36.851 -23.103 -14.517  0.00  0.00    +0.095 C 
ATOM     12  C   UNL     1      35.549 -24.772 -15.571  0.00  0.00    +0.229 C 
ATOM     13  C   UNL     1      33.277 -23.752 -15.375  0.00  0.00    +0.014 C 
BRANCH   8  14
ATOM     14  C   UNL     1      37.840 -25.414 -14.722  0.00  0.00    +0.154 C 
ATOM     15  C   UNL     1      37.342 -26.850 -14.668  0.00  0.00    +0.031 C 
BRANCH  14  18
ATOM     16  O   UNL     1      39.743 -24.741 -13.382  0.00  0.00    -0.271 OA
ATOM     17  N   UNL     1      37.716 -25.106 -12.341  0.00  0.00    -0.196 N 
ATOM     18  C   UNL     1      38.551 -25.037 -13.430  0.00  0.00    +0.262 C 
ATOM     19  H   UNL     1      36.765 -25.348 -12.426  0.00  0.00    +0.182 HD
BRANCH  17  20
ATOM     20  O   UNL     1      38.298 -24.809 -11.102  0.00  0.00    -0.295 OA
ATOM     21  H   UNL     1      38.500 -23.861 -11.057  0.00  0.00    +0.241 HD
ENDBRANCH  17  20
ENDBRANCH  14  18
ENDBRANCH   8  14
ENDBRANCH   1   9
BRANCH   6  22
ATOM     22  O   UNL     1      35.311 -20.853 -20.682  0.00  0.00    -0.471 OA
BRANCH  22  23
ATOM     23  C   UNL     1      35.780 -19.505 -20.664  0.00  0.00    +0.229 C 
BRANCH  23  25
ATOM     24  N   UNL     1      34.340 -17.566 -24.195  0.00  0.00    -0.410 NA
ATOM     25  C   UNL     1      35.271 -18.793 -21.883  0.00  0.00    +0.012 C 
ATOM     26  C   UNL     1      34.913 -17.441 -21.857  0.00  0.00    +0.096 C 
ATOM     27  C   UNL     1      35.166 -19.526 -23.053  0.00  0.00    +0.023 C 
ATOM     28  C   UNL     1      34.445 -16.858 -23.054  0.00  0.00    +0.116 C 
ATOM     29  C   UNL     1      34.698 -18.870 -24.174  0.00  0.00    +0.109 C 
ATOM     30  C   UNL     1      35.010 -16.672 -20.684  0.00  0.00    -0.015 C 
ATOM     31  C   UNL     1      34.088 -15.513 -23.032  0.00  0.00    +0.028 C 
ATOM     32  C   UNL     1      34.646 -15.329 -20.691  0.00  0.00    -0.004 C 
ATOM     33  C   UNL     1      34.566 -19.617 -25.459  0.00  0.00    +0.066 C 
ATOM     34  C   UNL     1      34.184 -14.749 -21.866  0.00  0.00    +0.002 C 
ENDBRANCH  23  25
ENDBRANCH  22  23
ENDBRANCH   6  22
TORSDOF 7
ENDMDL
MODEL 6
REMARK VINA RESULT:     -10.9      2.113      3.343
REMARK  Name = 6914621
REMARK  7 active torsions:
REMARK  status: ('A' for Active; 'I' for Inactive)
REMARK    1  A    between atoms: C_1  and  C_9
REMARK    2  A    between atoms: C_6  and  O_22
REMARK    3  A    between atoms: N_8  and  C_14
REMARK    4  A    between atoms: C_14  and  C_18
REMARK    5  A    between atoms: N_17  and  O_20
REMARK    6  A    between atoms: O_22  and  C_23
REMARK    7  A    between atoms: C_23  and  C_25
REMARK                            x       y       z     vdW  Elec       q    Type
REMARK                         _______ _______ _______ _____ _____    ______ ____
ROOT
ATOM      1  C   UNL     1      34.705 -20.155 -20.608  0.00  0.00    -0.014 C 
ATOM      2  C   UNL     1      36.059 -19.856 -20.497  0.00  0.00    -0.001 C 
ATOM      3  C   UNL     1      34.135 -21.147 -19.816  0.00  0.00    -0.001 C 
ATOM      4  C   UNL     1      36.851 -20.555 -19.586  0.00  0.00    +0.037 C 
ATOM      5  C   UNL     1      34.926 -21.846 -18.905  0.00  0.00    +0.037 C 
ATOM      6  C   UNL     1      36.284 -21.550 -18.789  0.00  0.00    +0.139 C 
ENDROOT
BRANCH   1   9
ATOM      7  O   UNL     1      32.885 -17.455 -20.438  0.00  0.00    -0.275 OA
ATOM      8  N   UNL     1      34.596 -17.190 -22.024  0.00  0.00    -0.273 N 
ATOM      9  C   UNL     1      33.836 -19.389 -21.611  0.00  0.00    +0.089 C 
ATOM     10  C   UNL     1      34.521 -19.288 -22.996  0.00  0.00    +0.034 C 
ATOM     11  C   UNL     1      35.372 -18.035 -22.898  0.00  0.00    +0.095 C 
ATOM     12  C   UNL     1      33.668 -17.903 -21.264  0.00  0.00    +0.229 C 
ATOM     13  C   UNL     1      32.447 -20.033 -21.724  0.00  0.00    +0.014 C 
BRANCH   8  14
ATOM     14  C   UNL     1      34.856 -15.771 -21.916  0.00  0.00    +0.154 C 
ATOM     15  C   UNL     1      34.781 -15.303 -20.470  0.00  0.00    +0.031 C 
BRANCH  14  18
ATOM     16  O   UNL     1      33.929 -14.950 -23.998  0.00  0.00    -0.271 OA
ATOM     17  N   UNL     1      32.836 -14.472 -22.022  0.00  0.00    -0.196 N 
ATOM     18  C   UNL     1      33.835 -15.040 -22.776  0.00  0.00    +0.262 C 
ATOM     19  H   UNL     1      32.800 -14.570 -21.043  0.00  0.00    +0.182 HD
BRANCH  17  20
ATOM     20  O   UNL     1      31.869 -13.747 -22.731  0.00  0.00    -0.295 OA
ATOM     21  H   UNL     1      31.546 -14.279 -23.476  0.00  0.00    +0.241 HD
ENDBRANCH  17  20
ENDBRANCH  14  18
ENDBRANCH   8  14
ENDBRANCH   1   9
BRANCH   6  22
ATOM     22  O   UNL     1      37.056 -22.231 -17.899  0.00  0.00    -0.471 OA
BRANCH  22  23
ATOM     23  C   UNL     1      37.040 -21.780 -16.546  0.00  0.00    +0.229 C 
BRANCH  23  25
ATOM     24  N   UNL     1      35.137 -24.731 -14.103  0.00  0.00    -0.410 NA
ATOM     25  C   UNL     1      36.406 -22.832 -15.685  0.00  0.00    +0.012 C 
ATOM     26  C   UNL     1      37.147 -23.879 -15.124  0.00  0.00    +0.096 C 
ATOM     27  C   UNL     1      35.043 -22.735 -15.457  0.00  0.00    +0.023 C 
ATOM     28  C   UNL     1      36.461 -24.821 -14.328  0.00  0.00    +0.116 C 
ATOM     29  C   UNL     1      34.461 -23.703 -14.665  0.00  0.00    +0.109 C 
ATOM     30  C   UNL     1      38.530 -24.002 -15.338  0.00  0.00    -0.015 C 
ATOM     31  C   UNL     1      37.196 -25.863 -13.769  0.00  0.00    +0.028 C 
ATOM     32  C   UNL     1      39.240 -25.055 -14.766  0.00  0.00    -0.004 C 
ATOM     33  C   UNL     1      32.995 -23.642 -14.390  0.00  0.00    +0.066 C 
ATOM     34  C   UNL     1      38.571 -25.986 -13.981  0.00  0.00    +0.002 C 
ENDBRANCH  23  25
ENDBRANCH  22  23
ENDBRANCH   6  22
TORSDOF 7
ENDMDL
MODEL 7
REMARK VINA RESULT:     -10.8      2.187      3.910
REMARK  Name = 6914621
REMARK  7 active torsions:
REMARK  status: ('A' for Active; 'I' for Inactive)
REMARK    1  A    between atoms: C_1  and  C_9
REMARK    2  A    between atoms: C_6  and  O_22
REMARK    3  A    between atoms: N_8  and  C_14
REMARK    4  A    between atoms: C_14  and  C_18
REMARK    5  A    between atoms: N_17  and  O_20
REMARK    6  A    between atoms: O_22  and  C_23
REMARK    7  A    between atoms: C_23  and  C_25
REMARK                            x       y       z     vdW  Elec       q    Type
REMARK                         _______ _______ _______ _____ _____    ______ ____
ROOT
ATOM      1  C   UNL     1      34.764 -20.066 -20.670  0.00  0.00    -0.014 C 
ATOM      2  C   UNL     1      36.118 -19.753 -20.600  0.00  0.00    -0.001 C 
ATOM      3  C   UNL     1      34.224 -21.048 -19.846  0.00  0.00    -0.001 C 
ATOM      4  C   UNL     1      36.940 -20.430 -19.698  0.00  0.00    +0.037 C 
ATOM      5  C   UNL     1      35.045 -21.725 -18.944  0.00  0.00    +0.037 C 
ATOM      6  C   UNL     1      36.403 -21.415 -18.869  0.00  0.00    +0.139 C 
ENDROOT
BRANCH   1   9
ATOM      7  O   UNL     1      32.922 -17.380 -20.497  0.00  0.00    -0.275 OA
ATOM      8  N   UNL     1      34.590 -17.125 -22.130  0.00  0.00    -0.273 N 
ATOM      9  C   UNL     1      33.862 -19.324 -21.662  0.00  0.00    +0.089 C 
ATOM     10  C   UNL     1      34.511 -19.239 -23.066  0.00  0.00    +0.034 C 
ATOM     11  C   UNL     1      35.351 -17.977 -23.010  0.00  0.00    +0.095 C 
ATOM     12  C   UNL     1      33.689 -17.834 -21.335  0.00  0.00    +0.229 C 
ATOM     13  C   UNL     1      32.477 -19.983 -21.729  0.00  0.00    +0.014 C 
BRANCH   8  14
ATOM     14  C   UNL     1      34.838 -15.702 -22.051  0.00  0.00    +0.154 C 
ATOM     15  C   UNL     1      34.791 -15.211 -20.612  0.00  0.00    +0.031 C 
BRANCH  14  18
ATOM     16  O   UNL     1      33.848 -14.941 -24.127  0.00  0.00    -0.271 OA
ATOM     17  N   UNL     1      32.815 -14.404 -22.133  0.00  0.00    -0.196 N 
ATOM     18  C   UNL     1      33.792 -14.995 -22.900  0.00  0.00    +0.262 C 
ATOM     19  H   UNL     1      32.810 -14.474 -21.151  0.00  0.00    +0.182 HD
BRANCH  17  20
ATOM     20  O   UNL     1      31.828 -13.699 -22.833  0.00  0.00    -0.295 OA
ATOM     21  H   UNL     1      31.352 -14.306 -23.422  0.00  0.00    +0.241 HD
ENDBRANCH  17  20
ENDBRANCH  14  18
ENDBRANCH   8  14
ENDBRANCH   1   9
BRANCH   6  22
ATOM     22  O   UNL     1      37.204 -22.075 -17.989  0.00  0.00    -0.471 OA
BRANCH  22  23
ATOM     23  C   UNL     1      37.125 -21.682 -16.619  0.00  0.00    +0.229 C 
BRANCH  23  25
ATOM     24  N   UNL     1      37.028 -25.194 -14.179  0.00  0.00    -0.410 NA
ATOM     25  C   UNL     1      37.054 -22.909 -15.760  0.00  0.00    +0.012 C 
ATOM     26  C   UNL     1      35.842 -23.391 -15.252  0.00  0.00    +0.096 C 
ATOM     27  C   UNL     1      38.242 -23.564 -15.481  0.00  0.00    +0.023 C 
ATOM     28  C   UNL     1      35.876 -24.554 -14.453  0.00  0.00    +0.116 C 
ATOM     29  C   UNL     1      38.175 -24.693 -14.691  0.00  0.00    +0.109 C 
ATOM     30  C   UNL     1      34.621 -22.748 -15.518  0.00  0.00    -0.015 C 
ATOM     31  C   UNL     1      34.672 -25.035 -13.946  0.00  0.00    +0.028 C 
ATOM     32  C   UNL     1      33.432 -23.251 -14.998  0.00  0.00    -0.004 C 
ATOM     33  C   UNL     1      39.429 -25.434 -14.362  0.00  0.00    +0.066 C 
ATOM     34  C   UNL     1      33.458 -24.395 -14.211  0.00  0.00    +0.002 C 
ENDBRANCH  23  25
ENDBRANCH  22  23
ENDBRANCH   6  22
TORSDOF 7
ENDMDL
MODEL 8
REMARK VINA RESULT:     -10.7      3.606     10.945
REMARK  Name = 6914621
REMARK  7 active torsions:
REMARK  status: ('A' for Active; 'I' for Inactive)
REMARK    1  A    between atoms: C_1  and  C_9
REMARK    2  A    between atoms: C_6  and  O_22
REMARK    3  A    between atoms: N_8  and  C_14
REMARK    4  A    between atoms: C_14  and  C_18
REMARK    5  A    between atoms: N_17  and  O_20
REMARK    6  A    between atoms: O_22  and  C_23
REMARK    7  A    between atoms: C_23  and  C_25
REMARK                            x       y       z     vdW  Elec       q    Type
REMARK                         _______ _______ _______ _____ _____    ______ ____
ROOT
ATOM      1  C   UNL     1      34.261 -16.859 -22.321  0.00  0.00    -0.014 C 
ATOM      2  C   UNL     1      34.227 -16.457 -20.990  0.00  0.00    -0.001 C 
ATOM      3  C   UNL     1      33.763 -16.030 -23.321  0.00  0.00    -0.001 C 
ATOM      4  C   UNL     1      33.691 -15.212 -20.656  0.00  0.00    +0.037 C 
ATOM      5  C   UNL     1      33.228 -14.786 -22.988  0.00  0.00    +0.037 C 
ATOM      6  C   UNL     1      33.192 -14.377 -21.655  0.00  0.00    +0.139 C 
ENDROOT
BRANCH   1   9
ATOM      7  O   UNL     1      36.827 -18.583 -21.283  0.00  0.00    -0.275 OA
ATOM      8  N   UNL     1      34.836 -19.765 -20.895  0.00  0.00    -0.273 N 
ATOM      9  C   UNL     1      34.848 -18.227 -22.688  0.00  0.00    +0.089 C 
ATOM     10  C   UNL     1      33.737 -19.290 -22.874  0.00  0.00    +0.034 C 
ATOM     11  C   UNL     1      33.521 -19.847 -21.479  0.00  0.00    +0.095 C 
ATOM     12  C   UNL     1      35.669 -18.863 -21.558  0.00  0.00    +0.229 C 
ATOM     13  C   UNL     1      35.728 -18.117 -23.941  0.00  0.00    +0.014 C 
BRANCH   8  14
ATOM     14  C   UNL     1      35.178 -20.493 -19.691  0.00  0.00    +0.154 C 
ATOM     15  C   UNL     1      36.567 -21.105 -19.791  0.00  0.00    +0.031 C 
BRANCH  14  18
ATOM     16  O   UNL     1      32.969 -21.320 -19.138  0.00  0.00    -0.271 OA
ATOM     17  N   UNL     1      34.628 -22.833 -19.674  0.00  0.00    -0.196 N 
ATOM     18  C   UNL     1      34.124 -21.569 -19.478  0.00  0.00    +0.262 C 
ATOM     19  H   UNL     1      35.561 -22.986 -19.948  0.00  0.00    +0.182 HD
BRANCH  17  20
ATOM     20  O   UNL     1      33.733 -23.890 -19.464  0.00  0.00    -0.295 OA
ATOM     21  H   UNL     1      33.364 -24.176 -20.314  0.00  0.00    +0.241 HD
ENDBRANCH  17  20
ENDBRANCH  14  18
ENDBRANCH   8  14
ENDBRANCH   1   9
BRANCH   6  22
ATOM     22  O   UNL     1      32.670 -13.163 -21.330  0.00  0.00    -0.471 OA
BRANCH  22  23
ATOM     23  C   UNL     1      31.927 -12.483 -22.340  0.00  0.00    +0.229 C 
BRANCH  23  25
ATOM     24  N   UNL     1      33.279  -8.431 -22.563  0.00  0.00    -0.410 NA
ATOM     25  C   UNL     1      32.423 -11.072 -22.448  0.00  0.00    +0.012 C 
ATOM     26  C   UNL     1      33.327 -10.676 -23.441  0.00  0.00    +0.096 C 
ATOM     27  C   UNL     1      31.950 -10.157 -21.522  0.00  0.00    +0.023 C 
ATOM     28  C   UNL     1      33.735  -9.325 -23.461  0.00  0.00    +0.116 C 
ATOM     29  C   UNL     1      32.407  -8.858 -21.622  0.00  0.00    +0.109 C 
ATOM     30  C   UNL     1      33.822 -11.582 -24.393  0.00  0.00    -0.015 C 
ATOM     31  C   UNL     1      34.634  -8.928 -24.447  0.00  0.00    +0.028 C 
ATOM     32  C   UNL     1      34.720 -11.158 -25.369  0.00  0.00    -0.004 C 
ATOM     33  C   UNL     1      31.928  -7.835 -20.647  0.00  0.00    +0.066 C 
ATOM     34  C   UNL     1      35.127  -9.829 -25.395  0.00  0.00    +0.002 C 
ENDBRANCH  23  25
ENDBRANCH  22  23
ENDBRANCH   6  22
TORSDOF 7
ENDMDL
MODEL 9
REMARK VINA RESULT:     -10.7      6.583     10.977
REMARK  Name = 6914621
REMARK  7 active torsions:
REMARK  status: ('A' for Active; 'I' for Inactive)
REMARK    1  A    between atoms: C_1  and  C_9
REMARK    2  A    between atoms: C_6  and  O_22
REMARK    3  A    between atoms: N_8  and  C_14
REMARK    4  A    between atoms: C_14  and  C_18
REMARK    5  A    between atoms: N_17  and  O_20
REMARK    6  A    between atoms: O_22  and  C_23
REMARK    7  A    between atoms: C_23  and  C_25
REMARK                            x       y       z     vdW  Elec       q    Type
REMARK                         _______ _______ _______ _____ _____    ______ ____
ROOT
ATOM      1  C   UNL     1      32.280  -9.347 -22.016  0.00  0.00    -0.014 C 
ATOM      2  C   UNL     1      31.651 -10.073 -21.010  0.00  0.00    -0.001 C 
ATOM      3  C   UNL     1      32.839  -9.999 -23.111  0.00  0.00    -0.001 C 
ATOM      4  C   UNL     1      31.581 -11.464 -21.099  0.00  0.00    +0.037 C 
ATOM      5  C   UNL     1      32.770 -11.388 -23.201  0.00  0.00    +0.037 C 
ATOM      6  C   UNL     1      32.140 -12.121 -22.195  0.00  0.00    +0.139 C 
ENDROOT
BRANCH   1   9
ATOM      7  O   UNL     1      34.499  -7.124 -22.894  0.00  0.00    -0.275 OA
ATOM      8  N   UNL     1      32.474  -6.747 -24.019  0.00  0.00    -0.273 N 
ATOM      9  C   UNL     1      32.359  -7.820 -21.917  0.00  0.00    +0.089 C 
ATOM     10  C   UNL     1      31.007  -7.157 -22.278  0.00  0.00    +0.034 C 
ATOM     11  C   UNL     1      31.070  -6.982 -23.784  0.00  0.00    +0.095 C 
ATOM     12  C   UNL     1      33.280  -7.186 -22.968  0.00  0.00    +0.229 C 
ATOM     13  C   UNL     1      32.831  -7.394 -20.520  0.00  0.00    +0.014 C 
BRANCH   8  14
ATOM     14  C   UNL     1      32.951  -6.197 -25.270  0.00  0.00    +0.154 C 
ATOM     15  C   UNL     1      34.468  -6.256 -25.356  0.00  0.00    +0.031 C 
BRANCH  14  18
ATOM     16  O   UNL     1      32.034  -4.128 -24.405  0.00  0.00    -0.271 OA
ATOM     17  N   UNL     1      32.508  -4.286 -26.659  0.00  0.00    -0.196 N 
ATOM     18  C   UNL     1      32.457  -4.762 -25.370  0.00  0.00    +0.262 C 
ATOM     19  H   UNL     1      32.855  -4.830 -27.403  0.00  0.00    +0.182 HD
BRANCH  17  20
ATOM     20  O   UNL     1      32.038  -2.980 -26.850  0.00  0.00    -0.295 OA
ATOM     21  H   UNL     1      32.580  -2.362 -26.335  0.00  0.00    +0.241 HD
ENDBRANCH  17  20
ENDBRANCH  14  18
ENDBRANCH   8  14
ENDBRANCH   1   9
BRANCH   6  22
ATOM     22  O   UNL     1      32.071 -13.478 -22.283  0.00  0.00    -0.471 OA
BRANCH  22  23
ATOM     23  C   UNL     1      33.299 -14.198 -22.195  0.00  0.00    +0.229 C 
BRANCH  23  25
ATOM     24  N   UNL     1      33.925 -16.196 -25.925  0.00  0.00    -0.410 NA
ATOM     25  C   UNL     1      33.534 -14.928 -23.484  0.00  0.00    +0.012 C 
ATOM     26  C   UNL     1      34.101 -16.207 -23.521  0.00  0.00    +0.096 C 
ATOM     27  C   UNL     1      33.165 -14.288 -24.656  0.00  0.00    +0.023 C 
ATOM     28  C   UNL     1      34.282 -16.813 -24.783  0.00  0.00    +0.116 C 
ATOM     29  C   UNL     1      33.381 -14.961 -25.842  0.00  0.00    +0.109 C 
ATOM     30  C   UNL     1      34.484 -16.880 -22.349  0.00  0.00    -0.015 C 
ATOM     31  C   UNL     1      34.846 -18.085 -24.823  0.00  0.00    +0.028 C 
ATOM     32  C   UNL     1      35.046 -18.151 -22.418  0.00  0.00    -0.004 C 
ATOM     33  C   UNL     1      33.001 -14.314 -27.132  0.00  0.00    +0.066 C 
ATOM     34  C   UNL     1      35.227 -18.754 -23.657  0.00  0.00    +0.002 C 
ENDBRANCH  23  25
ENDBRANCH  22  23
ENDBRANCH   6  22
TORSDOF 7
ENDMDL
