MODEL 1
REMARK VINA RESULT:      -8.7      0.000      0.000
REMARK  Name = 9600418
REMARK  8 active torsions:
REMARK  status: ('A' for Active; 'I' for Inactive)
REMARK    1  A    between atoms: N_2  and  CA_17
REMARK    2  A    between atoms: C_3  and  C_6
REMARK    3  A    between atoms: N_5  and  O_15
REMARK    4  A    between atoms: C_6  and  C_10
REMARK    5  A    between atoms: CA_17  and  C_22
REMARK    6  A    between atoms: CA_17  and  C_32
REMARK    7  A    between atoms: CA_21  and  C_28
REMARK    8  A    between atoms: C_28  and  O_29
REMARK                            x       y       z     vdW  Elec       q    Type
REMARK                         _______ _______ _______ _____ _____    ______ ____
ROOT
ATOM      1  O   UNL     1      34.332 -24.598 -16.785  0.00  0.00    -0.268 OA
ATOM      2  N   UNL     1      34.742 -22.396 -16.071  0.00  0.00    -0.295 N 
ATOM      3  C   UNL     1      34.029 -23.422 -16.659  0.00  0.00    +0.269 C 
ATOM      4  H   UNL     1      34.342 -21.496 -16.056  0.00  0.00    +0.150 HD
ENDROOT
BRANCH   3   6
ATOM      5  N   UNL     1      32.625 -22.390 -18.359  0.00  0.00    -0.076 NA
ATOM      6  C   UNL     1      32.696 -22.970 -17.199  0.00  0.00    +0.198 C 
BRANCH   6  10
ATOM      7  S   UNL     1      29.790 -23.924 -14.728  0.00  0.00    -0.060 S 
ATOM      8  N   UNL     1      30.305 -22.589 -16.880  0.00  0.00    -0.383 NA
ATOM      9  N   UNL     1      28.053 -22.513 -16.163  0.00  0.00    -0.328 N 
ATOM     10  C   UNL     1      31.457 -23.175 -16.442  0.00  0.00    +0.148 C 
ATOM     11  C   UNL     1      31.404 -23.931 -15.311  0.00  0.00    +0.127 C 
ATOM     12  C   UNL     1      29.345 -22.917 -16.044  0.00  0.00    +0.204 C 
ATOM     13  H   UNL     1      27.384 -22.797 -15.499  0.00  0.00    +0.145 HD
ATOM     14  H   UNL     1      27.785 -21.935 -16.914  0.00  0.00    +0.145 HD
ENDBRANCH   6  10
BRANCH   5  15
ATOM     15  O   UNL     1      33.886 -22.272 -18.961  0.00  0.00    -0.373 OA
ATOM     16  C   UNL     1      33.862 -21.142 -19.819  0.00  0.00    +0.288 C 
ENDBRANCH   5  15
ENDBRANCH   3   6
BRANCH   2  17
ATOM     17  CA  UNL     1      36.039 -22.576 -15.482  0.00  0.00    +0.127 C 
BRANCH  17  22
ATOM     18  S   UNL     1      37.969 -24.343 -14.643  0.00  0.00    -0.164 S 
ATOM     19  N   UNL     1      35.488 -24.171 -13.663  0.00  0.00    +0.401 N 
ATOM     20  C   UNL     1      37.732 -24.670 -12.858  0.00  0.00    +0.030 C 
ATOM     21  CA  UNL     1      36.432 -23.895 -12.577  0.00  0.00    +0.050 C 
ATOM     22  C   UNL     1      36.204 -23.989 -14.931  0.00  0.00    +0.015 C 
ATOM     23  C   UNL     1      37.627 -26.190 -12.667  0.00  0.00    +0.009 C 
ATOM     24  C   UNL     1      38.912 -24.112 -12.063  0.00  0.00    +0.009 C 
ATOM     25  H1  UNL     1      34.701 -23.524 -13.612  0.00  0.00    -0.082 HD
ATOM     26  H2  UNL     1      35.126 -25.122 -13.590  0.00  0.00    -0.082 HD
BRANCH  21  28
ATOM     27  OXT UNL     1      36.179 -24.037 -10.178  0.00  0.00    -0.253 OA
ATOM     28  C   UNL     1      35.770 -24.306 -11.298  0.00  0.00    +0.294 C 
BRANCH  28  29
ATOM     29  O   UNL     1      34.649 -25.025 -11.549  0.00  0.00    -0.482 OA
ATOM     30  H   UNL     1      34.346 -25.654 -10.924  0.00  0.00    +0.295 HD
ENDBRANCH  28  29
ENDBRANCH  21  28
ENDBRANCH  17  22
BRANCH  17  32
ATOM     31  O   UNL     1      36.832 -21.565 -17.526  0.00  0.00    -0.287 OA
ATOM     32  C   UNL     1      37.063 -22.269 -16.546  0.00  0.00    +0.225 C 
ENDBRANCH  17  32
ENDBRANCH   2  17
TORSDOF 8
ENDMDL
MODEL 2
REMARK VINA RESULT:      -8.6      2.661      4.410
REMARK  Name = 9600418
REMARK  8 active torsions:
REMARK  status: ('A' for Active; 'I' for Inactive)
REMARK    1  A    between atoms: N_2  and  CA_17
REMARK    2  A    between atoms: C_3  and  C_6
REMARK    3  A    between atoms: N_5  and  O_15
REMARK    4  A    between atoms: C_6  and  C_10
REMARK    5  A    between atoms: CA_17  and  C_22
REMARK    6  A    between atoms: CA_17  and  C_32
REMARK    7  A    between atoms: CA_21  and  C_28
REMARK    8  A    between atoms: C_28  and  O_29
REMARK                            x       y       z     vdW  Elec       q    Type
REMARK                         _______ _______ _______ _____ _____    ______ ____
ROOT
ATOM      1  O   UNL     1      33.799 -24.659 -17.582  0.00  0.00    -0.268 OA
ATOM      2  N   UNL     1      33.496 -23.296 -15.691  0.00  0.00    -0.295 N 
ATOM      3  C   UNL     1      33.437 -23.633 -17.029  0.00  0.00    +0.269 C 
ATOM      4  H   UNL     1      33.155 -22.415 -15.415  0.00  0.00    +0.150 HD
ENDROOT
BRANCH   3   6
ATOM      5  N   UNL     1      31.567 -22.253 -17.755  0.00  0.00    -0.076 NA
ATOM      6  C   UNL     1      32.827 -22.545 -17.876  0.00  0.00    +0.198 C 
BRANCH   6  10
ATOM      7  S   UNL     1      35.548 -20.867 -20.167  0.00  0.00    -0.060 S 
ATOM      8  N   UNL     1      33.005 -20.939 -19.708  0.00  0.00    -0.383 NA
ATOM      9  N   UNL     1      33.673 -19.482 -21.446  0.00  0.00    -0.328 N 
ATOM     10  C   UNL     1      33.630 -21.791 -18.844  0.00  0.00    +0.148 C 
ATOM     11  C   UNL     1      34.986 -21.902 -18.919  0.00  0.00    +0.127 C 
ATOM     12  C   UNL     1      33.928 -20.388 -20.465  0.00  0.00    +0.204 C 
ATOM     13  H   UNL     1      34.414 -19.108 -21.976  0.00  0.00    +0.145 HD
ATOM     14  H   UNL     1      32.748 -19.199 -21.627  0.00  0.00    +0.145 HD
ENDBRANCH   6  10
BRANCH   5  15
ATOM     15  O   UNL     1      30.937 -23.052 -16.791  0.00  0.00    -0.373 OA
ATOM     16  C   UNL     1      29.589 -22.623 -16.674  0.00  0.00    +0.288 C 
ENDBRANCH   5  15
ENDBRANCH   3   6
BRANCH   2  17
ATOM     17  CA  UNL     1      34.033 -24.167 -14.684  0.00  0.00    +0.127 C 
BRANCH  17  22
ATOM     18  S   UNL     1      35.532 -24.321 -12.385  0.00  0.00    -0.164 S 
ATOM     19  N   UNL     1      36.471 -23.720 -14.815  0.00  0.00    +0.401 N 
ATOM     20  C   UNL     1      37.214 -24.899 -12.817  0.00  0.00    +0.030 C 
ATOM     21  CA  UNL     1      37.136 -24.942 -14.354  0.00  0.00    +0.050 C 
ATOM     22  C   UNL     1      35.254 -23.547 -14.012  0.00  0.00    +0.015 C 
ATOM     23  C   UNL     1      38.220 -23.884 -12.255  0.00  0.00    +0.009 C 
ATOM     24  C   UNL     1      37.461 -26.284 -12.220  0.00  0.00    +0.009 C 
ATOM     25  H1  UNL     1      36.226 -23.809 -15.802  0.00  0.00    -0.082 HD
ATOM     26  H2  UNL     1      37.087 -22.915 -14.710  0.00  0.00    -0.082 HD
BRANCH  21  28
ATOM     27  OXT UNL     1      39.225 -25.959 -15.016  0.00  0.00    -0.253 OA
ATOM     28  C   UNL     1      38.482 -24.989 -15.008  0.00  0.00    +0.294 C 
BRANCH  28  29
ATOM     29  O   UNL     1      38.771 -23.800 -15.592  0.00  0.00    -0.482 OA
ATOM     30  H   UNL     1      38.107 -23.144 -15.674  0.00  0.00    +0.295 HD
ENDBRANCH  28  29
ENDBRANCH  21  28
ENDBRANCH  17  22
BRANCH  17  32
ATOM     31  O   UNL     1      32.103 -23.601 -13.347  0.00  0.00    -0.287 OA
ATOM     32  C   UNL     1      32.930 -24.442 -13.692  0.00  0.00    +0.225 C 
ENDBRANCH  17  32
ENDBRANCH   2  17
TORSDOF 8
ENDMDL
MODEL 3
REMARK VINA RESULT:      -8.4     10.175     13.513
REMARK  Name = 9600418
REMARK  8 active torsions:
REMARK  status: ('A' for Active; 'I' for Inactive)
REMARK    1  A    between atoms: N_2  and  CA_17
REMARK    2  A    between atoms: C_3  and  C_6
REMARK    3  A    between atoms: N_5  and  O_15
REMARK    4  A    between atoms: C_6  and  C_10
REMARK    5  A    between atoms: CA_17  and  C_22
REMARK    6  A    between atoms: CA_17  and  C_32
REMARK    7  A    between atoms: CA_21  and  C_28
REMARK    8  A    between atoms: C_28  and  O_29
REMARK                            x       y       z     vdW  Elec       q    Type
REMARK                         _______ _______ _______ _____ _____    ______ ____
ROOT
ATOM      1  O   UNL     1      31.939 -12.560 -23.083  0.00  0.00    -0.268 OA
ATOM      2  N   UNL     1      34.102 -13.477 -23.147  0.00  0.00    -0.295 N 
ATOM      3  C   UNL     1      33.104 -12.571 -23.447  0.00  0.00    +0.269 C 
ATOM      4  H   UNL     1      34.997 -13.331 -23.531  0.00  0.00    +0.150 HD
ENDROOT
BRANCH   3   6
ATOM      5  N   UNL     1      33.832 -11.699 -25.600  0.00  0.00    -0.076 NA
ATOM      6  C   UNL     1      33.578 -11.460 -24.349  0.00  0.00    +0.198 C 
BRANCH   6  10
ATOM      7  S   UNL     1      34.645  -7.787 -23.436  0.00  0.00    -0.060 S 
ATOM      8  N   UNL     1      32.863  -9.594 -22.944  0.00  0.00    -0.383 NA
ATOM      9  N   UNL     1      32.577  -7.556 -21.781  0.00  0.00    -0.328 N 
ATOM     10  C   UNL     1      33.757 -10.094 -23.847  0.00  0.00    +0.148 C 
ATOM     11  C   UNL     1      34.786  -9.294 -24.243  0.00  0.00    +0.127 C 
ATOM     12  C   UNL     1      33.234  -8.367 -22.650  0.00  0.00    +0.204 C 
ATOM     13  H   UNL     1      32.911  -6.646 -21.608  0.00  0.00    +0.145 HD
ATOM     14  H   UNL     1      31.766  -7.877 -21.324  0.00  0.00    +0.145 HD
ENDBRANCH   6  10
BRANCH   5  15
ATOM     15  O   UNL     1      33.608 -13.043 -25.930  0.00  0.00    -0.373 OA
ATOM     16  C   UNL     1      33.386 -13.123 -27.330  0.00  0.00    +0.288 C 
ENDBRANCH   5  15
ENDBRANCH   3   6
BRANCH   2  17
ATOM     17  CA  UNL     1      33.899 -14.622 -22.305  0.00  0.00    +0.127 C 
BRANCH  17  22
ATOM     18  S   UNL     1      34.946 -16.850 -21.082  0.00  0.00    -0.164 S 
ATOM     19  N   UNL     1      35.129 -16.276 -23.687  0.00  0.00    +0.401 N 
ATOM     20  C   UNL     1      34.910 -18.243 -22.268  0.00  0.00    +0.030 C 
ATOM     21  CA  UNL     1      34.409 -17.544 -23.545  0.00  0.00    +0.050 C 
ATOM     22  C   UNL     1      35.076 -15.587 -22.392  0.00  0.00    +0.015 C 
ATOM     23  C   UNL     1      36.332 -18.815 -22.366  0.00  0.00    +0.009 C 
ATOM     24  C   UNL     1      33.934 -19.316 -21.784  0.00  0.00    +0.009 C 
ATOM     25  H1  UNL     1      34.683 -15.702 -24.403  0.00  0.00    -0.082 HD
ATOM     26  H2  UNL     1      36.096 -16.441 -23.965  0.00  0.00    -0.082 HD
BRANCH  21  28
ATOM     27  OXT UNL     1      34.723 -19.560 -24.838  0.00  0.00    -0.253 OA
ATOM     28  C   UNL     1      34.663 -18.340 -24.787  0.00  0.00    +0.294 C 
BRANCH  28  29
ATOM     29  O   UNL     1      34.822 -17.522 -25.855  0.00  0.00    -0.482 OA
ATOM     30  H   UNL     1      34.116 -17.396 -26.459  0.00  0.00    +0.295 HD
ENDBRANCH  28  29
ENDBRANCH  21  28
ENDBRANCH  17  22
BRANCH  17  32
ATOM     31  O   UNL     1      32.620 -14.176 -20.305  0.00  0.00    -0.287 OA
ATOM     32  C   UNL     1      33.695 -14.115 -20.898  0.00  0.00    +0.225 C 
ENDBRANCH  17  32
ENDBRANCH   2  17
TORSDOF 8
ENDMDL
MODEL 4
REMARK VINA RESULT:      -8.1      2.456      6.225
REMARK  Name = 9600418
REMARK  8 active torsions:
REMARK  status: ('A' for Active; 'I' for Inactive)
REMARK    1  A    between atoms: N_2  and  CA_17
REMARK    2  A    between atoms: C_3  and  C_6
REMARK    3  A    between atoms: N_5  and  O_15
REMARK    4  A    between atoms: C_6  and  C_10
REMARK    5  A    between atoms: CA_17  and  C_22
REMARK    6  A    between atoms: CA_17  and  C_32
REMARK    7  A    between atoms: CA_21  and  C_28
REMARK    8  A    between atoms: C_28  and  O_29
REMARK                            x       y       z     vdW  Elec       q    Type
REMARK                         _______ _______ _______ _____ _____    ______ ____
ROOT
ATOM      1  O   UNL     1      35.579 -24.912 -15.736  0.00  0.00    -0.268 OA
ATOM      2  N   UNL     1      34.809 -23.020 -14.573  0.00  0.00    -0.295 N 
ATOM      3  C   UNL     1      35.555 -23.713 -15.505  0.00  0.00    +0.269 C 
ATOM      4  H   UNL     1      34.915 -22.042 -14.521  0.00  0.00    +0.150 HD
ENDROOT
BRANCH   3   6
ATOM      5  N   UNL     1      37.644 -22.531 -15.917  0.00  0.00    -0.076 NA
ATOM      6  C   UNL     1      36.443 -22.813 -16.326  0.00  0.00    +0.198 C 
BRANCH   6  10
ATOM      7  S   UNL     1      35.886 -21.003 -19.773  0.00  0.00    -0.060 S 
ATOM      8  N   UNL     1      34.708 -22.485 -18.014  0.00  0.00    -0.383 NA
ATOM      9  N   UNL     1      33.384 -21.895 -19.882  0.00  0.00    -0.328 N 
ATOM     10  C   UNL     1      35.985 -22.242 -17.597  0.00  0.00    +0.148 C 
ATOM     11  C   UNL     1      36.783 -21.472 -18.387  0.00  0.00    +0.127 C 
ATOM     12  C   UNL     1      34.539 -21.874 -19.165  0.00  0.00    +0.204 C 
ATOM     13  H   UNL     1      33.327 -21.414 -20.739  0.00  0.00    +0.145 HD
ATOM     14  H   UNL     1      32.604 -22.392 -19.544  0.00  0.00    +0.145 HD
ENDBRANCH   6  10
BRANCH   5  15
ATOM     15  O   UNL     1      37.937 -23.153 -14.696  0.00  0.00    -0.373 OA
ATOM     16  C   UNL     1      38.821 -24.234 -14.952  0.00  0.00    +0.288 C 
ENDBRANCH   5  15
ENDBRANCH   3   6
BRANCH   2  17
ATOM     17  CA  UNL     1      33.887 -23.654 -13.673  0.00  0.00    +0.127 C 
BRANCH  17  22
ATOM     18  S   UNL     1      31.368 -24.727 -13.431  0.00  0.00    -0.164 S 
ATOM     19  N   UNL     1      32.496 -23.907 -15.712  0.00  0.00    +0.401 N 
ATOM     20  C   UNL     1      30.283 -23.972 -14.696  0.00  0.00    +0.030 C 
ATOM     21  CA  UNL     1      31.287 -23.110 -15.484  0.00  0.00    +0.050 C 
ATOM     22  C   UNL     1      32.878 -24.511 -14.430  0.00  0.00    +0.015 C 
ATOM     23  C   UNL     1      29.640 -25.108 -15.504  0.00  0.00    +0.009 C 
ATOM     24  C   UNL     1      29.208 -23.120 -14.021  0.00  0.00    +0.009 C 
ATOM     25  H1  UNL     1      33.248 -23.307 -16.051  0.00  0.00    -0.082 HD
ATOM     26  H2  UNL     1      32.323 -24.629 -16.411  0.00  0.00    -0.082 HD
BRANCH  21  28
ATOM     27  OXT UNL     1      29.627 -22.331 -17.056  0.00  0.00    -0.253 OA
ATOM     28  C   UNL     1      30.772 -22.690 -16.825  0.00  0.00    +0.294 C 
BRANCH  28  29
ATOM     29  O   UNL     1      31.752 -22.765 -17.758  0.00  0.00    -0.482 OA
ATOM     30  H   UNL     1      32.603 -22.421 -17.573  0.00  0.00    +0.295 HD
ENDBRANCH  28  29
ENDBRANCH  21  28
ENDBRANCH  17  22
BRANCH  17  32
ATOM     31  O   UNL     1      35.004 -24.088 -11.576  0.00  0.00    -0.287 OA
ATOM     32  C   UNL     1      34.699 -24.475 -12.702  0.00  0.00    +0.225 C 
ENDBRANCH  17  32
ENDBRANCH   2  17
TORSDOF 8
ENDMDL
MODEL 5
REMARK VINA RESULT:      -7.8      9.837     13.382
REMARK  Name = 9600418
REMARK  8 active torsions:
REMARK  status: ('A' for Active; 'I' for Inactive)
REMARK    1  A    between atoms: N_2  and  CA_17
REMARK    2  A    between atoms: C_3  and  C_6
REMARK    3  A    between atoms: N_5  and  O_15
REMARK    4  A    between atoms: C_6  and  C_10
REMARK    5  A    between atoms: CA_17  and  C_22
REMARK    6  A    between atoms: CA_17  and  C_32
REMARK    7  A    between atoms: CA_21  and  C_28
REMARK    8  A    between atoms: C_28  and  O_29
REMARK                            x       y       z     vdW  Elec       q    Type
REMARK                         _______ _______ _______ _____ _____    ______ ____
ROOT
ATOM      1  O   UNL     1      32.039 -13.338 -24.118  0.00  0.00    -0.268 OA
ATOM      2  N   UNL     1      33.045 -13.620 -22.013  0.00  0.00    -0.295 N 
ATOM      3  C   UNL     1      32.537 -12.916 -23.087  0.00  0.00    +0.269 C 
ATOM      4  H   UNL     1      33.414 -13.114 -21.253  0.00  0.00    +0.150 HD
ENDROOT
BRANCH   3   6
ATOM      5  N   UNL     1      31.906 -10.828 -22.005  0.00  0.00    -0.076 NA
ATOM      6  C   UNL     1      32.634 -11.423 -22.902  0.00  0.00    +0.198 C 
BRANCH   6  10
ATOM      7  S   UNL     1      34.892  -8.705 -24.629  0.00  0.00    -0.060 S 
ATOM      8  N   UNL     1      34.199 -11.192 -24.763  0.00  0.00    -0.383 NA
ATOM      9  N   UNL     1      35.745 -10.488 -26.407  0.00  0.00    -0.328 N 
ATOM     10  C   UNL     1      33.546 -10.612 -23.714  0.00  0.00    +0.148 C 
ATOM     11  C   UNL     1      33.772  -9.291 -23.467  0.00  0.00    +0.127 C 
ATOM     12  C   UNL     1      34.948 -10.272 -25.328  0.00  0.00    +0.204 C 
ATOM     13  H   UNL     1      36.281  -9.751 -26.780  0.00  0.00    +0.145 HD
ATOM     14  H   UNL     1      35.786 -11.382 -26.817  0.00  0.00    +0.145 HD
ENDBRANCH   6  10
BRANCH   5  15
ATOM     15  O   UNL     1      31.094 -11.734 -21.308  0.00  0.00    -0.373 OA
ATOM     16  C   UNL     1      30.912 -11.240 -19.990  0.00  0.00    +0.288 C 
ENDBRANCH   5  15
ENDBRANCH   3   6
BRANCH   2  17
ATOM     17  CA  UNL     1      33.065 -15.054 -21.950  0.00  0.00    +0.127 C 
BRANCH  17  22
ATOM     18  S   UNL     1      34.872 -16.940 -21.094  0.00  0.00    -0.164 S 
ATOM     19  N   UNL     1      34.541 -16.139 -23.623  0.00  0.00    +0.401 N 
ATOM     20  C   UNL     1      35.099 -18.182 -22.418  0.00  0.00    +0.030 C 
ATOM     21  CA  UNL     1      34.253 -17.574 -23.553  0.00  0.00    +0.050 C 
ATOM     22  C   UNL     1      34.454 -15.602 -22.260  0.00  0.00    +0.015 C 
ATOM     23  C   UNL     1      36.601 -18.280 -22.720  0.00  0.00    +0.009 C 
ATOM     24  C   UNL     1      34.554 -19.536 -21.964  0.00  0.00    +0.009 C 
ATOM     25  H1  UNL     1      33.858 -15.677 -24.223  0.00  0.00    -0.082 HD
ATOM     26  H2  UNL     1      35.470 -15.978 -24.012  0.00  0.00    -0.082 HD
BRANCH  21  28
ATOM     27  OXT UNL     1      34.562 -19.349 -25.163  0.00  0.00    -0.253 OA
ATOM     28  C   UNL     1      34.570 -18.157 -24.896  0.00  0.00    +0.294 C 
BRANCH  28  29
ATOM     29  O   UNL     1      34.875 -17.178 -25.782  0.00  0.00    -0.482 OA
ATOM     30  H   UNL     1      34.471 -17.169 -26.628  0.00  0.00    +0.295 HD
ENDBRANCH  28  29
ENDBRANCH  21  28
ENDBRANCH  17  22
BRANCH  17  32
ATOM     31  O   UNL     1      32.330 -14.641 -19.687  0.00  0.00    -0.287 OA
ATOM     32  C   UNL     1      32.604 -15.451 -20.569  0.00  0.00    +0.225 C 
ENDBRANCH  17  32
ENDBRANCH   2  17
TORSDOF 8
ENDMDL
MODEL 6
REMARK VINA RESULT:      -7.7     11.181     15.095
REMARK  Name = 9600418
REMARK  8 active torsions:
REMARK  status: ('A' for Active; 'I' for Inactive)
REMARK    1  A    between atoms: N_2  and  CA_17
REMARK    2  A    between atoms: C_3  and  C_6
REMARK    3  A    between atoms: N_5  and  O_15
REMARK    4  A    between atoms: C_6  and  C_10
REMARK    5  A    between atoms: CA_17  and  C_22
REMARK    6  A    between atoms: CA_17  and  C_32
REMARK    7  A    between atoms: CA_21  and  C_28
REMARK    8  A    between atoms: C_28  and  O_29
REMARK                            x       y       z     vdW  Elec       q    Type
REMARK                         _______ _______ _______ _____ _____    ______ ____
ROOT
ATOM      1  O   UNL     1      34.555 -12.707 -24.224  0.00  0.00    -0.268 OA
ATOM      2  N   UNL     1      32.654 -13.234 -22.946  0.00  0.00    -0.295 N 
ATOM      3  C   UNL     1      33.664 -13.458 -23.862  0.00  0.00    +0.269 C 
ATOM      4  H   UNL     1      32.012 -13.960 -22.772  0.00  0.00    +0.150 HD
ENDROOT
BRANCH   3   6
ATOM      5  N   UNL     1      33.025 -15.030 -25.608  0.00  0.00    -0.076 NA
ATOM      6  C   UNL     1      33.609 -14.839 -24.463  0.00  0.00    +0.198 C 
BRANCH   6  10
ATOM      7  S   UNL     1      35.266 -18.215 -23.313  0.00  0.00    -0.060 S 
ATOM      8  N   UNL     1      34.380 -15.953 -22.431  0.00  0.00    -0.383 NA
ATOM      9  N   UNL     1      35.250 -17.406 -20.781  0.00  0.00    -0.328 N 
ATOM     10  C   UNL     1      34.213 -15.990 -23.785  0.00  0.00    +0.148 C 
ATOM     11  C   UNL     1      34.619 -17.106 -24.452  0.00  0.00    +0.127 C 
ATOM     12  C   UNL     1      34.934 -17.087 -22.064  0.00  0.00    +0.204 C 
ATOM     13  H   UNL     1      35.664 -18.275 -20.577  0.00  0.00    +0.145 HD
ATOM     14  H   UNL     1      35.064 -16.767 -20.055  0.00  0.00    +0.145 HD
ENDBRANCH   6  10
BRANCH   5  15
ATOM     15  O   UNL     1      32.504 -13.839 -26.132  0.00  0.00    -0.373 OA
ATOM     16  C   UNL     1      33.229 -13.522 -27.311  0.00  0.00    +0.288 C 
ENDBRANCH   5  15
ENDBRANCH   3   6
BRANCH   2  17
ATOM     17  CA  UNL     1      32.495 -11.997 -22.237  0.00  0.00    +0.127 C 
BRANCH  17  22
ATOM     18  S   UNL     1      31.170  -9.588 -22.228  0.00  0.00    -0.164 S 
ATOM     19  N   UNL     1      33.182 -10.250 -23.860  0.00  0.00    +0.401 N 
ATOM     20  C   UNL     1      32.343  -8.270 -22.716  0.00  0.00    +0.030 C 
ATOM     21  CA  UNL     1      33.598  -9.093 -23.064  0.00  0.00    +0.050 C 
ATOM     22  C   UNL     1      32.048 -10.878 -23.173  0.00  0.00    +0.015 C 
ATOM     23  C   UNL     1      31.729  -7.506 -23.898  0.00  0.00    +0.009 C 
ATOM     24  C   UNL     1      32.588  -7.327 -21.538  0.00  0.00    +0.009 C 
ATOM     25  H1  UNL     1      33.953 -10.914 -23.936  0.00  0.00    -0.082 HD
ATOM     26  H2  UNL     1      32.915  -9.961 -24.801  0.00  0.00    -0.082 HD
BRANCH  21  28
ATOM     27  OXT UNL     1      34.988  -7.198 -23.625  0.00  0.00    -0.253 OA
ATOM     28  C   UNL     1      34.592  -8.326 -23.879  0.00  0.00    +0.294 C 
BRANCH  28  29
ATOM     29  O   UNL     1      34.997  -9.054 -24.948  0.00  0.00    -0.482 OA
ATOM     30  H   UNL     1      34.946  -8.690 -25.810  0.00  0.00    +0.295 HD
ENDBRANCH  28  29
ENDBRANCH  21  28
ENDBRANCH  17  22
BRANCH  17  32
ATOM     31  O   UNL     1      31.782 -12.215 -19.940  0.00  0.00    -0.287 OA
ATOM     32  C   UNL     1      31.493 -12.236 -21.134  0.00  0.00    +0.225 C 
ENDBRANCH  17  32
ENDBRANCH   2  17
TORSDOF 8
ENDMDL
MODEL 7
REMARK VINA RESULT:      -7.7      2.293      6.490
REMARK  Name = 9600418
REMARK  8 active torsions:
REMARK  status: ('A' for Active; 'I' for Inactive)
REMARK    1  A    between atoms: N_2  and  CA_17
REMARK    2  A    between atoms: C_3  and  C_6
REMARK    3  A    between atoms: N_5  and  O_15
REMARK    4  A    between atoms: C_6  and  C_10
REMARK    5  A    between atoms: CA_17  and  C_22
REMARK    6  A    between atoms: CA_17  and  C_32
REMARK    7  A    between atoms: CA_21  and  C_28
REMARK    8  A    between atoms: C_28  and  O_29
REMARK                            x       y       z     vdW  Elec       q    Type
REMARK                         _______ _______ _______ _____ _____    ______ ____
ROOT
ATOM      1  O   UNL     1      35.400 -25.296 -15.888  0.00  0.00    -0.268 OA
ATOM      2  N   UNL     1      34.609 -23.102 -16.180  0.00  0.00    -0.295 N 
ATOM      3  C   UNL     1      35.508 -24.083 -15.810  0.00  0.00    +0.269 C 
ATOM      4  H   UNL     1      34.862 -22.160 -16.045  0.00  0.00    +0.150 HD
ENDROOT
BRANCH   3   6
ATOM      5  N   UNL     1      37.527 -22.730 -15.957  0.00  0.00    -0.076 NA
ATOM      6  C   UNL     1      36.783 -23.517 -15.239  0.00  0.00    +0.198 C 
BRANCH   6  10
ATOM      7  S   UNL     1      38.442 -24.767 -11.899  0.00  0.00    -0.060 S 
ATOM      8  N   UNL     1      36.540 -23.278 -12.820  0.00  0.00    -0.383 NA
ATOM      9  N   UNL     1      36.702 -23.360 -10.463  0.00  0.00    -0.328 N 
ATOM     10  C   UNL     1      37.212 -23.831 -13.872  0.00  0.00    +0.148 C 
ATOM     11  C   UNL     1      38.261 -24.657 -13.602  0.00  0.00    +0.127 C 
ATOM     12  C   UNL     1      37.107 -23.706 -11.714  0.00  0.00    +0.204 C 
ATOM     13  H   UNL     1      37.174 -23.718  -9.676  0.00  0.00    +0.145 HD
ATOM     14  H   UNL     1      35.938 -22.752 -10.343  0.00  0.00    +0.145 HD
ENDBRANCH   6  10
BRANCH   5  15
ATOM     15  O   UNL     1      36.984 -22.520 -17.232  0.00  0.00    -0.373 OA
ATOM     16  C   UNL     1      37.073 -21.135 -17.528  0.00  0.00    +0.288 C 
ENDBRANCH   5  15
ENDBRANCH   3   6
BRANCH   2  17
ATOM     17  CA  UNL     1      33.323 -23.388 -16.751  0.00  0.00    +0.127 C 
BRANCH  17  22
ATOM     18  S   UNL     1      30.741 -22.492 -17.037  0.00  0.00    -0.164 S 
ATOM     19  N   UNL     1      31.810 -23.461 -14.786  0.00  0.00    +0.401 N 
ATOM     20  C   UNL     1      29.656 -23.458 -15.924  0.00  0.00    +0.030 C 
ATOM     21  CA  UNL     1      30.685 -24.319 -15.168  0.00  0.00    +0.050 C 
ATOM     22  C   UNL     1      32.208 -22.696 -15.974  0.00  0.00    +0.015 C 
ATOM     23  C   UNL     1      28.879 -22.468 -15.045  0.00  0.00    +0.009 C 
ATOM     24  C   UNL     1      28.692 -24.314 -16.747  0.00  0.00    +0.009 C 
ATOM     25  H1  UNL     1      32.590 -24.034 -14.464  0.00  0.00    -0.082 HD
ATOM     26  H2  UNL     1      31.541 -22.833 -14.030  0.00  0.00    -0.082 HD
BRANCH  21  28
ATOM     27  OXT UNL     1      30.512 -24.644 -12.780  0.00  0.00    -0.253 OA
ATOM     28  C   UNL     1      30.136 -24.918 -13.910  0.00  0.00    +0.294 C 
BRANCH  28  29
ATOM     29  O   UNL     1      29.160 -25.814 -14.194  0.00  0.00    -0.482 OA
ATOM     30  H   UNL     1      28.278 -25.647 -13.926  0.00  0.00    +0.295 HD
ENDBRANCH  28  29
ENDBRANCH  21  28
ENDBRANCH  17  22
BRANCH  17  32
ATOM     31  O   UNL     1      33.844 -23.614 -19.098  0.00  0.00    -0.287 OA
ATOM     32  C   UNL     1      33.361 -22.940 -18.191  0.00  0.00    +0.225 C 
ENDBRANCH  17  32
ENDBRANCH   2  17
TORSDOF 8
ENDMDL
MODEL 8
REMARK VINA RESULT:      -7.6      9.772     12.794
REMARK  Name = 9600418
REMARK  8 active torsions:
REMARK  status: ('A' for Active; 'I' for Inactive)
REMARK    1  A    between atoms: N_2  and  CA_17
REMARK    2  A    between atoms: C_3  and  C_6
REMARK    3  A    between atoms: N_5  and  O_15
REMARK    4  A    between atoms: C_6  and  C_10
REMARK    5  A    between atoms: CA_17  and  C_22
REMARK    6  A    between atoms: CA_17  and  C_32
REMARK    7  A    between atoms: CA_21  and  C_28
REMARK    8  A    between atoms: C_28  and  O_29
REMARK                            x       y       z     vdW  Elec       q    Type
REMARK                         _______ _______ _______ _____ _____    ______ ____
ROOT
ATOM      1  O   UNL     1      31.902 -12.696 -22.872  0.00  0.00    -0.268 OA
ATOM      2  N   UNL     1      34.020 -13.710 -22.983  0.00  0.00    -0.295 N 
ATOM      3  C   UNL     1      33.048 -12.776 -23.285  0.00  0.00    +0.269 C 
ATOM      4  H   UNL     1      34.902 -13.623 -23.412  0.00  0.00    +0.150 HD
ENDROOT
BRANCH   3   6
ATOM      5  N   UNL     1      33.760 -12.054 -25.498  0.00  0.00    -0.076 NA
ATOM      6  C   UNL     1      33.527 -11.732 -24.261  0.00  0.00    +0.198 C 
BRANCH   6  10
ATOM      7  S   UNL     1      34.663  -8.026 -23.599  0.00  0.00    -0.060 S 
ATOM      8  N   UNL     1      32.865  -9.771 -22.964  0.00  0.00    -0.383 NA
ATOM      9  N   UNL     1      32.628  -7.660 -21.926  0.00  0.00    -0.328 N 
ATOM     10  C   UNL     1      33.735 -10.340 -23.849  0.00  0.00    +0.148 C 
ATOM     11  C   UNL     1      34.768  -9.583 -24.313  0.00  0.00    +0.127 C 
ATOM     12  C   UNL     1      33.258  -8.535 -22.754  0.00  0.00    +0.204 C 
ATOM     13  H   UNL     1      32.979  -6.746 -21.816  0.00  0.00    +0.145 HD
ATOM     14  H   UNL     1      31.822  -7.940 -21.437  0.00  0.00    +0.145 HD
ENDBRANCH   6  10
BRANCH   5  15
ATOM     15  O   UNL     1      33.510 -13.412 -25.739  0.00  0.00    -0.373 OA
ATOM     16  C   UNL     1      33.212 -13.568 -27.118  0.00  0.00    +0.288 C 
ENDBRANCH   5  15
ENDBRANCH   3   6
BRANCH   2  17
ATOM     17  CA  UNL     1      33.807 -14.802 -22.077  0.00  0.00    +0.127 C 
BRANCH  17  22
ATOM     18  S   UNL     1      35.242 -16.528 -23.663  0.00  0.00    -0.164 S 
ATOM     19  N   UNL     1      33.335 -17.234 -21.927  0.00  0.00    +0.401 N 
ATOM     20  C   UNL     1      35.441 -18.116 -22.775  0.00  0.00    +0.030 C 
ATOM     21  CA  UNL     1      34.590 -17.869 -21.516  0.00  0.00    +0.050 C 
ATOM     22  C   UNL     1      33.673 -16.124 -22.826  0.00  0.00    +0.015 C 
ATOM     23  C   UNL     1      34.924 -19.236 -23.690  0.00  0.00    +0.009 C 
ATOM     24  C   UNL     1      36.914 -18.342 -22.432  0.00  0.00    +0.009 C 
ATOM     25  H1  UNL     1      32.841 -16.879 -21.108  0.00  0.00    -0.082 HD
ATOM     26  H2  UNL     1      32.730 -17.905 -22.399  0.00  0.00    -0.082 HD
BRANCH  21  28
ATOM     27  OXT UNL     1      35.028 -19.865 -20.228  0.00  0.00    -0.253 OA
ATOM     28  C   UNL     1      34.232 -19.132 -20.795  0.00  0.00    +0.294 C 
BRANCH  28  29
ATOM     29  O   UNL     1      32.897 -19.357 -20.857  0.00  0.00    -0.482 OA
ATOM     30  H   UNL     1      32.389 -19.382 -20.071  0.00  0.00    +0.295 HD
ENDBRANCH  28  29
ENDBRANCH  21  28
ENDBRANCH  17  22
BRANCH  17  32
ATOM     31  O   UNL     1      34.898 -15.272 -19.973  0.00  0.00    -0.287 OA
ATOM     32  C   UNL     1      34.969 -14.821 -21.114  0.00  0.00    +0.225 C 
ENDBRANCH  17  32
ENDBRANCH   2  17
TORSDOF 8
ENDMDL
MODEL 9
REMARK VINA RESULT:      -7.4     11.641     15.392
REMARK  Name = 9600418
REMARK  8 active torsions:
REMARK  status: ('A' for Active; 'I' for Inactive)
REMARK    1  A    between atoms: N_2  and  CA_17
REMARK    2  A    between atoms: C_3  and  C_6
REMARK    3  A    between atoms: N_5  and  O_15
REMARK    4  A    between atoms: C_6  and  C_10
REMARK    5  A    between atoms: CA_17  and  C_22
REMARK    6  A    between atoms: CA_17  and  C_32
REMARK    7  A    between atoms: CA_21  and  C_28
REMARK    8  A    between atoms: C_28  and  O_29
REMARK                            x       y       z     vdW  Elec       q    Type
REMARK                         _______ _______ _______ _____ _____    ______ ____
ROOT
ATOM      1  O   UNL     1      32.301 -13.179 -23.868  0.00  0.00    -0.268 OA
ATOM      2  N   UNL     1      34.369 -12.592 -24.820  0.00  0.00    -0.295 N 
ATOM      3  C   UNL     1      33.436 -13.430 -24.241  0.00  0.00    +0.269 C 
ATOM      4  H   UNL     1      35.247 -12.966 -25.062  0.00  0.00    +0.150 HD
ENDROOT
BRANCH   3   6
ATOM      5  N   UNL     1      34.097 -15.604 -25.116  0.00  0.00    -0.076 NA
ATOM      6  C   UNL     1      33.943 -14.840 -24.077  0.00  0.00    +0.198 C 
BRANCH   6  10
ATOM      7  S   UNL     1      34.622 -15.640 -20.286  0.00  0.00    -0.060 S 
ATOM      8  N   UNL     1      34.778 -16.648 -22.662  0.00  0.00    -0.383 NA
ATOM      9  N   UNL     1      35.497 -18.071 -20.916  0.00  0.00    -0.328 N 
ATOM     10  C   UNL     1      34.280 -15.380 -22.756  0.00  0.00    +0.148 C 
ATOM     11  C   UNL     1      34.118 -14.667 -21.607  0.00  0.00    +0.127 C 
ATOM     12  C   UNL     1      34.999 -16.899 -21.391  0.00  0.00    +0.204 C 
ATOM     13  H   UNL     1      35.637 -18.191 -19.949  0.00  0.00    +0.145 HD
ATOM     14  H   UNL     1      35.717 -18.801 -21.539  0.00  0.00    +0.145 HD
ENDBRANCH   6  10
BRANCH   5  15
ATOM     15  O   UNL     1      33.741 -14.947 -26.303  0.00  0.00    -0.373 OA
ATOM     16  C   UNL     1      32.498 -15.472 -26.742  0.00  0.00    +0.288 C 
ENDBRANCH   5  15
ENDBRANCH   3   6
BRANCH   2  17
ATOM     17  CA  UNL     1      34.122 -11.203 -25.083  0.00  0.00    +0.127 C 
BRANCH  17  22
ATOM     18  S   UNL     1      34.939  -8.815 -23.992  0.00  0.00    -0.164 S 
ATOM     19  N   UNL     1      32.675 -10.105 -23.392  0.00  0.00    +0.401 N 
ATOM     20  C   UNL     1      33.460  -7.809 -23.605  0.00  0.00    +0.030 C 
ATOM     21  CA  UNL     1      32.325  -8.793 -23.943  0.00  0.00    +0.050 C 
ATOM     22  C   UNL     1      34.058 -10.398 -23.788  0.00  0.00    +0.015 C 
ATOM     23  C   UNL     1      33.539  -7.404 -22.126  0.00  0.00    +0.009 C 
ATOM     24  C   UNL     1      33.424  -6.568 -24.498  0.00  0.00    +0.009 C 
ATOM     25  H1  UNL     1      32.048 -10.817 -23.766  0.00  0.00    -0.082 HD
ATOM     26  H2  UNL     1      32.587 -10.102 -22.376  0.00  0.00    -0.082 HD
BRANCH  21  28
ATOM     27  OXT UNL     1      30.439  -7.336 -23.548  0.00  0.00    -0.253 OA
ATOM     28  C   UNL     1      31.010  -8.397 -23.346  0.00  0.00    +0.294 C 
BRANCH  28  29
ATOM     29  O   UNL     1      30.535  -9.379 -22.543  0.00  0.00    -0.482 OA
ATOM     30  H   UNL     1      30.000  -9.163 -21.805  0.00  0.00    +0.295 HD
ENDBRANCH  28  29
ENDBRANCH  21  28
ENDBRANCH  17  22
BRANCH  17  32
ATOM     31  O   UNL     1      35.399 -11.132 -27.131  0.00  0.00    -0.287 OA
ATOM     32  C   UNL     1      35.225 -10.714 -25.989  0.00  0.00    +0.225 C 
ENDBRANCH  17  32
ENDBRANCH   2  17
TORSDOF 8
ENDMDL
