MODEL 1
REMARK VINA RESULT:     -10.0      0.000      0.000
REMARK  Name = 5281701
REMARK  6 active torsions:
REMARK  status: ('A' for Active; 'I' for Inactive)
REMARK    1  A    between atoms: C_4  and  C_12
REMARK    2  A    between atoms: C_8  and  O_24
REMARK    3  A    between atoms: C_10  and  O_26
REMARK    4  A    between atoms: C_15  and  O_18
REMARK    5  A    between atoms: C_16  and  O_20
REMARK    6  A    between atoms: C_17  and  O_22
REMARK                            x       y       z     vdW  Elec       q    Type
REMARK                         _______ _______ _______ _____ _____    ______ ____
ROOT
ATOM      1  O   UNL     1      35.991 -22.781 -16.905  0.00  0.00    -0.453 OA
ATOM      2  O   UNL     1      32.078 -22.863 -18.035  0.00  0.00    -0.286 OA
ATOM      3  C   UNL     1      34.266 -22.082 -18.466  0.00  0.00    +0.107 C 
ATOM      4  C   UNL     1      35.040 -23.480 -16.180  0.00  0.00    +0.149 C 
ATOM      5  C   UNL     1      35.588 -22.097 -18.024  0.00  0.00    +0.154 C 
ATOM      6  C   UNL     1      33.255 -22.831 -17.703  0.00  0.00    +0.205 C 
ATOM      7  C   UNL     1      33.739 -23.547 -16.507  0.00  0.00    +0.080 C 
ATOM      8  C   UNL     1      33.912 -21.369 -19.614  0.00  0.00    +0.143 C 
ATOM      9  C   UNL     1      36.566 -21.397 -18.731  0.00  0.00    +0.074 C 
ATOM     10  C   UNL     1      36.217 -20.683 -19.877  0.00  0.00    +0.140 C 
ATOM     11  C   UNL     1      34.893 -20.669 -20.317  0.00  0.00    +0.073 C 
ENDROOT
BRANCH   4  12
ATOM     12  C   UNL     1      35.583 -24.183 -15.001  0.00  0.00    +0.041 C 
ATOM     13  C   UNL     1      35.056 -23.932 -13.730  0.00  0.00    +0.043 C 
ATOM     14  C   UNL     1      36.622 -25.104 -15.148  0.00  0.00    +0.043 C 
ATOM     15  C   UNL     1      37.134 -25.769 -14.033  0.00  0.00    +0.171 C 
ATOM     16  C   UNL     1      35.567 -24.598 -12.615  0.00  0.00    +0.171 C 
ATOM     17  C   UNL     1      36.606 -25.516 -12.767  0.00  0.00    +0.202 C 
BRANCH  15  18
ATOM     18  O   UNL     1      38.148 -26.665 -14.194  0.00  0.00    -0.503 OA
ATOM     19  H   UNL     1      37.956 -27.551 -14.429  0.00  0.00    +0.292 HD
ENDBRANCH  15  18
BRANCH  16  20
ATOM     20  O   UNL     1      35.043 -24.339 -11.385  0.00  0.00    -0.503 OA
ATOM     21  H   UNL     1      35.406 -24.750 -10.625  0.00  0.00    +0.292 HD
ENDBRANCH  16  20
BRANCH  17  22
ATOM     22  O   UNL     1      37.104 -26.166 -11.678  0.00  0.00    -0.501 OA
ATOM     23  H   UNL     1      37.873 -25.842 -11.250  0.00  0.00    +0.292 HD
ENDBRANCH  17  22
ENDBRANCH   4  12
BRANCH   8  24
ATOM     24  O   UNL     1      32.635 -21.324 -20.084  0.00  0.00    -0.505 OA
ATOM     25  H   UNL     1      32.098 -20.576 -19.913  0.00  0.00    +0.292 HD
ENDBRANCH   8  24
BRANCH  10  26
ATOM     26  O   UNL     1      37.169 -19.999 -20.568  0.00  0.00    -0.505 OA
ATOM     27  H   UNL     1      38.050 -19.967 -20.247  0.00  0.00    +0.292 HD
ENDBRANCH  10  26
TORSDOF 6
ENDMDL
MODEL 2
REMARK VINA RESULT:      -9.9      4.629      7.774
REMARK  Name = 5281701
REMARK  6 active torsions:
REMARK  status: ('A' for Active; 'I' for Inactive)
REMARK    1  A    between atoms: C_4  and  C_12
REMARK    2  A    between atoms: C_8  and  O_24
REMARK    3  A    between atoms: C_10  and  O_26
REMARK    4  A    between atoms: C_15  and  O_18
REMARK    5  A    between atoms: C_16  and  O_20
REMARK    6  A    between atoms: C_17  and  O_22
REMARK                            x       y       z     vdW  Elec       q    Type
REMARK                         _______ _______ _______ _____ _____    ______ ____
ROOT
ATOM      1  O   UNL     1      34.048 -17.567 -21.586  0.00  0.00    -0.453 OA
ATOM      2  O   UNL     1      34.728 -18.235 -25.547  0.00  0.00    -0.286 OA
ATOM      3  C   UNL     1      34.109 -16.705 -23.856  0.00  0.00    +0.107 C 
ATOM      4  C   UNL     1      34.427 -18.814 -22.059  0.00  0.00    +0.149 C 
ATOM      5  C   UNL     1      33.893 -16.546 -22.488  0.00  0.00    +0.154 C 
ATOM      6  C   UNL     1      34.520 -18.024 -24.360  0.00  0.00    +0.205 C 
ATOM      7  C   UNL     1      34.670 -19.091 -23.350  0.00  0.00    +0.080 C 
ATOM      8  C   UNL     1      33.937 -15.628 -24.729  0.00  0.00    +0.143 C 
ATOM      9  C   UNL     1      33.505 -15.304 -21.985  0.00  0.00    +0.074 C 
ATOM     10  C   UNL     1      33.332 -14.226 -22.852  0.00  0.00    +0.140 C 
ATOM     11  C   UNL     1      33.548 -14.388 -24.221  0.00  0.00    +0.073 C 
ENDROOT
BRANCH   4  12
ATOM     12  C   UNL     1      34.569 -19.837 -21.004  0.00  0.00    +0.041 C 
ATOM     13  C   UNL     1      33.433 -20.401 -20.417  0.00  0.00    +0.043 C 
ATOM     14  C   UNL     1      35.838 -20.248 -20.589  0.00  0.00    +0.043 C 
ATOM     15  C   UNL     1      35.971 -21.216 -19.594  0.00  0.00    +0.171 C 
ATOM     16  C   UNL     1      33.566 -21.370 -19.421  0.00  0.00    +0.171 C 
ATOM     17  C   UNL     1      34.835 -21.777 -19.010  0.00  0.00    +0.202 C 
BRANCH  15  18
ATOM     18  O   UNL     1      37.216 -21.607 -19.201  0.00  0.00    -0.503 OA
ATOM     19  H   UNL     1      37.729 -22.161 -19.756  0.00  0.00    +0.292 HD
ENDBRANCH  15  18
BRANCH  16  20
ATOM     20  O   UNL     1      32.448 -21.908 -18.859  0.00  0.00    -0.503 OA
ATOM     21  H   UNL     1      32.526 -22.581 -18.212  0.00  0.00    +0.292 HD
ENDBRANCH  16  20
BRANCH  17  22
ATOM     22  O   UNL     1      34.965 -22.724 -18.038  0.00  0.00    -0.501 OA
ATOM     23  H   UNL     1      35.812 -23.065 -17.827  0.00  0.00    +0.292 HD
ENDBRANCH  17  22
ENDBRANCH   4  12
BRANCH   8  24
ATOM     24  O   UNL     1      34.136 -15.734 -26.072  0.00  0.00    -0.505 OA
ATOM     25  H   UNL     1      34.084 -14.973 -26.615  0.00  0.00    +0.292 HD
ENDBRANCH   8  24
BRANCH  10  26
ATOM     26  O   UNL     1      32.953 -13.013 -22.364  0.00  0.00    -0.505 OA
ATOM     27  H   UNL     1      33.404 -12.641 -21.631  0.00  0.00    +0.292 HD
ENDBRANCH  10  26
TORSDOF 6
ENDMDL
MODEL 3
REMARK VINA RESULT:      -9.9      4.630      7.908
REMARK  Name = 5281701
REMARK  6 active torsions:
REMARK  status: ('A' for Active; 'I' for Inactive)
REMARK    1  A    between atoms: C_4  and  C_12
REMARK    2  A    between atoms: C_8  and  O_24
REMARK    3  A    between atoms: C_10  and  O_26
REMARK    4  A    between atoms: C_15  and  O_18
REMARK    5  A    between atoms: C_16  and  O_20
REMARK    6  A    between atoms: C_17  and  O_22
REMARK                            x       y       z     vdW  Elec       q    Type
REMARK                         _______ _______ _______ _____ _____    ______ ____
ROOT
ATOM      1  O   UNL     1      34.042 -17.562 -21.574  0.00  0.00    -0.453 OA
ATOM      2  O   UNL     1      34.746 -18.205 -25.535  0.00  0.00    -0.286 OA
ATOM      3  C   UNL     1      34.109 -16.687 -23.840  0.00  0.00    +0.107 C 
ATOM      4  C   UNL     1      34.430 -18.804 -22.052  0.00  0.00    +0.149 C 
ATOM      5  C   UNL     1      33.887 -16.536 -22.472  0.00  0.00    +0.154 C 
ATOM      6  C   UNL     1      34.530 -18.002 -24.348  0.00  0.00    +0.205 C 
ATOM      7  C   UNL     1      34.681 -19.073 -23.343  0.00  0.00    +0.080 C 
ATOM      8  C   UNL     1      33.936 -15.607 -24.708  0.00  0.00    +0.143 C 
ATOM      9  C   UNL     1      33.489 -15.299 -21.964  0.00  0.00    +0.074 C 
ATOM     10  C   UNL     1      33.314 -14.217 -22.827  0.00  0.00    +0.140 C 
ATOM     11  C   UNL     1      33.537 -14.372 -24.196  0.00  0.00    +0.073 C 
ENDROOT
BRANCH   4  12
ATOM     12  C   UNL     1      34.573 -19.831 -21.001  0.00  0.00    +0.041 C 
ATOM     13  C   UNL     1      35.844 -20.244 -20.592  0.00  0.00    +0.043 C 
ATOM     14  C   UNL     1      33.440 -20.394 -20.409  0.00  0.00    +0.043 C 
ATOM     15  C   UNL     1      33.576 -21.364 -19.415  0.00  0.00    +0.171 C 
ATOM     16  C   UNL     1      35.981 -21.214 -19.598  0.00  0.00    +0.171 C 
ATOM     17  C   UNL     1      34.846 -21.773 -19.010  0.00  0.00    +0.202 C 
BRANCH  15  18
ATOM     18  O   UNL     1      32.461 -21.903 -18.848  0.00  0.00    -0.503 OA
ATOM     19  H   UNL     1      32.523 -22.350 -18.027  0.00  0.00    +0.292 HD
ENDBRANCH  15  18
BRANCH  16  20
ATOM     20  O   UNL     1      37.227 -21.605 -19.213  0.00  0.00    -0.503 OA
ATOM     21  H   UNL     1      37.891 -21.754 -19.856  0.00  0.00    +0.292 HD
ENDBRANCH  16  20
BRANCH  17  22
ATOM     22  O   UNL     1      34.980 -22.720 -18.039  0.00  0.00    -0.501 OA
ATOM     23  H   UNL     1      34.328 -22.799 -17.369  0.00  0.00    +0.292 HD
ENDBRANCH  17  22
ENDBRANCH   4  12
BRANCH   8  24
ATOM     24  O   UNL     1      34.142 -15.705 -26.050  0.00  0.00    -0.505 OA
ATOM     25  H   UNL     1      34.587 -15.020 -26.508  0.00  0.00    +0.292 HD
ENDBRANCH   8  24
BRANCH  10  26
ATOM     26  O   UNL     1      32.926 -13.009 -22.335  0.00  0.00    -0.505 OA
ATOM     27  H   UNL     1      33.547 -12.460 -21.897  0.00  0.00    +0.292 HD
ENDBRANCH  10  26
TORSDOF 6
ENDMDL
MODEL 4
REMARK VINA RESULT:      -9.8      4.692     10.510
REMARK  Name = 5281701
REMARK  6 active torsions:
REMARK  status: ('A' for Active; 'I' for Inactive)
REMARK    1  A    between atoms: C_4  and  C_12
REMARK    2  A    between atoms: C_8  and  O_24
REMARK    3  A    between atoms: C_10  and  O_26
REMARK    4  A    between atoms: C_15  and  O_18
REMARK    5  A    between atoms: C_16  and  O_20
REMARK    6  A    between atoms: C_17  and  O_22
REMARK                            x       y       z     vdW  Elec       q    Type
REMARK                         _______ _______ _______ _____ _____    ______ ____
ROOT
ATOM      1  O   UNL     1      33.845 -18.641 -21.435  0.00  0.00    -0.453 OA
ATOM      2  O   UNL     1      37.792 -19.483 -20.877  0.00  0.00    -0.286 OA
ATOM      3  C   UNL     1      35.544 -20.065 -20.441  0.00  0.00    +0.107 C 
ATOM      4  C   UNL     1      34.842 -17.854 -21.990  0.00  0.00    +0.149 C 
ATOM      5  C   UNL     1      34.213 -19.721 -20.673  0.00  0.00    +0.154 C 
ATOM      6  C   UNL     1      36.604 -19.237 -21.037  0.00  0.00    +0.205 C 
ATOM      7  C   UNL     1      36.156 -18.086 -21.846  0.00  0.00    +0.080 C 
ATOM      8  C   UNL     1      35.860 -21.177 -19.657  0.00  0.00    +0.143 C 
ATOM      9  C   UNL     1      33.189 -20.491 -20.121  0.00  0.00    +0.074 C 
ATOM     10  C   UNL     1      33.500 -21.601 -19.337  0.00  0.00    +0.140 C 
ATOM     11  C   UNL     1      34.833 -21.943 -19.106  0.00  0.00    +0.073 C 
ENDROOT
BRANCH   4  12
ATOM     12  C   UNL     1      34.336 -16.724 -22.794  0.00  0.00    +0.041 C 
ATOM     13  C   UNL     1      34.375 -16.784 -24.190  0.00  0.00    +0.043 C 
ATOM     14  C   UNL     1      33.813 -15.592 -22.166  0.00  0.00    +0.043 C 
ATOM     15  C   UNL     1      33.332 -14.526 -22.926  0.00  0.00    +0.171 C 
ATOM     16  C   UNL     1      33.895 -15.717 -24.952  0.00  0.00    +0.171 C 
ATOM     17  C   UNL     1      33.373 -14.589 -24.319  0.00  0.00    +0.202 C 
BRANCH  15  18
ATOM     18  O   UNL     1      32.825 -13.429 -22.297  0.00  0.00    -0.503 OA
ATOM     19  H   UNL     1      32.371 -12.775 -22.790  0.00  0.00    +0.292 HD
ENDBRANCH  15  18
BRANCH  16  20
ATOM     20  O   UNL     1      33.942 -15.792 -26.310  0.00  0.00    -0.503 OA
ATOM     21  H   UNL     1      34.760 -15.940 -26.744  0.00  0.00    +0.292 HD
ENDBRANCH  16  20
BRANCH  17  22
ATOM     22  O   UNL     1      32.904 -13.547 -25.063  0.00  0.00    -0.501 OA
ATOM     23  H   UNL     1      32.056 -13.190 -24.885  0.00  0.00    +0.292 HD
ENDBRANCH  17  22
ENDBRANCH   4  12
BRANCH   8  24
ATOM     24  O   UNL     1      37.144 -21.553 -19.403  0.00  0.00    -0.505 OA
ATOM     25  H   UNL     1      37.713 -20.984 -18.923  0.00  0.00    +0.292 HD
ENDBRANCH   8  24
BRANCH  10  26
ATOM     26  O   UNL     1      32.502 -22.354 -18.798  0.00  0.00    -0.505 OA
ATOM     27  H   UNL     1      32.103 -22.094 -17.990  0.00  0.00    +0.292 HD
ENDBRANCH  10  26
TORSDOF 6
ENDMDL
MODEL 5
REMARK VINA RESULT:      -9.8      4.755     10.454
REMARK  Name = 5281701
REMARK  6 active torsions:
REMARK  status: ('A' for Active; 'I' for Inactive)
REMARK    1  A    between atoms: C_4  and  C_12
REMARK    2  A    between atoms: C_8  and  O_24
REMARK    3  A    between atoms: C_10  and  O_26
REMARK    4  A    between atoms: C_15  and  O_18
REMARK    5  A    between atoms: C_16  and  O_20
REMARK    6  A    between atoms: C_17  and  O_22
REMARK                            x       y       z     vdW  Elec       q    Type
REMARK                         _______ _______ _______ _____ _____    ______ ____
ROOT
ATOM      1  O   UNL     1      33.866 -18.590 -21.528  0.00  0.00    -0.453 OA
ATOM      2  O   UNL     1      37.815 -19.416 -20.962  0.00  0.00    -0.286 OA
ATOM      3  C   UNL     1      35.568 -20.003 -20.525  0.00  0.00    +0.107 C 
ATOM      4  C   UNL     1      34.861 -17.803 -22.087  0.00  0.00    +0.149 C 
ATOM      5  C   UNL     1      34.237 -19.665 -20.760  0.00  0.00    +0.154 C 
ATOM      6  C   UNL     1      36.626 -19.175 -21.125  0.00  0.00    +0.205 C 
ATOM      7  C   UNL     1      36.175 -18.030 -21.940  0.00  0.00    +0.080 C 
ATOM      8  C   UNL     1      35.887 -21.110 -19.735  0.00  0.00    +0.143 C 
ATOM      9  C   UNL     1      33.214 -20.435 -20.204  0.00  0.00    +0.074 C 
ATOM     10  C   UNL     1      33.528 -21.540 -19.415  0.00  0.00    +0.140 C 
ATOM     11  C   UNL     1      34.862 -21.876 -19.181  0.00  0.00    +0.073 C 
ENDROOT
BRANCH   4  12
ATOM     12  C   UNL     1      34.351 -16.679 -22.897  0.00  0.00    +0.041 C 
ATOM     13  C   UNL     1      33.888 -15.517 -22.273  0.00  0.00    +0.043 C 
ATOM     14  C   UNL     1      34.330 -16.770 -24.291  0.00  0.00    +0.043 C 
ATOM     15  C   UNL     1      33.850 -15.706 -25.056  0.00  0.00    +0.171 C 
ATOM     16  C   UNL     1      33.409 -14.453 -23.038  0.00  0.00    +0.171 C 
ATOM     17  C   UNL     1      33.390 -14.548 -24.429  0.00  0.00    +0.202 C 
BRANCH  15  18
ATOM     18  O   UNL     1      33.838 -15.811 -26.415  0.00  0.00    -0.503 OA
ATOM     19  H   UNL     1      34.562 -15.491 -26.915  0.00  0.00    +0.292 HD
ENDBRANCH  15  18
BRANCH  16  20
ATOM     20  O   UNL     1      32.961 -13.330 -22.413  0.00  0.00    -0.503 OA
ATOM     21  H   UNL     1      32.042 -13.194 -22.293  0.00  0.00    +0.292 HD
ENDBRANCH  16  20
BRANCH  17  22
ATOM     22  O   UNL     1      32.921 -13.509 -25.176  0.00  0.00    -0.501 OA
ATOM     23  H   UNL     1      32.012 -13.467 -25.402  0.00  0.00    +0.292 HD
ENDBRANCH  17  22
ENDBRANCH   4  12
BRANCH   8  24
ATOM     24  O   UNL     1      37.172 -21.480 -19.477  0.00  0.00    -0.505 OA
ATOM     25  H   UNL     1      37.788 -21.556 -20.179  0.00  0.00    +0.292 HD
ENDBRANCH   8  24
BRANCH  10  26
ATOM     26  O   UNL     1      32.533 -22.293 -18.872  0.00  0.00    -0.505 OA
ATOM     27  H   UNL     1      31.697 -22.341 -19.295  0.00  0.00    +0.292 HD
ENDBRANCH  10  26
TORSDOF 6
ENDMDL
MODEL 6
REMARK VINA RESULT:      -9.8      3.502      6.899
REMARK  Name = 5281701
REMARK  6 active torsions:
REMARK  status: ('A' for Active; 'I' for Inactive)
REMARK    1  A    between atoms: C_4  and  C_12
REMARK    2  A    between atoms: C_8  and  O_24
REMARK    3  A    between atoms: C_10  and  O_26
REMARK    4  A    between atoms: C_15  and  O_18
REMARK    5  A    between atoms: C_16  and  O_20
REMARK    6  A    between atoms: C_17  and  O_22
REMARK                            x       y       z     vdW  Elec       q    Type
REMARK                         _______ _______ _______ _____ _____    ______ ____
ROOT
ATOM      1  O   UNL     1      34.806 -24.858 -14.754  0.00  0.00    -0.453 OA
ATOM      2  O   UNL     1      35.500 -24.070 -10.817  0.00  0.00    -0.286 OA
ATOM      3  C   UNL     1      36.374 -24.763 -12.900  0.00  0.00    +0.107 C 
ATOM      4  C   UNL     1      33.793 -24.441 -13.906  0.00  0.00    +0.149 C 
ATOM      5  C   UNL     1      36.068 -25.014 -14.237  0.00  0.00    +0.154 C 
ATOM      6  C   UNL     1      35.302 -24.311 -12.000  0.00  0.00    +0.205 C 
ATOM      7  C   UNL     1      33.963 -24.161 -12.604  0.00  0.00    +0.080 C 
ATOM      8  C   UNL     1      37.677 -24.938 -12.429  0.00  0.00    +0.143 C 
ATOM      9  C   UNL     1      37.067 -25.442 -15.112  0.00  0.00    +0.074 C 
ATOM     10  C   UNL     1      38.369 -25.618 -14.645  0.00  0.00    +0.140 C 
ATOM     11  C   UNL     1      38.673 -25.367 -13.307  0.00  0.00    +0.073 C 
ENDROOT
BRANCH   4  12
ATOM     12  C   UNL     1      32.479 -24.300 -14.566  0.00  0.00    +0.041 C 
ATOM     13  C   UNL     1      31.391 -25.063 -14.132  0.00  0.00    +0.043 C 
ATOM     14  C   UNL     1      32.317 -23.404 -15.625  0.00  0.00    +0.043 C 
ATOM     15  C   UNL     1      31.075 -23.271 -16.247  0.00  0.00    +0.171 C 
ATOM     16  C   UNL     1      30.149 -24.930 -14.753  0.00  0.00    +0.171 C 
ATOM     17  C   UNL     1      29.991 -24.034 -15.811  0.00  0.00    +0.202 C 
BRANCH  15  18
ATOM     18  O   UNL     1      30.933 -22.392 -17.278  0.00  0.00    -0.503 OA
ATOM     19  H   UNL     1      30.118 -22.337 -17.737  0.00  0.00    +0.292 HD
ENDBRANCH  15  18
BRANCH  16  20
ATOM     20  O   UNL     1      29.100 -25.682 -14.318  0.00  0.00    -0.503 OA
ATOM     21  H   UNL     1      29.189 -26.611 -14.243  0.00  0.00    +0.292 HD
ENDBRANCH  16  20
BRANCH  17  22
ATOM     22  O   UNL     1      28.778 -23.904 -16.418  0.00  0.00    -0.501 OA
ATOM     23  H   UNL     1      28.039 -24.384 -16.095  0.00  0.00    +0.292 HD
ENDBRANCH  17  22
ENDBRANCH   4  12
BRANCH   8  24
ATOM     24  O   UNL     1      38.025 -24.706 -11.133  0.00  0.00    -0.505 OA
ATOM     25  H   UNL     1      38.535 -25.337 -10.664  0.00  0.00    +0.292 HD
ENDBRANCH   8  24
BRANCH  10  26
ATOM     26  O   UNL     1      39.346 -26.035 -15.497  0.00  0.00    -0.505 OA
ATOM     27  H   UNL     1      39.117 -26.461 -16.300  0.00  0.00    +0.292 HD
ENDBRANCH  10  26
TORSDOF 6
ENDMDL
MODEL 7
REMARK VINA RESULT:      -9.8      3.516      6.962
REMARK  Name = 5281701
REMARK  6 active torsions:
REMARK  status: ('A' for Active; 'I' for Inactive)
REMARK    1  A    between atoms: C_4  and  C_12
REMARK    2  A    between atoms: C_8  and  O_24
REMARK    3  A    between atoms: C_10  and  O_26
REMARK    4  A    between atoms: C_15  and  O_18
REMARK    5  A    between atoms: C_16  and  O_20
REMARK    6  A    between atoms: C_17  and  O_22
REMARK                            x       y       z     vdW  Elec       q    Type
REMARK                         _______ _______ _______ _____ _____    ______ ____
ROOT
ATOM      1  O   UNL     1      34.800 -24.863 -14.743  0.00  0.00    -0.453 OA
ATOM      2  O   UNL     1      35.511 -24.067 -10.811  0.00  0.00    -0.286 OA
ATOM      3  C   UNL     1      36.376 -24.763 -12.897  0.00  0.00    +0.107 C 
ATOM      4  C   UNL     1      33.790 -24.445 -13.891  0.00  0.00    +0.149 C 
ATOM      5  C   UNL     1      36.064 -25.017 -14.231  0.00  0.00    +0.154 C 
ATOM      6  C   UNL     1      35.307 -24.311 -11.992  0.00  0.00    +0.205 C 
ATOM      7  C   UNL     1      33.966 -24.163 -12.590  0.00  0.00    +0.080 C 
ATOM      8  C   UNL     1      37.682 -24.936 -12.431  0.00  0.00    +0.143 C 
ATOM      9  C   UNL     1      37.060 -25.445 -15.110  0.00  0.00    +0.074 C 
ATOM     10  C   UNL     1      38.364 -25.619 -14.649  0.00  0.00    +0.140 C 
ATOM     11  C   UNL     1      38.674 -25.365 -13.312  0.00  0.00    +0.073 C 
ENDROOT
BRANCH   4  12
ATOM     12  C   UNL     1      32.473 -24.308 -14.546  0.00  0.00    +0.041 C 
ATOM     13  C   UNL     1      32.307 -23.409 -15.603  0.00  0.00    +0.043 C 
ATOM     14  C   UNL     1      31.390 -25.075 -14.114  0.00  0.00    +0.043 C 
ATOM     15  C   UNL     1      30.146 -24.946 -14.734  0.00  0.00    +0.171 C 
ATOM     16  C   UNL     1      31.064 -23.280 -16.224  0.00  0.00    +0.171 C 
ATOM     17  C   UNL     1      29.984 -24.048 -15.789  0.00  0.00    +0.202 C 
BRANCH  15  18
ATOM     18  O   UNL     1      29.099 -25.703 -14.301  0.00  0.00    -0.503 OA
ATOM     19  H   UNL     1      28.825 -25.652 -13.406  0.00  0.00    +0.292 HD
ENDBRANCH  15  18
BRANCH  16  20
ATOM     20  O   UNL     1      30.919 -22.399 -17.252  0.00  0.00    -0.503 OA
ATOM     21  H   UNL     1      30.471 -21.587 -17.115  0.00  0.00    +0.292 HD
ENDBRANCH  16  20
BRANCH  17  22
ATOM     22  O   UNL     1      28.770 -23.922 -16.396  0.00  0.00    -0.501 OA
ATOM     23  H   UNL     1      28.702 -23.474 -17.217  0.00  0.00    +0.292 HD
ENDBRANCH  17  22
ENDBRANCH   4  12
BRANCH   8  24
ATOM     24  O   UNL     1      38.035 -24.701 -11.137  0.00  0.00    -0.505 OA
ATOM     25  H   UNL     1      38.939 -24.694 -10.891  0.00  0.00    +0.292 HD
ENDBRANCH   8  24
BRANCH  10  26
ATOM     26  O   UNL     1      39.338 -26.037 -15.504  0.00  0.00    -0.505 OA
ATOM     27  H   UNL     1      39.405 -26.944 -15.730  0.00  0.00    +0.292 HD
ENDBRANCH  10  26
TORSDOF 6
ENDMDL
MODEL 8
REMARK VINA RESULT:      -9.7      2.970      6.861
REMARK  Name = 5281701
REMARK  6 active torsions:
REMARK  status: ('A' for Active; 'I' for Inactive)
REMARK    1  A    between atoms: C_4  and  C_12
REMARK    2  A    between atoms: C_8  and  O_24
REMARK    3  A    between atoms: C_10  and  O_26
REMARK    4  A    between atoms: C_15  and  O_18
REMARK    5  A    between atoms: C_16  and  O_20
REMARK    6  A    between atoms: C_17  and  O_22
REMARK                            x       y       z     vdW  Elec       q    Type
REMARK                         _______ _______ _______ _____ _____    ______ ____
ROOT
ATOM      1  O   UNL     1      33.472 -23.941 -13.969  0.00  0.00    -0.453 OA
ATOM      2  O   UNL     1      36.062 -22.860 -16.922  0.00  0.00    -0.286 OA
ATOM      3  C   UNL     1      35.760 -23.530 -14.676  0.00  0.00    +0.107 C 
ATOM      4  C   UNL     1      33.029 -23.608 -15.239  0.00  0.00    +0.149 C 
ATOM      5  C   UNL     1      34.819 -23.892 -13.713  0.00  0.00    +0.154 C 
ATOM      6  C   UNL     1      35.293 -23.184 -16.028  0.00  0.00    +0.205 C 
ATOM      7  C   UNL     1      33.835 -23.251 -16.251  0.00  0.00    +0.080 C 
ATOM      8  C   UNL     1      37.120 -23.498 -14.359  0.00  0.00    +0.143 C 
ATOM      9  C   UNL     1      35.236 -24.226 -12.424  0.00  0.00    +0.074 C 
ATOM     10  C   UNL     1      36.593 -24.195 -12.103  0.00  0.00    +0.140 C 
ATOM     11  C   UNL     1      37.532 -23.831 -13.069  0.00  0.00    +0.073 C 
ENDROOT
BRANCH   4  12
ATOM     12  C   UNL     1      31.565 -23.700 -15.406  0.00  0.00    +0.041 C 
ATOM     13  C   UNL     1      30.890 -22.771 -16.202  0.00  0.00    +0.043 C 
ATOM     14  C   UNL     1      30.848 -24.717 -14.772  0.00  0.00    +0.043 C 
ATOM     15  C   UNL     1      29.464 -24.805 -14.932  0.00  0.00    +0.171 C 
ATOM     16  C   UNL     1      29.506 -22.858 -16.363  0.00  0.00    +0.171 C 
ATOM     17  C   UNL     1      28.794 -23.876 -15.727  0.00  0.00    +0.202 C 
BRANCH  15  18
ATOM     18  O   UNL     1      28.780 -25.804 -14.307  0.00  0.00    -0.503 OA
ATOM     19  H   UNL     1      28.845 -26.683 -14.622  0.00  0.00    +0.292 HD
ENDBRANCH  15  18
BRANCH  16  20
ATOM     20  O   UNL     1      28.865 -21.943 -17.141  0.00  0.00    -0.503 OA
ATOM     21  H   UNL     1      28.997 -21.028 -16.993  0.00  0.00    +0.292 HD
ENDBRANCH  16  20
BRANCH  17  22
ATOM     22  O   UNL     1      27.443 -23.961 -15.884  0.00  0.00    -0.501 OA
ATOM     23  H   UNL     1      27.048 -23.695 -16.692  0.00  0.00    +0.292 HD
ENDBRANCH  17  22
ENDBRANCH   4  12
BRANCH   8  24
ATOM     24  O   UNL     1      38.075 -23.151 -15.265  0.00  0.00    -0.505 OA
ATOM     25  H   UNL     1      37.846 -22.640 -16.017  0.00  0.00    +0.292 HD
ENDBRANCH   8  24
BRANCH  10  26
ATOM     26  O   UNL     1      37.003 -24.520 -10.846  0.00  0.00    -0.505 OA
ATOM     27  H   UNL     1      36.403 -24.460 -10.128  0.00  0.00    +0.292 HD
ENDBRANCH  10  26
TORSDOF 6
ENDMDL
MODEL 9
REMARK VINA RESULT:      -9.7      8.289     13.085
REMARK  Name = 5281701
REMARK  6 active torsions:
REMARK  status: ('A' for Active; 'I' for Inactive)
REMARK    1  A    between atoms: C_4  and  C_12
REMARK    2  A    between atoms: C_8  and  O_24
REMARK    3  A    between atoms: C_10  and  O_26
REMARK    4  A    between atoms: C_15  and  O_18
REMARK    5  A    between atoms: C_16  and  O_20
REMARK    6  A    between atoms: C_17  and  O_22
REMARK                            x       y       z     vdW  Elec       q    Type
REMARK                         _______ _______ _______ _____ _____    ______ ____
ROOT
ATOM      1  O   UNL     1      33.906 -14.499 -22.483  0.00  0.00    -0.453 OA
ATOM      2  O   UNL     1      33.617 -15.942 -26.281  0.00  0.00    -0.286 OA
ATOM      3  C   UNL     1      34.300 -16.313 -24.050  0.00  0.00    +0.107 C 
ATOM      4  C   UNL     1      33.357 -13.744 -23.508  0.00  0.00    +0.149 C 
ATOM      5  C   UNL     1      34.367 -15.758 -22.773  0.00  0.00    +0.154 C 
ATOM      6  C   UNL     1      33.710 -15.517 -25.138  0.00  0.00    +0.205 C 
ATOM      7  C   UNL     1      33.231 -14.169 -24.775  0.00  0.00    +0.080 C 
ATOM      8  C   UNL     1      34.785 -17.601 -24.288  0.00  0.00    +0.143 C 
ATOM      9  C   UNL     1      34.920 -16.492 -21.723  0.00  0.00    +0.074 C 
ATOM     10  C   UNL     1      35.406 -17.779 -21.956  0.00  0.00    +0.140 C 
ATOM     11  C   UNL     1      35.338 -18.331 -23.236  0.00  0.00    +0.073 C 
ENDROOT
BRANCH   4  12
ATOM     12  C   UNL     1      32.888 -12.410 -23.084  0.00  0.00    +0.041 C 
ATOM     13  C   UNL     1      31.944 -12.291 -22.060  0.00  0.00    +0.043 C 
ATOM     14  C   UNL     1      33.387 -11.261 -23.702  0.00  0.00    +0.043 C 
ATOM     15  C   UNL     1      32.944 -10.000 -23.300  0.00  0.00    +0.171 C 
ATOM     16  C   UNL     1      31.502 -11.030 -21.657  0.00  0.00    +0.171 C 
ATOM     17  C   UNL     1      32.002  -9.885 -22.278  0.00  0.00    +0.202 C 
BRANCH  15  18
ATOM     18  O   UNL     1      33.441  -8.889 -23.913  0.00  0.00    -0.503 OA
ATOM     19  H   UNL     1      34.104  -8.974 -24.569  0.00  0.00    +0.292 HD
ENDBRANCH  15  18
BRANCH  16  20
ATOM     20  O   UNL     1      30.581 -10.933 -20.659  0.00  0.00    -0.503 OA
ATOM     21  H   UNL     1      29.711 -10.642 -20.850  0.00  0.00    +0.292 HD
ENDBRANCH  16  20
BRANCH  17  22
ATOM     22  O   UNL     1      31.570  -8.654 -21.884  0.00  0.00    -0.501 OA
ATOM     23  H   UNL     1      31.691  -8.377 -20.996  0.00  0.00    +0.292 HD
ENDBRANCH  17  22
ENDBRANCH   4  12
BRANCH   8  24
ATOM     24  O   UNL     1      34.742 -18.185 -25.517  0.00  0.00    -0.505 OA
ATOM     25  H   UNL     1      34.767 -19.119 -25.594  0.00  0.00    +0.292 HD
ENDBRANCH   8  24
BRANCH  10  26
ATOM     26  O   UNL     1      35.946 -18.497 -20.934  0.00  0.00    -0.505 OA
ATOM     27  H   UNL     1      36.741 -18.210 -20.528  0.00  0.00    +0.292 HD
ENDBRANCH  10  26
TORSDOF 6
ENDMDL
