MODEL 1
REMARK VINA RESULT:      -7.9      0.000      0.000
REMARK  Name = 65814
REMARK  7 active torsions:
REMARK  status: ('A' for Active; 'I' for Inactive)
REMARK    1  A    between atoms: C_1  and  O_2
REMARK    2  A    between atoms: C_1  and  C_4
REMARK    3  A    between atoms: C_1  and  C_12
REMARK    4  A    between atoms: C_4  and  N_5
REMARK    5  A    between atoms: N_5  and  C_8
REMARK    6  A    between atoms: C_12  and  O_13
REMARK    7  A    between atoms: O_13  and  C_16
REMARK                            x       y       z     vdW  Elec       q    Type
REMARK                         _______ _______ _______ _____ _____    ______ ____
ROOT
ATOM      1  C   UNL     1      36.163 -22.480 -16.107  0.00  0.00    +0.133 C 
ENDROOT
BRANCH   1   2
ATOM      2  O   UNL     1      35.418 -23.658 -16.429  0.00  0.00    -0.383 OA
ATOM      3  H   UNL     1      35.797 -24.418 -15.960  0.00  0.00    +0.210 HD
ENDBRANCH   1   2
BRANCH   1   4
ATOM      4  C   UNL     1      37.261 -22.866 -15.114  0.00  0.00    -0.048 C 
BRANCH   4   5
ATOM      5  N   UNL     1      38.111 -23.928 -15.625  0.00  0.00    +0.388 N 
ATOM      6  H   UNL     1      37.671 -24.345 -16.445  0.00  0.00    -0.084 HD
ATOM      7  H   UNL     1      39.018 -23.532 -15.876  0.00  0.00    -0.084 HD
BRANCH   5   8
ATOM      8  C   UNL     1      38.313 -24.963 -14.607  0.00  0.00    -0.046 C 
ATOM      9  C   UNL     1      39.784 -25.391 -14.630  0.00  0.00    -0.022 C 
ATOM     10  C   UNL     1      37.957 -24.377 -13.237  0.00  0.00    -0.022 C 
ATOM     11  C   UNL     1      37.411 -26.164 -14.917  0.00  0.00    -0.022 C 
ENDBRANCH   5   8
ENDBRANCH   4   5
ENDBRANCH   1   4
BRANCH   1  12
ATOM     12  C   UNL     1      36.704 -21.875 -17.401  0.00  0.00    +0.232 C 
BRANCH  12  13
ATOM     13  O   UNL     1      35.973 -22.410 -18.500  0.00  0.00    -0.472 OA
BRANCH  13  16
ATOM     14 CL   UNL     1      32.975 -22.538 -18.309  0.00  0.00    -0.079 Cl
ATOM     15 CL   UNL     1      36.279 -18.641 -21.884  0.00  0.00    -0.082 Cl
ATOM     16  C   UNL     1      35.299 -21.514 -19.286  0.00  0.00    +0.150 C 
ATOM     17  C   UNL     1      33.908 -21.469 -19.290  0.00  0.00    +0.092 C 
ATOM     18  C   UNL     1      36.035 -20.644 -20.084  0.00  0.00    +0.049 C 
ATOM     19  C   UNL     1      35.375 -19.720 -20.895  0.00  0.00    +0.061 C 
ATOM     20  C   UNL     1      33.248 -20.545 -20.101  0.00  0.00    +0.015 C 
ATOM     21  C   UNL     1      33.981 -19.671 -20.903  0.00  0.00    +0.012 C 
ENDBRANCH  13  16
ENDBRANCH  12  13
ENDBRANCH   1  12
TORSDOF 7
ENDMDL
MODEL 2
REMARK VINA RESULT:      -7.5      8.292     11.050
REMARK  Name = 65814
REMARK  7 active torsions:
REMARK  status: ('A' for Active; 'I' for Inactive)
REMARK    1  A    between atoms: C_1  and  O_2
REMARK    2  A    between atoms: C_1  and  C_4
REMARK    3  A    between atoms: C_1  and  C_12
REMARK    4  A    between atoms: C_4  and  N_5
REMARK    5  A    between atoms: N_5  and  C_8
REMARK    6  A    between atoms: C_12  and  O_13
REMARK    7  A    between atoms: O_13  and  C_16
REMARK                            x       y       z     vdW  Elec       q    Type
REMARK                         _______ _______ _______ _____ _____    ______ ____
ROOT
ATOM      1  C   UNL     1      33.745 -15.666 -24.613  0.00  0.00    +0.133 C 
ENDROOT
BRANCH   1   2
ATOM      2  O   UNL     1      34.389 -16.201 -25.773  0.00  0.00    -0.383 OA
ATOM      3  H   UNL     1      33.718 -16.537 -26.388  0.00  0.00    +0.210 HD
ENDBRANCH   1   2
BRANCH   1   4
ATOM      4  C   UNL     1      34.714 -15.778 -23.434  0.00  0.00    -0.048 C 
BRANCH   4   5
ATOM      5  N   UNL     1      35.656 -16.872 -23.604  0.00  0.00    +0.388 N 
ATOM      6  H   UNL     1      35.574 -17.241 -24.551  0.00  0.00    -0.084 HD
ATOM      7  H   UNL     1      36.601 -16.521 -23.443  0.00  0.00    -0.084 HD
BRANCH   5   8
ATOM      8  C   UNL     1      35.380 -17.945 -22.644  0.00  0.00    -0.046 C 
ATOM      9  C   UNL     1      34.507 -17.381 -21.519  0.00  0.00    -0.022 C 
ATOM     10  C   UNL     1      34.638 -19.071 -23.371  0.00  0.00    -0.022 C 
ATOM     11  C   UNL     1      36.703 -18.468 -22.073  0.00  0.00    -0.022 C 
ENDBRANCH   5   8
ENDBRANCH   4   5
ENDBRANCH   1   4
BRANCH   1  12
ATOM     12  C   UNL     1      33.318 -14.229 -24.910  0.00  0.00    +0.232 C 
BRANCH  12  13
ATOM     13  O   UNL     1      34.054 -13.347 -24.067  0.00  0.00    -0.472 OA
BRANCH  13  16
ATOM     14 CL   UNL     1      34.909 -10.790 -25.398  0.00  0.00    -0.079 Cl
ATOM     15 CL   UNL     1      30.549 -11.368 -20.978  0.00  0.00    -0.082 Cl
ATOM     16  C   UNL     1      33.405 -12.221 -23.639  0.00  0.00    +0.150 C 
ATOM     17  C   UNL     1      33.706 -10.972 -24.175  0.00  0.00    +0.092 C 
ATOM     18  C   UNL     1      32.432 -12.348 -22.653  0.00  0.00    +0.049 C 
ATOM     19  C   UNL     1      31.754 -11.217 -22.197  0.00  0.00    +0.061 C 
ATOM     20  C   UNL     1      33.028  -9.841 -23.720  0.00  0.00    +0.015 C 
ATOM     21  C   UNL     1      32.052  -9.964 -22.731  0.00  0.00    +0.012 C 
ENDBRANCH  13  16
ENDBRANCH  12  13
ENDBRANCH   1  12
TORSDOF 7
ENDMDL
MODEL 3
REMARK VINA RESULT:      -7.5      6.706      9.530
REMARK  Name = 65814
REMARK  7 active torsions:
REMARK  status: ('A' for Active; 'I' for Inactive)
REMARK    1  A    between atoms: C_1  and  O_2
REMARK    2  A    between atoms: C_1  and  C_4
REMARK    3  A    between atoms: C_1  and  C_12
REMARK    4  A    between atoms: C_4  and  N_5
REMARK    5  A    between atoms: N_5  and  C_8
REMARK    6  A    between atoms: C_12  and  O_13
REMARK    7  A    between atoms: O_13  and  C_16
REMARK                            x       y       z     vdW  Elec       q    Type
REMARK                         _______ _______ _______ _____ _____    ______ ____
ROOT
ATOM      1  C   UNL     1      34.559 -15.537 -21.599  0.00  0.00    +0.133 C 
ENDROOT
BRANCH   1   2
ATOM      2  O   UNL     1      34.910 -15.282 -20.236  0.00  0.00    -0.383 OA
ATOM      3  H   UNL     1      35.457 -14.482 -20.188  0.00  0.00    +0.210 HD
ENDBRANCH   1   2
BRANCH   1   4
ATOM      4  C   UNL     1      34.165 -17.010 -21.723  0.00  0.00    -0.048 C 
BRANCH   4   5
ATOM      5  N   UNL     1      34.994 -17.869 -20.895  0.00  0.00    +0.388 N 
ATOM      6  H   UNL     1      35.975 -17.623 -21.033  0.00  0.00    -0.084 HD
ATOM      7  H   UNL     1      34.732 -17.738 -19.917  0.00  0.00    -0.084 HD
BRANCH   5   8
ATOM      8  C   UNL     1      34.797 -19.278 -21.251  0.00  0.00    -0.046 C 
ATOM      9  C   UNL     1      33.413 -19.716 -20.764  0.00  0.00    -0.022 C 
ATOM     10  C   UNL     1      34.885 -19.412 -22.776  0.00  0.00    -0.022 C 
ATOM     11  C   UNL     1      35.885 -20.128 -20.584  0.00  0.00    -0.022 C 
ENDBRANCH   5   8
ENDBRANCH   4   5
ENDBRANCH   1   4
BRANCH   1  12
ATOM     12  C   UNL     1      33.443 -14.576 -22.006  0.00  0.00    +0.232 C 
BRANCH  12  13
ATOM     13  O   UNL     1      33.105 -14.815 -23.369  0.00  0.00    -0.472 OA
BRANCH  13  16
ATOM     14 CL   UNL     1      32.793 -15.529 -26.273  0.00  0.00    -0.079 Cl
ATOM     15 CL   UNL     1      34.403  -9.950 -23.999  0.00  0.00    -0.082 Cl
ATOM     16  C   UNL     1      33.346 -13.796 -24.250  0.00  0.00    +0.150 C 
ATOM     17  C   UNL     1      33.236 -13.993 -25.624  0.00  0.00    +0.092 C 
ATOM     18  C   UNL     1      33.706 -12.550 -23.744  0.00  0.00    +0.049 C 
ATOM     19  C   UNL     1      33.958 -11.493 -24.619  0.00  0.00    +0.061 C 
ATOM     20  C   UNL     1      33.489 -12.936 -26.498  0.00  0.00    +0.015 C 
ATOM     21  C   UNL     1      33.850 -11.687 -25.996  0.00  0.00    +0.012 C 
ENDBRANCH  13  16
ENDBRANCH  12  13
ENDBRANCH   1  12
TORSDOF 7
ENDMDL
MODEL 4
REMARK VINA RESULT:      -7.4      4.911      8.728
REMARK  Name = 65814
REMARK  7 active torsions:
REMARK  status: ('A' for Active; 'I' for Inactive)
REMARK    1  A    between atoms: C_1  and  O_2
REMARK    2  A    between atoms: C_1  and  C_4
REMARK    3  A    between atoms: C_1  and  C_12
REMARK    4  A    between atoms: C_4  and  N_5
REMARK    5  A    between atoms: N_5  and  C_8
REMARK    6  A    between atoms: C_12  and  O_13
REMARK    7  A    between atoms: O_13  and  C_16
REMARK                            x       y       z     vdW  Elec       q    Type
REMARK                         _______ _______ _______ _____ _____    ______ ____
ROOT
ATOM      1  C   UNL     1      35.036 -17.582 -23.700  0.00  0.00    +0.133 C 
ENDROOT
BRANCH   1   2
ATOM      2  O   UNL     1      34.223 -17.310 -24.845  0.00  0.00    -0.383 OA
ATOM      3  H   UNL     1      34.789 -17.042 -25.586  0.00  0.00    +0.210 HD
ENDBRANCH   1   2
BRANCH   1   4
ATOM      4  C   UNL     1      34.919 -16.397 -22.738  0.00  0.00    -0.048 C 
BRANCH   4   5
ATOM      5  N   UNL     1      33.609 -15.771 -22.800  0.00  0.00    +0.388 N 
ATOM      6  H   UNL     1      33.605 -15.074 -23.545  0.00  0.00    -0.084 HD
ATOM      7  H   UNL     1      32.909 -16.490 -22.986  0.00  0.00    -0.084 HD
BRANCH   5   8
ATOM      8  C   UNL     1      33.289 -15.117 -21.528  0.00  0.00    -0.046 C 
ATOM      9  C   UNL     1      32.676 -13.745 -21.824  0.00  0.00    -0.022 C 
ATOM     10  C   UNL     1      32.282 -15.990 -20.770  0.00  0.00    -0.022 C 
ATOM     11  C   UNL     1      34.571 -14.955 -20.703  0.00  0.00    -0.022 C 
ENDBRANCH   5   8
ENDBRANCH   4   5
ENDBRANCH   1   4
BRANCH   1  12
ATOM     12  C   UNL     1      34.587 -18.906 -23.084  0.00  0.00    +0.232 C 
BRANCH  12  13
ATOM     13  O   UNL     1      34.344 -18.709 -21.695  0.00  0.00    -0.472 OA
BRANCH  13  16
ATOM     14 CL   UNL     1      37.325 -18.971 -21.404  0.00  0.00    -0.079 Cl
ATOM     15 CL   UNL     1      33.020 -22.472 -18.559  0.00  0.00    -0.082 Cl
ATOM     16  C   UNL     1      34.764 -19.701 -20.850  0.00  0.00    +0.150 C 
ATOM     17  C   UNL     1      36.118 -19.928 -20.626  0.00  0.00    +0.092 C 
ATOM     18  C   UNL     1      33.804 -20.483 -20.215  0.00  0.00    +0.049 C 
ATOM     19  C   UNL     1      34.202 -21.502 -19.349  0.00  0.00    +0.061 C 
ATOM     20  C   UNL     1      36.516 -20.946 -19.760  0.00  0.00    +0.015 C 
ATOM     21  C   UNL     1      35.558 -21.733 -19.122  0.00  0.00    +0.012 C 
ENDBRANCH  13  16
ENDBRANCH  12  13
ENDBRANCH   1  12
TORSDOF 7
ENDMDL
MODEL 5
REMARK VINA RESULT:      -7.3      7.376     10.319
REMARK  Name = 65814
REMARK  7 active torsions:
REMARK  status: ('A' for Active; 'I' for Inactive)
REMARK    1  A    between atoms: C_1  and  O_2
REMARK    2  A    between atoms: C_1  and  C_4
REMARK    3  A    between atoms: C_1  and  C_12
REMARK    4  A    between atoms: C_4  and  N_5
REMARK    5  A    between atoms: N_5  and  C_8
REMARK    6  A    between atoms: C_12  and  O_13
REMARK    7  A    between atoms: O_13  and  C_16
REMARK                            x       y       z     vdW  Elec       q    Type
REMARK                         _______ _______ _______ _____ _____    ______ ____
ROOT
ATOM      1  C   UNL     1      34.373 -15.729 -22.966  0.00  0.00    +0.133 C 
ENDROOT
BRANCH   1   2
ATOM      2  O   UNL     1      35.609 -16.054 -23.608  0.00  0.00    -0.383 OA
ATOM      3  H   UNL     1      35.598 -16.986 -23.876  0.00  0.00    +0.210 HD
ENDBRANCH   1   2
BRANCH   1   4
ATOM      4  C   UNL     1      34.215 -16.639 -21.746  0.00  0.00    -0.048 C 
BRANCH   4   5
ATOM      5  N   UNL     1      35.379 -17.486 -21.542  0.00  0.00    +0.388 N 
ATOM      6  H   UNL     1      36.060 -17.303 -22.279  0.00  0.00    -0.084 HD
ATOM      7  H   UNL     1      35.783 -17.277 -20.629  0.00  0.00    -0.084 HD
BRANCH   5   8
ATOM      8  C   UNL     1      34.999 -18.902 -21.578  0.00  0.00    -0.046 C 
ATOM      9  C   UNL     1      33.599 -19.048 -20.976  0.00  0.00    -0.022 C 
ATOM     10  C   UNL     1      34.995 -19.369 -23.038  0.00  0.00    -0.022 C 
ATOM     11  C   UNL     1      36.011 -19.720 -20.766  0.00  0.00    -0.022 C 
ENDBRANCH   5   8
ENDBRANCH   4   5
ENDBRANCH   1   4
BRANCH   1  12
ATOM     12  C   UNL     1      34.381 -14.242 -22.613  0.00  0.00    +0.232 C 
BRANCH  12  13
ATOM     13  O   UNL     1      33.767 -13.515 -23.672  0.00  0.00    -0.472 OA
BRANCH  13  16
ATOM     14 CL   UNL     1      34.624 -11.127 -25.286  0.00  0.00    -0.079 Cl
ATOM     15 CL   UNL     1      30.431 -11.146 -20.671  0.00  0.00    -0.082 Cl
ATOM     16  C   UNL     1      33.160 -12.334 -23.337  0.00  0.00    +0.150 C 
ATOM     17  C   UNL     1      33.467 -11.154 -24.007  0.00  0.00    +0.092 C 
ATOM     18  C   UNL     1      32.224 -12.337 -22.307  0.00  0.00    +0.049 C 
ATOM     19  C   UNL     1      31.590 -11.149 -21.943  0.00  0.00    +0.061 C 
ATOM     20  C   UNL     1      32.832  -9.966 -23.643  0.00  0.00    +0.015 C 
ATOM     21  C   UNL     1      31.894  -9.964 -22.611  0.00  0.00    +0.012 C 
ENDBRANCH  13  16
ENDBRANCH  12  13
ENDBRANCH   1  12
TORSDOF 7
ENDMDL
MODEL 6
REMARK VINA RESULT:      -7.3      7.332     10.008
REMARK  Name = 65814
REMARK  7 active torsions:
REMARK  status: ('A' for Active; 'I' for Inactive)
REMARK    1  A    between atoms: C_1  and  O_2
REMARK    2  A    between atoms: C_1  and  C_4
REMARK    3  A    between atoms: C_1  and  C_12
REMARK    4  A    between atoms: C_4  and  N_5
REMARK    5  A    between atoms: N_5  and  C_8
REMARK    6  A    between atoms: C_12  and  O_13
REMARK    7  A    between atoms: O_13  and  C_16
REMARK                            x       y       z     vdW  Elec       q    Type
REMARK                         _______ _______ _______ _____ _____    ______ ____
ROOT
ATOM      1  C   UNL     1      34.193 -14.875 -21.434  0.00  0.00    +0.133 C 
ENDROOT
BRANCH   1   2
ATOM      2  O   UNL     1      35.041 -14.717 -20.293  0.00  0.00    -0.383 OA
ATOM      3  H   UNL     1      35.850 -14.250 -20.554  0.00  0.00    +0.210 HD
ENDBRANCH   1   2
BRANCH   1   4
ATOM      4  C   UNL     1      34.023 -16.373 -21.700  0.00  0.00    -0.048 C 
BRANCH   4   5
ATOM      5  N   UNL     1      34.900 -17.177 -20.866  0.00  0.00    +0.388 N 
ATOM      6  H   UNL     1      35.812 -16.724 -20.802  0.00  0.00    -0.084 HD
ATOM      7  H   UNL     1      34.485 -17.266 -19.938  0.00  0.00    -0.084 HD
BRANCH   5   8
ATOM      8  C   UNL     1      35.069 -18.517 -21.437  0.00  0.00    -0.046 C 
ATOM      9  C   UNL     1      36.410 -19.086 -20.962  0.00  0.00    -0.022 C 
ATOM     10  C   UNL     1      33.918 -19.404 -20.949  0.00  0.00    -0.022 C 
ATOM     11  C   UNL     1      35.049 -18.424 -22.968  0.00  0.00    -0.022 C 
ENDBRANCH   5   8
ENDBRANCH   4   5
ENDBRANCH   1   4
BRANCH   1  12
ATOM     12  C   UNL     1      32.872 -14.155 -21.166  0.00  0.00    +0.232 C 
BRANCH  12  13
ATOM     13  O   UNL     1      32.308 -13.752 -22.410  0.00  0.00    -0.472 OA
BRANCH  13  16
ATOM     14 CL   UNL     1      30.744 -11.585 -21.032  0.00  0.00    -0.079 Cl
ATOM     15 CL   UNL     1      35.017 -10.776 -25.501  0.00  0.00    -0.082 Cl
ATOM     16  C   UNL     1      32.584 -12.478 -22.827  0.00  0.00    +0.150 C 
ATOM     17  C   UNL     1      31.930 -11.383 -22.269  0.00  0.00    +0.092 C 
ATOM     18  C   UNL     1      33.537 -12.296 -23.824  0.00  0.00    +0.049 C 
ATOM     19  C   UNL     1      33.839 -11.008 -24.268  0.00  0.00    +0.061 C 
ATOM     20  C   UNL     1      32.232 -10.095 -22.713  0.00  0.00    +0.015 C 
ATOM     21  C   UNL     1      33.186  -9.908 -23.713  0.00  0.00    +0.012 C 
ENDBRANCH  13  16
ENDBRANCH  12  13
ENDBRANCH   1  12
TORSDOF 7
ENDMDL
MODEL 7
REMARK VINA RESULT:      -7.3      7.348      9.851
REMARK  Name = 65814
REMARK  7 active torsions:
REMARK  status: ('A' for Active; 'I' for Inactive)
REMARK    1  A    between atoms: C_1  and  O_2
REMARK    2  A    between atoms: C_1  and  C_4
REMARK    3  A    between atoms: C_1  and  C_12
REMARK    4  A    between atoms: C_4  and  N_5
REMARK    5  A    between atoms: N_5  and  C_8
REMARK    6  A    between atoms: C_12  and  O_13
REMARK    7  A    between atoms: O_13  and  C_16
REMARK                            x       y       z     vdW  Elec       q    Type
REMARK                         _______ _______ _______ _____ _____    ______ ____
ROOT
ATOM      1  C   UNL     1      34.068 -16.302 -24.607  0.00  0.00    +0.133 C 
ENDROOT
BRANCH   1   2
ATOM      2  O   UNL     1      34.645 -16.450 -25.908  0.00  0.00    -0.383 OA
ATOM      3  H   UNL     1      35.334 -17.133 -25.879  0.00  0.00    +0.210 HD
ENDBRANCH   1   2
BRANCH   1   4
ATOM      4  C   UNL     1      35.110 -16.730 -23.571  0.00  0.00    -0.048 C 
BRANCH   4   5
ATOM      5  N   UNL     1      34.495 -17.212 -22.345  0.00  0.00    +0.388 N 
ATOM      6  H   UNL     1      34.800 -16.629 -21.566  0.00  0.00    -0.084 HD
ATOM      7  H   UNL     1      33.480 -17.165 -22.444  0.00  0.00    -0.084 HD
BRANCH   5   8
ATOM      8  C   UNL     1      34.880 -18.603 -22.086  0.00  0.00    -0.046 C 
ATOM      9  C   UNL     1      36.264 -18.613 -21.431  0.00  0.00    -0.022 C 
ATOM     10  C   UNL     1      33.846 -19.227 -21.142  0.00  0.00    -0.022 C 
ATOM     11  C   UNL     1      34.918 -19.375 -23.410  0.00  0.00    -0.022 C 
ENDBRANCH   5   8
ENDBRANCH   4   5
ENDBRANCH   1   4
BRANCH   1  12
ATOM     12  C   UNL     1      33.607 -14.855 -24.438  0.00  0.00    +0.232 C 
BRANCH  12  13
ATOM     13  O   UNL     1      33.953 -14.412 -23.129  0.00  0.00    -0.472 OA
BRANCH  13  16
ATOM     14 CL   UNL     1      32.571 -15.044 -20.535  0.00  0.00    -0.079 Cl
ATOM     15 CL   UNL     1      32.303  -9.641 -23.636  0.00  0.00    -0.082 Cl
ATOM     16  C   UNL     1      33.201 -13.395 -22.605  0.00  0.00    +0.150 C 
ATOM     17  C   UNL     1      32.510 -13.557 -21.408  0.00  0.00    +0.092 C 
ATOM     18  C   UNL     1      33.140 -12.189 -23.297  0.00  0.00    +0.049 C 
ATOM     19  C   UNL     1      32.382 -11.135 -22.787  0.00  0.00    +0.061 C 
ATOM     20  C   UNL     1      31.752 -12.503 -20.898  0.00  0.00    +0.015 C 
ATOM     21  C   UNL     1      31.687 -11.293 -21.587  0.00  0.00    +0.012 C 
ENDBRANCH  13  16
ENDBRANCH  12  13
ENDBRANCH   1  12
TORSDOF 7
ENDMDL
MODEL 8
REMARK VINA RESULT:      -7.2      4.129      7.273
REMARK  Name = 65814
REMARK  7 active torsions:
REMARK  status: ('A' for Active; 'I' for Inactive)
REMARK    1  A    between atoms: C_1  and  O_2
REMARK    2  A    between atoms: C_1  and  C_4
REMARK    3  A    between atoms: C_1  and  C_12
REMARK    4  A    between atoms: C_4  and  N_5
REMARK    5  A    between atoms: N_5  and  C_8
REMARK    6  A    between atoms: C_12  and  O_13
REMARK    7  A    between atoms: O_13  and  C_16
REMARK                            x       y       z     vdW  Elec       q    Type
REMARK                         _______ _______ _______ _____ _____    ______ ____
ROOT
ATOM      1  C   UNL     1      33.451 -21.377 -19.928  0.00  0.00    +0.133 C 
ENDROOT
BRANCH   1   2
ATOM      2  O   UNL     1      32.365 -20.554 -19.491  0.00  0.00    -0.383 OA
ATOM      3  H   UNL     1      32.511 -20.291 -18.568  0.00  0.00    +0.210 HD
ENDBRANCH   1   2
BRANCH   1   4
ATOM      4  C   UNL     1      34.598 -20.462 -20.362  0.00  0.00    -0.048 C 
BRANCH   4   5
ATOM      5  N   UNL     1      34.130 -19.337 -21.155  0.00  0.00    +0.388 N 
ATOM      6  H   UNL     1      33.641 -19.687 -21.978  0.00  0.00    -0.084 HD
ATOM      7  H   UNL     1      33.500 -18.772 -20.585  0.00  0.00    -0.084 HD
BRANCH   5   8
ATOM      8  C   UNL     1      35.257 -18.502 -21.583  0.00  0.00    -0.046 C 
ATOM      9  C   UNL     1      35.014 -17.069 -21.100  0.00  0.00    -0.022 C 
ATOM     10  C   UNL     1      36.541 -19.058 -20.958  0.00  0.00    -0.022 C 
ATOM     11  C   UNL     1      35.360 -18.533 -23.112  0.00  0.00    -0.022 C 
ENDBRANCH   5   8
ENDBRANCH   4   5
ENDBRANCH   1   4
BRANCH   1  12
ATOM     12  C   UNL     1      33.832 -22.328 -18.795  0.00  0.00    +0.232 C 
BRANCH  12  13
ATOM     13  O   UNL     1      32.643 -22.768 -18.145  0.00  0.00    -0.472 OA
BRANCH  13  16
ATOM     14 CL   UNL     1      30.079 -22.801 -16.575  0.00  0.00    -0.079 Cl
ATOM     15 CL   UNL     1      35.738 -24.299 -14.426  0.00  0.00    -0.082 Cl
ATOM     16  C   UNL     1      32.764 -23.153 -16.837  0.00  0.00    +0.150 C 
ATOM     17  C   UNL     1      31.653 -23.212 -16.001  0.00  0.00    +0.092 C 
ATOM     18  C   UNL     1      34.027 -23.488 -16.356  0.00  0.00    +0.049 C 
ATOM     19  C   UNL     1      34.180 -23.883 -15.027  0.00  0.00    +0.061 C 
ATOM     20  C   UNL     1      31.806 -23.607 -14.672  0.00  0.00    +0.015 C 
ATOM     21  C   UNL     1      33.069 -23.943 -14.186  0.00  0.00    +0.012 C 
ENDBRANCH  13  16
ENDBRANCH  12  13
ENDBRANCH   1  12
TORSDOF 7
ENDMDL
MODEL 9
REMARK VINA RESULT:      -7.2      7.216     10.063
REMARK  Name = 65814
REMARK  7 active torsions:
REMARK  status: ('A' for Active; 'I' for Inactive)
REMARK    1  A    between atoms: C_1  and  O_2
REMARK    2  A    between atoms: C_1  and  C_4
REMARK    3  A    between atoms: C_1  and  C_12
REMARK    4  A    between atoms: C_4  and  N_5
REMARK    5  A    between atoms: N_5  and  C_8
REMARK    6  A    between atoms: C_12  and  O_13
REMARK    7  A    between atoms: O_13  and  C_16
REMARK                            x       y       z     vdW  Elec       q    Type
REMARK                         _______ _______ _______ _____ _____    ______ ____
ROOT
ATOM      1  C   UNL     1      34.520 -15.143 -21.803  0.00  0.00    +0.133 C 
ENDROOT
BRANCH   1   2
ATOM      2  O   UNL     1      34.804 -14.897 -20.422  0.00  0.00    -0.383 OA
ATOM      3  H   UNL     1      33.974 -14.739 -19.945  0.00  0.00    +0.210 HD
ENDBRANCH   1   2
BRANCH   1   4
ATOM      4  C   UNL     1      34.916 -16.586 -22.123  0.00  0.00    -0.048 C 
BRANCH   4   5
ATOM      5  N   UNL     1      34.267 -17.539 -21.238  0.00  0.00    +0.388 N 
ATOM      6  H   UNL     1      34.446 -17.274 -20.270  0.00  0.00    -0.084 HD
ATOM      7  H   UNL     1      33.264 -17.532 -21.425  0.00  0.00    -0.084 HD
BRANCH   5   8
ATOM      8  C   UNL     1      34.781 -18.892 -21.470  0.00  0.00    -0.046 C 
ATOM      9  C   UNL     1      34.677 -19.205 -22.966  0.00  0.00    -0.022 C 
ATOM     10  C   UNL     1      36.247 -18.940 -21.024  0.00  0.00    -0.022 C 
ATOM     11  C   UNL     1      33.952 -19.897 -20.661  0.00  0.00    -0.022 C 
ENDBRANCH   5   8
ENDBRANCH   4   5
ENDBRANCH   1   4
BRANCH   1  12
ATOM     12  C   UNL     1      33.042 -14.851 -22.058  0.00  0.00    +0.232 C 
BRANCH  12  13
ATOM     13  O   UNL     1      32.937 -13.911 -23.124  0.00  0.00    -0.472 OA
BRANCH  13  16
ATOM     14 CL   UNL     1      33.923 -11.802 -25.025  0.00  0.00    -0.079 Cl
ATOM     15 CL   UNL     1      30.670 -10.823 -19.797  0.00  0.00    -0.082 Cl
ATOM     16  C   UNL     1      32.625 -12.623 -22.780  0.00  0.00    +0.150 C 
ATOM     17  C   UNL     1      33.022 -11.552 -23.575  0.00  0.00    +0.092 C 
ATOM     18  C   UNL     1      31.899 -12.404 -21.613  0.00  0.00    +0.049 C 
ATOM     19  C   UNL     1      31.568 -11.102 -21.238  0.00  0.00    +0.061 C 
ATOM     20  C   UNL     1      32.691 -10.250 -23.200  0.00  0.00    +0.015 C 
ATOM     21  C   UNL     1      31.964 -10.025 -22.032  0.00  0.00    +0.012 C 
ENDBRANCH  13  16
ENDBRANCH  12  13
ENDBRANCH   1  12
TORSDOF 7
ENDMDL
