MODEL 1
REMARK VINA RESULT:     -10.5      0.000      0.000
REMARK  Name = 4806
REMARK  6 active torsions:
REMARK  status: ('A' for Active; 'I' for Inactive)
REMARK    1  A    between atoms: C_1  and  S_21
REMARK    2  A    between atoms: C_2  and  N_8
REMARK    3  A    between atoms: C_9  and  C_11
REMARK    4  A    between atoms: C_12  and  C_18
REMARK    5  A    between atoms: C_18  and  O_19
REMARK    6  A    between atoms: S_21  and  N_25
REMARK                            x       y       z     vdW  Elec       q    Type
REMARK                         _______ _______ _______ _____ _____    ______ ____
ROOT
ATOM      1  C   UNL     1      33.856 -21.971 -18.877  0.00  0.00    +0.125 C 
ATOM      2  C   UNL     1      33.948 -20.013 -20.832  0.00  0.00    +0.051 C 
ATOM      3  C   UNL     1      35.072 -21.639 -19.475  0.00  0.00    +0.021 C 
ATOM      4  C   UNL     1      32.688 -21.315 -19.263  0.00  0.00    +0.021 C 
ATOM      5  C   UNL     1      35.119 -20.653 -20.460  0.00  0.00    +0.016 C 
ATOM      6  C   UNL     1      32.733 -20.328 -20.248  0.00  0.00    +0.016 C 
ENDROOT
BRANCH   2   8
ATOM      7  O   UNL     1      35.231 -17.303 -20.801  0.00  0.00    -0.270 OA
ATOM      8  N   UNL     1      33.995 -19.012 -21.832  0.00  0.00    -0.280 N 
ATOM      9  C   UNL     1      34.609 -17.754 -21.776  0.00  0.00    +0.250 C 
ATOM     10  H   UNL     1      33.538 -19.227 -22.676  0.00  0.00    +0.155 HD
BRANCH   9  11
ATOM     11  C   UNL     1      34.464 -16.923 -22.965  0.00  0.00    +0.060 C 
ATOM     12  C   UNL     1      33.834 -15.681 -22.908  0.00  0.00    +0.080 C 
ATOM     13  C   UNL     1      34.970 -17.395 -24.177  0.00  0.00    +0.005 C 
ATOM     14  C   UNL     1      33.710 -14.908 -24.063  0.00  0.00    +0.007 C 
ATOM     15  C   UNL     1      34.846 -16.623 -25.331  0.00  0.00    +0.000 C 
ATOM     16  C   UNL     1      34.216 -15.380 -25.275  0.00  0.00    +0.000 C 
BRANCH  12  18
ATOM     17  O   UNL     1      32.124 -15.279 -21.284  0.00  0.00    -0.245 OA
ATOM     18  C   UNL     1      33.294 -15.162 -21.659  0.00  0.00    +0.338 C 
BRANCH  18  19
ATOM     19  O   UNL     1      34.234 -14.517 -20.916  0.00  0.00    -0.477 OA
ATOM     20  H   UNL     1      34.202 -13.585 -20.826  0.00  0.00    +0.295 HD
ENDBRANCH  18  19
ENDBRANCH  12  18
ENDBRANCH   9  11
ENDBRANCH   2   8
BRANCH   1  21
ATOM     21  S   UNL     1      33.798 -23.205 -17.644  0.00  0.00    +0.075 S 
ATOM     22  O   UNL     1      34.946 -23.010 -16.764  0.00  0.00    -0.150 OA
ATOM     23  O   UNL     1      33.618 -24.501 -18.287  0.00  0.00    -0.150 OA
BRANCH  21  25
ATOM     24  S   UNL     1      30.375 -24.005 -15.263  0.00  0.00    -0.050 S 
ATOM     25  N   UNL     1      32.374 -22.797 -16.763  0.00  0.00    -0.194 N 
ATOM     26  N   UNL     1      32.918 -24.132 -14.814  0.00  0.00    -0.221 NA
ATOM     27  C   UNL     1      32.016 -23.618 -15.638  0.00  0.00    +0.179 C 
ATOM     28  C   UNL     1      30.906 -24.919 -13.913  0.00  0.00    +0.059 C 
ATOM     29  C   UNL     1      32.283 -24.871 -13.835  0.00  0.00    +0.108 C 
ATOM     30  H   UNL     1      31.821 -22.025 -17.023  0.00  0.00    +0.176 HD
ENDBRANCH  21  25
ENDBRANCH   1  21
TORSDOF 6
ENDMDL
MODEL 2
REMARK VINA RESULT:     -10.4      1.338      2.026
REMARK  Name = 4806
REMARK  6 active torsions:
REMARK  status: ('A' for Active; 'I' for Inactive)
REMARK    1  A    between atoms: C_1  and  S_21
REMARK    2  A    between atoms: C_2  and  N_8
REMARK    3  A    between atoms: C_9  and  C_11
REMARK    4  A    between atoms: C_12  and  C_18
REMARK    5  A    between atoms: C_18  and  O_19
REMARK    6  A    between atoms: S_21  and  N_25
REMARK                            x       y       z     vdW  Elec       q    Type
REMARK                         _______ _______ _______ _____ _____    ______ ____
ROOT
ATOM      1  C   UNL     1      33.901 -21.540 -19.343  0.00  0.00    +0.125 C 
ATOM      2  C   UNL     1      33.897 -19.281 -20.944  0.00  0.00    +0.051 C 
ATOM      3  C   UNL     1      35.102 -21.039 -19.846  0.00  0.00    +0.021 C 
ATOM      4  C   UNL     1      32.699 -20.903 -19.646  0.00  0.00    +0.021 C 
ATOM      5  C   UNL     1      35.100 -19.901 -20.653  0.00  0.00    +0.016 C 
ATOM      6  C   UNL     1      32.696 -19.764 -20.453  0.00  0.00    +0.016 C 
ENDROOT
BRANCH   2   8
ATOM      7  O   UNL     1      35.116 -16.581 -20.488  0.00  0.00    -0.270 OA
ATOM      8  N   UNL     1      33.894 -18.127 -21.763  0.00  0.00    -0.280 N 
ATOM      9  C   UNL     1      34.479 -16.879 -21.510  0.00  0.00    +0.250 C 
ATOM     10  H   UNL     1      33.421 -18.211 -22.622  0.00  0.00    +0.155 HD
BRANCH   9  11
ATOM     11  C   UNL     1      34.284 -15.866 -22.540  0.00  0.00    +0.060 C 
ATOM     12  C   UNL     1      34.402 -16.178 -23.894  0.00  0.00    +0.080 C 
ATOM     13  C   UNL     1      33.972 -14.564 -22.149  0.00  0.00    +0.005 C 
ATOM     14  C   UNL     1      34.208 -15.188 -24.857  0.00  0.00    +0.007 C 
ATOM     15  C   UNL     1      33.778 -13.575 -23.111  0.00  0.00    +0.000 C 
ATOM     16  C   UNL     1      33.896 -13.886 -24.466  0.00  0.00    +0.000 C 
BRANCH  12  18
ATOM     17  O   UNL     1      34.027 -18.226 -25.071  0.00  0.00    -0.245 OA
ATOM     18  C   UNL     1      34.728 -17.528 -24.335  0.00  0.00    +0.338 C 
BRANCH  18  19
ATOM     19  O   UNL     1      35.922 -17.959 -23.844  0.00  0.00    -0.477 OA
ATOM     20  H   UNL     1      35.983 -18.796 -23.427  0.00  0.00    +0.295 HD
ENDBRANCH  18  19
ENDBRANCH  12  18
ENDBRANCH   9  11
ENDBRANCH   2   8
BRANCH   1  21
ATOM     21  S   UNL     1      33.904 -22.964 -18.333  0.00  0.00    +0.075 S 
ATOM     22  O   UNL     1      35.024 -22.848 -17.405  0.00  0.00    -0.150 OA
ATOM     23  O   UNL     1      33.818 -24.143 -19.186  0.00  0.00    -0.150 OA
BRANCH  21  25
ATOM     24  S   UNL     1      30.881 -24.206 -15.625  0.00  0.00    -0.050 S 
ATOM     25  N   UNL     1      32.444 -22.796 -17.434  0.00  0.00    -0.194 N 
ATOM     26  N   UNL     1      33.373 -23.582 -15.337  0.00  0.00    -0.221 NA
ATOM     27  C   UNL     1      32.347 -23.474 -16.169  0.00  0.00    +0.179 C 
ATOM     28  C   UNL     1      31.670 -24.699 -14.185  0.00  0.00    +0.059 C 
ATOM     29  C   UNL     1      32.984 -24.280 -14.211  0.00  0.00    +0.108 C 
ATOM     30  H   UNL     1      31.698 -22.253 -17.776  0.00  0.00    +0.176 HD
ENDBRANCH  21  25
ENDBRANCH   1  21
TORSDOF 6
ENDMDL
MODEL 3
REMARK VINA RESULT:     -10.3      2.947      3.659
REMARK  Name = 4806
REMARK  6 active torsions:
REMARK  status: ('A' for Active; 'I' for Inactive)
REMARK    1  A    between atoms: C_1  and  S_21
REMARK    2  A    between atoms: C_2  and  N_8
REMARK    3  A    between atoms: C_9  and  C_11
REMARK    4  A    between atoms: C_12  and  C_18
REMARK    5  A    between atoms: C_18  and  O_19
REMARK    6  A    between atoms: S_21  and  N_25
REMARK                            x       y       z     vdW  Elec       q    Type
REMARK                         _______ _______ _______ _____ _____    ______ ____
ROOT
ATOM      1  C   UNL     1      34.883 -22.868 -17.047  0.00  0.00    +0.125 C 
ATOM      2  C   UNL     1      34.984 -21.291 -19.321  0.00  0.00    +0.051 C 
ATOM      3  C   UNL     1      33.760 -22.751 -17.866  0.00  0.00    +0.021 C 
ATOM      4  C   UNL     1      36.057 -22.191 -17.375  0.00  0.00    +0.021 C 
ATOM      5  C   UNL     1      33.810 -21.957 -19.011  0.00  0.00    +0.016 C 
ATOM      6  C   UNL     1      36.109 -21.396 -18.521  0.00  0.00    +0.016 C 
ENDROOT
BRANCH   2   8
ATOM      7  O   UNL     1      32.929 -19.448 -20.491  0.00  0.00    -0.270 OA
ATOM      8  N   UNL     1      35.036 -20.484 -20.483  0.00  0.00    -0.280 N 
ATOM      9  C   UNL     1      34.047 -19.633 -20.996  0.00  0.00    +0.250 C 
ATOM     10  H   UNL     1      35.873 -20.525 -20.997  0.00  0.00    +0.155 HD
BRANCH   9  11
ATOM     11  C   UNL     1      34.384 -18.946 -22.236  0.00  0.00    +0.060 C 
ATOM     12  C   UNL     1      34.543 -17.562 -22.277  0.00  0.00    +0.080 C 
ATOM     13  C   UNL     1      34.549 -19.702 -23.397  0.00  0.00    +0.005 C 
ATOM     14  C   UNL     1      34.866 -16.932 -23.479  0.00  0.00    +0.007 C 
ATOM     15  C   UNL     1      34.872 -19.073 -24.598  0.00  0.00    +0.000 C 
ATOM     16  C   UNL     1      35.031 -17.688 -24.640  0.00  0.00    +0.000 C 
BRANCH  12  18
ATOM     17  O   UNL     1      35.265 -16.480 -20.269  0.00  0.00    -0.245 OA
ATOM     18  C   UNL     1      34.376 -16.744 -21.083  0.00  0.00    +0.338 C 
BRANCH  18  19
ATOM     19  O   UNL     1      33.104 -16.280 -20.946  0.00  0.00    -0.477 OA
ATOM     20  H   UNL     1      32.655 -15.919 -21.685  0.00  0.00    +0.295 HD
ENDBRANCH  18  19
ENDBRANCH  12  18
ENDBRANCH   9  11
ENDBRANCH   2   8
BRANCH   1  21
ATOM     21  S   UNL     1      34.820 -23.862 -15.614  0.00  0.00    +0.075 S 
ATOM     22  O   UNL     1      35.624 -25.054 -15.863  0.00  0.00    -0.150 OA
ATOM     23  O   UNL     1      33.426 -24.025 -15.219  0.00  0.00    -0.150 OA
BRANCH  21  25
ATOM     24  S   UNL     1      36.942 -23.153 -12.006  0.00  0.00    -0.050 S 
ATOM     25  N   UNL     1      35.641 -22.898 -14.444  0.00  0.00    -0.194 N 
ATOM     26  N   UNL     1      37.529 -24.398 -14.194  0.00  0.00    -0.221 NA
ATOM     27  C   UNL     1      36.689 -23.514 -13.676  0.00  0.00    +0.179 C 
ATOM     28  C   UNL     1      38.259 -24.250 -11.976  0.00  0.00    +0.059 C 
ATOM     29  C   UNL     1      38.420 -24.814 -13.224  0.00  0.00    +0.108 C 
ATOM     30  H   UNL     1      35.399 -21.954 -14.306  0.00  0.00    +0.176 HD
ENDBRANCH  21  25
ENDBRANCH   1  21
TORSDOF 6
ENDMDL
MODEL 4
REMARK VINA RESULT:     -10.3      4.368      9.899
REMARK  Name = 4806
REMARK  6 active torsions:
REMARK  status: ('A' for Active; 'I' for Inactive)
REMARK    1  A    between atoms: C_1  and  S_21
REMARK    2  A    between atoms: C_2  and  N_8
REMARK    3  A    between atoms: C_9  and  C_11
REMARK    4  A    between atoms: C_12  and  C_18
REMARK    5  A    between atoms: C_18  and  O_19
REMARK    6  A    between atoms: S_21  and  N_25
REMARK                            x       y       z     vdW  Elec       q    Type
REMARK                         _______ _______ _______ _____ _____    ______ ____
ROOT
ATOM      1  C   UNL     1      34.548 -17.722 -23.494  0.00  0.00    +0.125 C 
ATOM      2  C   UNL     1      34.936 -19.199 -21.184  0.00  0.00    +0.051 C 
ATOM      3  C   UNL     1      34.515 -19.116 -23.543  0.00  0.00    +0.021 C 
ATOM      4  C   UNL     1      34.776 -17.073 -22.281  0.00  0.00    +0.021 C 
ATOM      5  C   UNL     1      34.711 -19.860 -22.380  0.00  0.00    +0.016 C 
ATOM      6  C   UNL     1      34.971 -17.816 -21.116  0.00  0.00    +0.016 C 
ENDROOT
BRANCH   2   8
ATOM      7  O   UNL     1      36.838 -21.447 -20.620  0.00  0.00    -0.270 OA
ATOM      8  N   UNL     1      35.135 -19.954 -20.003  0.00  0.00    -0.280 N 
ATOM      9  C   UNL     1      36.040 -21.001 -19.782  0.00  0.00    +0.250 C 
ATOM     10  H   UNL     1      34.565 -19.712 -19.239  0.00  0.00    +0.155 HD
BRANCH   9  11
ATOM     11  C   UNL     1      35.994 -21.608 -18.458  0.00  0.00    +0.060 C 
ATOM     12  C   UNL     1      34.931 -22.422 -18.071  0.00  0.00    +0.080 C 
ATOM     13  C   UNL     1      37.043 -21.362 -17.572  0.00  0.00    +0.005 C 
ATOM     14  C   UNL     1      34.915 -22.990 -16.797  0.00  0.00    +0.007 C 
ATOM     15  C   UNL     1      37.028 -21.930 -16.299  0.00  0.00    +0.000 C 
ATOM     16  C   UNL     1      35.964 -22.743 -15.910  0.00  0.00    +0.000 C 
BRANCH  12  18
ATOM     17  O   UNL     1      32.859 -21.948 -19.169  0.00  0.00    -0.245 OA
ATOM     18  C   UNL     1      33.820 -22.697 -18.972  0.00  0.00    +0.338 C 
BRANCH  18  19
ATOM     19  O   UNL     1      33.948 -23.896 -19.602  0.00  0.00    -0.477 OA
ATOM     20  H   UNL     1      33.802 -24.691 -19.129  0.00  0.00    +0.295 HD
ENDBRANCH  18  19
ENDBRANCH  12  18
ENDBRANCH   9  11
ENDBRANCH   2   8
BRANCH   1  21
ATOM     21  S   UNL     1      34.303 -16.791 -24.950  0.00  0.00    +0.075 S 
ATOM     22  O   UNL     1      33.358 -17.519 -25.790  0.00  0.00    -0.150 OA
ATOM     23  O   UNL     1      35.604 -16.435 -25.502  0.00  0.00    -0.150 OA
BRANCH  21  25
ATOM     24  S   UNL     1      33.661 -12.610 -24.594  0.00  0.00    -0.050 S 
ATOM     25  N   UNL     1      33.517 -15.372 -24.367  0.00  0.00    -0.194 N 
ATOM     26  N   UNL     1      33.355 -14.293 -26.532  0.00  0.00    -0.221 NA
ATOM     27  C   UNL     1      33.498 -14.212 -25.217  0.00  0.00    +0.179 C 
ATOM     28  C   UNL     1      33.532 -11.985 -26.185  0.00  0.00    +0.059 C 
ATOM     29  C   UNL     1      33.374 -13.025 -27.078  0.00  0.00    +0.108 C 
ATOM     30  H   UNL     1      33.094 -15.356 -23.478  0.00  0.00    +0.176 HD
ENDBRANCH  21  25
ENDBRANCH   1  21
TORSDOF 6
ENDMDL
MODEL 5
REMARK VINA RESULT:     -10.1      1.910      2.389
REMARK  Name = 4806
REMARK  6 active torsions:
REMARK  status: ('A' for Active; 'I' for Inactive)
REMARK    1  A    between atoms: C_1  and  S_21
REMARK    2  A    between atoms: C_2  and  N_8
REMARK    3  A    between atoms: C_9  and  C_11
REMARK    4  A    between atoms: C_12  and  C_18
REMARK    5  A    between atoms: C_18  and  O_19
REMARK    6  A    between atoms: S_21  and  N_25
REMARK                            x       y       z     vdW  Elec       q    Type
REMARK                         _______ _______ _______ _____ _____    ______ ____
ROOT
ATOM      1  C   UNL     1      33.949 -21.957 -18.727  0.00  0.00    +0.125 C 
ATOM      2  C   UNL     1      34.012 -20.073 -20.755  0.00  0.00    +0.051 C 
ATOM      3  C   UNL     1      32.763 -21.371 -19.173  0.00  0.00    +0.021 C 
ATOM      4  C   UNL     1      35.165 -21.594 -19.305  0.00  0.00    +0.021 C 
ATOM      5  C   UNL     1      32.795 -20.422 -20.193  0.00  0.00    +0.016 C 
ATOM      6  C   UNL     1      35.198 -20.645 -20.327  0.00  0.00    +0.016 C 
ENDROOT
BRANCH   2   8
ATOM      7  O   UNL     1      35.318 -17.376 -20.850  0.00  0.00    -0.270 OA
ATOM      8  N   UNL     1      34.044 -19.109 -21.791  0.00  0.00    -0.280 N 
ATOM      9  C   UNL     1      34.670 -17.855 -21.794  0.00  0.00    +0.250 C 
ATOM     10  H   UNL     1      33.567 -19.350 -22.617  0.00  0.00    +0.155 HD
BRANCH   9  11
ATOM     11  C   UNL     1      34.505 -17.067 -23.009  0.00  0.00    +0.060 C 
ATOM     12  C   UNL     1      33.874 -15.824 -22.985  0.00  0.00    +0.080 C 
ATOM     13  C   UNL     1      34.993 -17.579 -24.211  0.00  0.00    +0.005 C 
ATOM     14  C   UNL     1      33.731 -15.092 -24.164  0.00  0.00    +0.007 C 
ATOM     15  C   UNL     1      34.850 -16.847 -25.389  0.00  0.00    +0.000 C 
ATOM     16  C   UNL     1      34.219 -15.604 -25.366  0.00  0.00    +0.000 C 
BRANCH  12  18
ATOM     17  O   UNL     1      32.186 -15.356 -21.356  0.00  0.00    -0.245 OA
ATOM     18  C   UNL     1      33.352 -15.262 -21.746  0.00  0.00    +0.338 C 
BRANCH  18  19
ATOM     19  O   UNL     1      34.307 -14.605 -21.033  0.00  0.00    -0.477 OA
ATOM     20  H   UNL     1      35.119 -14.374 -21.438  0.00  0.00    +0.295 HD
ENDBRANCH  18  19
ENDBRANCH  12  18
ENDBRANCH   9  11
ENDBRANCH   2   8
BRANCH   1  21
ATOM     21  S   UNL     1      33.909 -23.146 -17.450  0.00  0.00    +0.075 S 
ATOM     22  O   UNL     1      34.028 -24.464 -18.064  0.00  0.00    -0.150 OA
ATOM     23  O   UNL     1      32.763 -22.872 -16.592  0.00  0.00    -0.150 OA
BRANCH  21  25
ATOM     24  S   UNL     1      36.496 -23.243 -14.086  0.00  0.00    -0.050 S 
ATOM     25  N   UNL     1      35.365 -22.825 -16.585  0.00  0.00    -0.194 N 
ATOM     26  N   UNL     1      35.596 -25.064 -15.684  0.00  0.00    -0.221 NA
ATOM     27  C   UNL     1      35.763 -23.755 -15.563  0.00  0.00    +0.179 C 
ATOM     28  C   UNL     1      36.595 -24.877 -13.577  0.00  0.00    +0.059 C 
ATOM     29  C   UNL     1      36.070 -25.698 -14.553  0.00  0.00    +0.108 C 
ATOM     30  H   UNL     1      35.908 -22.029 -16.785  0.00  0.00    +0.176 HD
ENDBRANCH  21  25
ENDBRANCH   1  21
TORSDOF 6
ENDMDL
MODEL 6
REMARK VINA RESULT:     -10.1      2.138      3.072
REMARK  Name = 4806
REMARK  6 active torsions:
REMARK  status: ('A' for Active; 'I' for Inactive)
REMARK    1  A    between atoms: C_1  and  S_21
REMARK    2  A    between atoms: C_2  and  N_8
REMARK    3  A    between atoms: C_9  and  C_11
REMARK    4  A    between atoms: C_12  and  C_18
REMARK    5  A    between atoms: C_18  and  O_19
REMARK    6  A    between atoms: S_21  and  N_25
REMARK                            x       y       z     vdW  Elec       q    Type
REMARK                         _______ _______ _______ _____ _____    ______ ____
ROOT
ATOM      1  C   UNL     1      33.899 -21.242 -19.601  0.00  0.00    +0.125 C 
ATOM      2  C   UNL     1      33.811 -18.951 -21.154  0.00  0.00    +0.051 C 
ATOM      3  C   UNL     1      32.680 -20.606 -19.838  0.00  0.00    +0.021 C 
ATOM      4  C   UNL     1      35.072 -20.724 -20.147  0.00  0.00    +0.021 C 
ATOM      5  C   UNL     1      32.635 -19.452 -20.620  0.00  0.00    +0.016 C 
ATOM      6  C   UNL     1      35.029 -19.570 -20.930  0.00  0.00    +0.016 C 
ENDROOT
BRANCH   2   8
ATOM      7  O   UNL     1      35.002 -16.242 -20.675  0.00  0.00    -0.270 OA
ATOM      8  N   UNL     1      33.766 -17.780 -21.947  0.00  0.00    -0.280 N 
ATOM      9  C   UNL     1      34.340 -16.529 -21.684  0.00  0.00    +0.250 C 
ATOM     10  H   UNL     1      33.269 -17.852 -22.793  0.00  0.00    +0.155 HD
BRANCH   9  11
ATOM     11  C   UNL     1      34.099 -15.497 -22.686  0.00  0.00    +0.060 C 
ATOM     12  C   UNL     1      34.219 -15.769 -24.048  0.00  0.00    +0.080 C 
ATOM     13  C   UNL     1      33.741 -14.219 -22.258  0.00  0.00    +0.005 C 
ATOM     14  C   UNL     1      33.981 -14.762 -24.983  0.00  0.00    +0.007 C 
ATOM     15  C   UNL     1      33.502 -13.213 -23.193  0.00  0.00    +0.000 C 
ATOM     16  C   UNL     1      33.623 -13.483 -24.555  0.00  0.00    +0.000 C 
BRANCH  12  18
ATOM     17  O   UNL     1      33.939 -17.776 -25.320  0.00  0.00    -0.245 OA
ATOM     18  C   UNL     1      34.593 -17.093 -24.527  0.00  0.00    +0.338 C 
BRANCH  18  19
ATOM     19  O   UNL     1      35.773 -17.520 -24.001  0.00  0.00    -0.477 OA
ATOM     20  H   UNL     1      36.206 -17.009 -23.346  0.00  0.00    +0.295 HD
ENDBRANCH  18  19
ENDBRANCH  12  18
ENDBRANCH   9  11
ENDBRANCH   2   8
BRANCH   1  21
ATOM     21  S   UNL     1      33.954 -22.687 -18.623  0.00  0.00    +0.075 S 
ATOM     22  O   UNL     1      34.135 -23.824 -19.519  0.00  0.00    -0.150 OA
ATOM     23  O   UNL     1      32.813 -22.681 -17.716  0.00  0.00    -0.150 OA
BRANCH  21  25
ATOM     24  S   UNL     1      36.283 -22.342 -15.091  0.00  0.00    -0.050 S 
ATOM     25  N   UNL     1      35.408 -22.481 -17.721  0.00  0.00    -0.194 N 
ATOM     26  N   UNL     1      34.976 -24.293 -16.170  0.00  0.00    -0.221 NA
ATOM     27  C   UNL     1      35.494 -23.101 -16.426  0.00  0.00    +0.179 C 
ATOM     28  C   UNL     1      35.906 -23.695 -14.108  0.00  0.00    +0.059 C 
ATOM     29  C   UNL     1      35.212 -24.627 -14.851  0.00  0.00    +0.108 C 
ATOM     30  H   UNL     1      36.157 -21.953 -18.081  0.00  0.00    +0.176 HD
ENDBRANCH  21  25
ENDBRANCH   1  21
TORSDOF 6
ENDMDL
MODEL 7
REMARK VINA RESULT:     -10.0      1.654      2.373
REMARK  Name = 4806
REMARK  6 active torsions:
REMARK  status: ('A' for Active; 'I' for Inactive)
REMARK    1  A    between atoms: C_1  and  S_21
REMARK    2  A    between atoms: C_2  and  N_8
REMARK    3  A    between atoms: C_9  and  C_11
REMARK    4  A    between atoms: C_12  and  C_18
REMARK    5  A    between atoms: C_18  and  O_19
REMARK    6  A    between atoms: S_21  and  N_25
REMARK                            x       y       z     vdW  Elec       q    Type
REMARK                         _______ _______ _______ _____ _____    ______ ____
ROOT
ATOM      1  C   UNL     1      35.363 -22.642 -17.222  0.00  0.00    +0.125 C 
ATOM      2  C   UNL     1      35.286 -21.067 -19.498  0.00  0.00    +0.051 C 
ATOM      3  C   UNL     1      34.195 -22.571 -17.982  0.00  0.00    +0.021 C 
ATOM      4  C   UNL     1      36.491 -21.921 -17.610  0.00  0.00    +0.021 C 
ATOM      5  C   UNL     1      34.156 -21.777 -19.129  0.00  0.00    +0.016 C 
ATOM      6  C   UNL     1      36.454 -21.127 -18.757  0.00  0.00    +0.016 C 
ENDROOT
BRANCH   2   8
ATOM      7  O   UNL     1      33.050 -19.436 -20.649  0.00  0.00    -0.270 OA
ATOM      8  N   UNL     1      35.247 -20.261 -20.661  0.00  0.00    -0.280 N 
ATOM      9  C   UNL     1      34.175 -19.512 -21.165  0.00  0.00    +0.250 C 
ATOM     10  H   UNL     1      36.080 -20.221 -21.184  0.00  0.00    +0.155 HD
BRANCH   9  11
ATOM     11  C   UNL     1      34.431 -18.797 -22.409  0.00  0.00    +0.060 C 
ATOM     12  C   UNL     1      34.513 -17.406 -22.442  0.00  0.00    +0.080 C 
ATOM     13  C   UNL     1      34.596 -19.534 -23.583  0.00  0.00    +0.005 C 
ATOM     14  C   UNL     1      34.760 -16.750 -23.648  0.00  0.00    +0.007 C 
ATOM     15  C   UNL     1      34.842 -18.878 -24.788  0.00  0.00    +0.000 C 
ATOM     16  C   UNL     1      34.924 -17.486 -24.821  0.00  0.00    +0.000 C 
BRANCH  12  18
ATOM     17  O   UNL     1      35.237 -16.341 -20.426  0.00  0.00    -0.245 OA
ATOM     18  C   UNL     1      34.345 -16.609 -21.234  0.00  0.00    +0.338 C 
BRANCH  18  19
ATOM     19  O   UNL     1      33.067 -16.168 -21.079  0.00  0.00    -0.477 OA
ATOM     20  H   UNL     1      32.794 -15.800 -20.262  0.00  0.00    +0.295 HD
ENDBRANCH  18  19
ENDBRANCH  12  18
ENDBRANCH   9  11
ENDBRANCH   2   8
BRANCH   1  21
ATOM     21  S   UNL     1      35.411 -23.636 -15.788  0.00  0.00    +0.075 S 
ATOM     22  O   UNL     1      36.747 -23.523 -15.213  0.00  0.00    -0.150 OA
ATOM     23  O   UNL     1      34.899 -24.959 -16.118  0.00  0.00    -0.150 OA
BRANCH  21  25
ATOM     24  S   UNL     1      31.587 -22.713 -14.192  0.00  0.00    -0.050 S 
ATOM     25  N   UNL     1      34.306 -22.837 -14.733  0.00  0.00    -0.194 N 
ATOM     26  N   UNL     1      33.064 -24.834 -14.146  0.00  0.00    -0.221 NA
ATOM     27  C   UNL     1      33.099 -23.528 -14.370  0.00  0.00    +0.179 C 
ATOM     28  C   UNL     1      30.839 -24.202 -13.792  0.00  0.00    +0.059 C 
ATOM     29  C   UNL     1      31.777 -25.213 -13.818  0.00  0.00    +0.108 C 
ATOM     30  H   UNL     1      34.496 -21.934 -14.391  0.00  0.00    +0.176 HD
ENDBRANCH  21  25
ENDBRANCH   1  21
TORSDOF 6
ENDMDL
MODEL 8
REMARK VINA RESULT:      -9.8      3.599      9.663
REMARK  Name = 4806
REMARK  6 active torsions:
REMARK  status: ('A' for Active; 'I' for Inactive)
REMARK    1  A    between atoms: C_1  and  S_21
REMARK    2  A    between atoms: C_2  and  N_8
REMARK    3  A    between atoms: C_9  and  C_11
REMARK    4  A    between atoms: C_12  and  C_18
REMARK    5  A    between atoms: C_18  and  O_19
REMARK    6  A    between atoms: S_21  and  N_25
REMARK                            x       y       z     vdW  Elec       q    Type
REMARK                         _______ _______ _______ _____ _____    ______ ____
ROOT
ATOM      1  C   UNL     1      35.370 -19.764 -21.011  0.00  0.00    +0.125 C 
ATOM      2  C   UNL     1      35.723 -21.535 -18.912  0.00  0.00    +0.051 C 
ATOM      3  C   UNL     1      34.270 -20.421 -20.460  0.00  0.00    +0.021 C 
ATOM      4  C   UNL     1      36.648 -19.999 -20.504  0.00  0.00    +0.021 C 
ATOM      5  C   UNL     1      34.447 -21.313 -19.402  0.00  0.00    +0.016 C 
ATOM      6  C   UNL     1      36.827 -20.891 -19.446  0.00  0.00    +0.016 C 
ENDROOT
BRANCH   2   8
ATOM      7  O   UNL     1      37.225 -21.211 -16.337  0.00  0.00    -0.270 OA
ATOM      8  N   UNL     1      35.904 -22.440 -17.839  0.00  0.00    -0.280 N 
ATOM      9  C   UNL     1      36.617 -22.247 -16.648  0.00  0.00    +0.250 C 
ATOM     10  H   UNL     1      35.473 -23.319 -17.941  0.00  0.00    +0.155 HD
BRANCH   9  11
ATOM     11  C   UNL     1      36.647 -23.383 -15.736  0.00  0.00    +0.060 C 
ATOM     12  C   UNL     1      35.472 -23.931 -15.223  0.00  0.00    +0.080 C 
ATOM     13  C   UNL     1      37.883 -23.923 -15.378  0.00  0.00    +0.005 C 
ATOM     14  C   UNL     1      35.532 -25.020 -14.352  0.00  0.00    +0.007 C 
ATOM     15  C   UNL     1      37.942 -25.010 -14.508  0.00  0.00    +0.000 C 
ATOM     16  C   UNL     1      36.768 -25.559 -13.995  0.00  0.00    +0.000 C 
BRANCH  12  18
ATOM     17  O   UNL     1      33.592 -23.559 -16.655  0.00  0.00    -0.245 OA
ATOM     18  C   UNL     1      34.166 -23.390 -15.576  0.00  0.00    +0.338 C 
BRANCH  18  19
ATOM     19  O   UNL     1      33.619 -22.658 -14.567  0.00  0.00    -0.477 OA
ATOM     20  H   UNL     1      34.172 -22.249 -13.932  0.00  0.00    +0.295 HD
ENDBRANCH  18  19
ENDBRANCH  12  18
ENDBRANCH   9  11
ENDBRANCH   2   8
BRANCH   1  21
ATOM     21  S   UNL     1      35.148 -18.648 -22.334  0.00  0.00    +0.075 S 
ATOM     22  O   UNL     1      34.322 -19.307 -23.339  0.00  0.00    -0.150 OA
ATOM     23  O   UNL     1      36.450 -18.124 -22.728  0.00  0.00    -0.150 OA
BRANCH  21  25
ATOM     24  S   UNL     1      34.128 -14.619 -21.469  0.00  0.00    -0.050 S 
ATOM     25  N   UNL     1      34.214 -17.388 -21.618  0.00  0.00    -0.194 N 
ATOM     26  N   UNL     1      34.064 -16.040 -23.627  0.00  0.00    -0.221 NA
ATOM     27  C   UNL     1      34.135 -16.129 -22.306  0.00  0.00    +0.179 C 
ATOM     28  C   UNL     1      34.022 -13.795 -22.969  0.00  0.00    +0.059 C 
ATOM     29  C   UNL     1      34.000 -14.713 -23.999  0.00  0.00    +0.108 C 
ATOM     30  H   UNL     1      33.749 -17.528 -20.761  0.00  0.00    +0.176 HD
ENDBRANCH  21  25
ENDBRANCH   1  21
TORSDOF 6
ENDMDL
MODEL 9
REMARK VINA RESULT:      -9.8      3.739      6.161
REMARK  Name = 4806
REMARK  6 active torsions:
REMARK  status: ('A' for Active; 'I' for Inactive)
REMARK    1  A    between atoms: C_1  and  S_21
REMARK    2  A    between atoms: C_2  and  N_8
REMARK    3  A    between atoms: C_9  and  C_11
REMARK    4  A    between atoms: C_12  and  C_18
REMARK    5  A    between atoms: C_18  and  O_19
REMARK    6  A    between atoms: S_21  and  N_25
REMARK                            x       y       z     vdW  Elec       q    Type
REMARK                         _______ _______ _______ _____ _____    ______ ____
ROOT
ATOM      1  C   UNL     1      34.964 -17.233 -22.265  0.00  0.00    +0.125 C 
ATOM      2  C   UNL     1      34.404 -14.530 -22.477  0.00  0.00    +0.051 C 
ATOM      3  C   UNL     1      34.919 -16.626 -23.520  0.00  0.00    +0.021 C 
ATOM      4  C   UNL     1      34.728 -16.478 -21.117  0.00  0.00    +0.021 C 
ATOM      5  C   UNL     1      34.637 -15.265 -23.627  0.00  0.00    +0.016 C 
ATOM      6  C   UNL     1      34.446 -15.115 -21.223  0.00  0.00    +0.016 C 
ENDROOT
BRANCH   2   8
ATOM      7  O   UNL     1      32.001 -13.132 -23.600  0.00  0.00    -0.270 OA
ATOM      8  N   UNL     1      34.118 -13.148 -22.585  0.00  0.00    -0.280 N 
ATOM      9  C   UNL     1      32.976 -12.535 -23.119  0.00  0.00    +0.250 C 
ATOM     10  H   UNL     1      34.808 -12.538 -22.239  0.00  0.00    +0.155 HD
BRANCH   9  11
ATOM     11  C   UNL     1      32.980 -11.077 -23.116  0.00  0.00    +0.060 C 
ATOM     12  C   UNL     1      32.227 -10.353 -22.193  0.00  0.00    +0.080 C 
ATOM     13  C   UNL     1      33.756 -10.408 -24.062  0.00  0.00    +0.005 C 
ATOM     14  C   UNL     1      32.251  -8.958 -22.214  0.00  0.00    +0.007 C 
ATOM     15  C   UNL     1      33.780  -9.014 -24.083  0.00  0.00    +0.000 C 
ATOM     16  C   UNL     1      33.027  -8.289 -23.160  0.00  0.00    +0.000 C 
BRANCH  12  18
ATOM     17  O   UNL     1      31.702 -11.166 -20.005  0.00  0.00    -0.245 OA
ATOM     18  C   UNL     1      31.405 -11.023 -21.194  0.00  0.00    +0.338 C 
BRANCH  18  19
ATOM     19  O   UNL     1      30.236 -11.488 -21.712  0.00  0.00    -0.477 OA
ATOM     20  H   UNL     1      30.246 -12.185 -22.339  0.00  0.00    +0.295 HD
ENDBRANCH  18  19
ENDBRANCH  12  18
ENDBRANCH   9  11
ENDBRANCH   2   8
BRANCH   1  21
ATOM     21  S   UNL     1      35.317 -18.937 -22.132  0.00  0.00    +0.075 S 
ATOM     22  O   UNL     1      36.671 -19.071 -21.605  0.00  0.00    -0.150 OA
ATOM     23  O   UNL     1      34.988 -19.584 -23.396  0.00  0.00    -0.150 OA
BRANCH  21  25
ATOM     24  S   UNL     1      33.539 -21.745 -19.491  0.00  0.00    -0.050 S 
ATOM     25  N   UNL     1      34.215 -19.461 -20.914  0.00  0.00    -0.194 N 
ATOM     26  N   UNL     1      35.873 -20.639 -19.595  0.00  0.00    -0.221 NA
ATOM     27  C   UNL     1      34.630 -20.524 -20.039  0.00  0.00    +0.179 C 
ATOM     28  C   UNL     1      34.812 -22.474 -18.603  0.00  0.00    +0.059 C 
ATOM     29  C   UNL     1      35.972 -21.749 -18.779  0.00  0.00    +0.108 C 
ATOM     30  H   UNL     1      33.328 -19.044 -20.821  0.00  0.00    +0.176 HD
ENDBRANCH  21  25
ENDBRANCH   1  21
TORSDOF 6
ENDMDL
