MODEL 1
REMARK VINA RESULT:      -6.4      0.000      0.000
REMARK  Name = 1137
REMARK  6 active torsions:
REMARK  status: ('A' for Active; 'I' for Inactive)
REMARK    1  A    between atoms: C_1  and  O_2
REMARK    2  A    between atoms: C_1  and  C_9
REMARK    3  A    between atoms: O_2  and  P_3
REMARK    4  A    between atoms: P_3  and  O_5
REMARK    5  A    between atoms: P_3  and  O_7
REMARK    6  A    between atoms: C_9  and  C_12
REMARK                            x       y       z     vdW  Elec       q    Type
REMARK                         _______ _______ _______ _____ _____    ______ ____
ROOT
ATOM      1  C   UNL     1      37.813 -26.139 -14.872  0.00  0.00    +0.155 C 
ENDROOT
BRANCH   1   2
ATOM      2  O   UNL     1      38.930 -26.483 -14.070  0.00  0.00    -0.273 OA
BRANCH   2   3
ATOM      3  P   UNL     1      40.384 -25.898 -14.480  0.00  0.00    +0.473 P 
ATOM      4  O   UNL     1      40.729 -24.573 -13.868  0.00  0.00    -0.227 OA
BRANCH   3   5
ATOM      5  O   UNL     1      40.368 -25.930 -16.097  0.00  0.00    -0.303 OA
ATOM      6  H   UNL     1      39.619 -26.467 -16.402  0.00  0.00    +0.222 HD
ENDBRANCH   3   5
BRANCH   3   7
ATOM      7  O   UNL     1      41.382 -27.110 -14.094  0.00  0.00    -0.303 OA
ATOM      8  H   UNL     1      42.166 -26.754 -13.648  0.00  0.00    +0.222 HD
ENDBRANCH   3   7
ENDBRANCH   2   3
ENDBRANCH   1   2
BRANCH   1   9
ATOM      9  C   UNL     1      37.437 -24.673 -14.678  0.00  0.00    +0.049 C 
BRANCH   9  12
ATOM     10  S   UNL     1      37.342 -24.307 -11.934  0.00  0.00    -0.109 S 
ATOM     11  N   UNL     1      34.765 -24.179 -12.062  0.00  0.00    -0.266 NA
ATOM     12  C   UNL     1      36.588 -24.463 -13.447  0.00  0.00    +0.087 C 
ATOM     13  C   UNL     1      35.237 -24.374 -13.345  0.00  0.00    +0.043 C 
ATOM     14  C   UNL     1      34.253 -24.463 -14.442  0.00  0.00    +0.048 C 
ATOM     15  C   UNL     1      35.786 -24.128 -11.236  0.00  0.00    +0.183 C 
ENDBRANCH   9  12
ENDBRANCH   1   9
TORSDOF 6
ENDMDL
MODEL 2
REMARK VINA RESULT:      -6.4      1.928      2.726
REMARK  Name = 1137
REMARK  6 active torsions:
REMARK  status: ('A' for Active; 'I' for Inactive)
REMARK    1  A    between atoms: C_1  and  O_2
REMARK    2  A    between atoms: C_1  and  C_9
REMARK    3  A    between atoms: O_2  and  P_3
REMARK    4  A    between atoms: P_3  and  O_5
REMARK    5  A    between atoms: P_3  and  O_7
REMARK    6  A    between atoms: C_9  and  C_12
REMARK                            x       y       z     vdW  Elec       q    Type
REMARK                         _______ _______ _______ _____ _____    ______ ____
ROOT
ATOM      1  C   UNL     1      38.405 -24.782 -12.947  0.00  0.00    +0.155 C 
ENDROOT
BRANCH   1   2
ATOM      2  O   UNL     1      39.523 -24.664 -13.812  0.00  0.00    -0.273 OA
BRANCH   2   3
ATOM      3  P   UNL     1      40.047 -25.989 -14.582  0.00  0.00    +0.473 P 
ATOM      4  O   UNL     1      41.261 -26.633 -13.980  0.00  0.00    -0.227 OA
BRANCH   3   5
ATOM      5  O   UNL     1      40.210 -25.502 -16.115  0.00  0.00    -0.303 OA
ATOM      6  H   UNL     1      39.412 -25.736 -16.615  0.00  0.00    +0.222 HD
ENDBRANCH   3   5
BRANCH   3   7
ATOM      7  O   UNL     1      38.729 -26.925 -14.627  0.00  0.00    -0.303 OA
ATOM      8  H   UNL     1      38.531 -27.248 -13.734  0.00  0.00    +0.222 HD
ENDBRANCH   3   7
ENDBRANCH   2   3
ENDBRANCH   1   2
BRANCH   1   9
ATOM      9  C   UNL     1      37.532 -23.532 -13.016  0.00  0.00    +0.049 C 
BRANCH   9  12
ATOM     10  S   UNL     1      34.956 -24.285 -13.698  0.00  0.00    -0.109 S 
ATOM     11  N   UNL     1      35.392 -23.504 -16.122  0.00  0.00    -0.266 NA
ATOM     12  C   UNL     1      36.475 -23.637 -14.089  0.00  0.00    +0.087 C 
ATOM     13  C   UNL     1      36.545 -23.275 -15.396  0.00  0.00    +0.043 C 
ATOM     14  C   UNL     1      37.700 -22.678 -16.095  0.00  0.00    +0.048 C 
ATOM     15  C   UNL     1      34.488 -24.034 -15.330  0.00  0.00    +0.183 C 
ENDBRANCH   9  12
ENDBRANCH   1   9
TORSDOF 6
ENDMDL
MODEL 3
REMARK VINA RESULT:      -6.2      1.264      2.237
REMARK  Name = 1137
REMARK  6 active torsions:
REMARK  status: ('A' for Active; 'I' for Inactive)
REMARK    1  A    between atoms: C_1  and  O_2
REMARK    2  A    between atoms: C_1  and  C_9
REMARK    3  A    between atoms: O_2  and  P_3
REMARK    4  A    between atoms: P_3  and  O_5
REMARK    5  A    between atoms: P_3  and  O_7
REMARK    6  A    between atoms: C_9  and  C_12
REMARK                            x       y       z     vdW  Elec       q    Type
REMARK                         _______ _______ _______ _____ _____    ______ ____
ROOT
ATOM      1  C   UNL     1      37.985 -25.356 -14.716  0.00  0.00    +0.155 C 
ENDROOT
BRANCH   1   2
ATOM      2  O   UNL     1      38.988 -26.041 -13.984  0.00  0.00    -0.273 OA
BRANCH   2   3
ATOM      3  P   UNL     1      40.515 -25.972 -14.518  0.00  0.00    +0.473 P 
ATOM      4  O   UNL     1      41.409 -27.072 -14.025  0.00  0.00    -0.227 OA
BRANCH   3   5
ATOM      5  O   UNL     1      40.989 -24.473 -14.136  0.00  0.00    -0.303 OA
ATOM      6  H   UNL     1      41.199 -23.984 -14.947  0.00  0.00    +0.222 HD
ENDBRANCH   3   5
BRANCH   3   7
ATOM      7  O   UNL     1      40.334 -25.907 -16.123  0.00  0.00    -0.303 OA
ATOM      8  H   UNL     1      40.475 -24.997 -16.428  0.00  0.00    +0.222 HD
ENDBRANCH   3   7
ENDBRANCH   2   3
ENDBRANCH   1   2
BRANCH   1   9
ATOM      9  C   UNL     1      37.481 -24.143 -13.939  0.00  0.00    +0.049 C 
BRANCH   9  12
ATOM     10  S   UNL     1      34.978 -24.079 -15.123  0.00  0.00    -0.109 S 
ATOM     11  N   UNL     1      33.892 -24.254 -12.785  0.00  0.00    -0.266 NA
ATOM     12  C   UNL     1      35.982 -24.168 -13.757  0.00  0.00    +0.087 C 
ATOM     13  C   UNL     1      35.262 -24.256 -12.609  0.00  0.00    +0.043 C 
ATOM     14  C   UNL     1      35.787 -24.349 -11.233  0.00  0.00    +0.048 C 
ATOM     15  C   UNL     1      33.627 -24.165 -14.069  0.00  0.00    +0.183 C 
ENDBRANCH   9  12
ENDBRANCH   1   9
TORSDOF 6
ENDMDL
MODEL 4
REMARK VINA RESULT:      -6.2      7.811      8.869
REMARK  Name = 1137
REMARK  6 active torsions:
REMARK  status: ('A' for Active; 'I' for Inactive)
REMARK    1  A    between atoms: C_1  and  O_2
REMARK    2  A    between atoms: C_1  and  C_9
REMARK    3  A    between atoms: O_2  and  P_3
REMARK    4  A    between atoms: P_3  and  O_5
REMARK    5  A    between atoms: P_3  and  O_7
REMARK    6  A    between atoms: C_9  and  C_12
REMARK                            x       y       z     vdW  Elec       q    Type
REMARK                         _______ _______ _______ _____ _____    ______ ____
ROOT
ATOM      1  C   UNL     1      30.366 -23.966 -15.594  0.00  0.00    +0.155 C 
ENDROOT
BRANCH   1   2
ATOM      2  O   UNL     1      29.065 -23.607 -15.160  0.00  0.00    -0.273 OA
BRANCH   2   3
ATOM      3  P   UNL     1      28.013 -23.045 -16.255  0.00  0.00    +0.473 P 
ATOM      4  O   UNL     1      26.727 -22.521 -15.686  0.00  0.00    -0.227 OA
BRANCH   3   5
ATOM      5  O   UNL     1      27.858 -24.269 -17.301  0.00  0.00    -0.303 OA
ATOM      6  H   UNL     1      28.505 -24.960 -17.087  0.00  0.00    +0.222 HD
ENDBRANCH   3   5
BRANCH   3   7
ATOM      7  O   UNL     1      28.889 -21.962 -17.074  0.00  0.00    -0.303 OA
ATOM      8  H   UNL     1      28.513 -21.077 -16.947  0.00  0.00    +0.222 HD
ENDBRANCH   3   7
ENDBRANCH   2   3
ENDBRANCH   1   2
BRANCH   1   9
ATOM      9  C   UNL     1      31.402 -22.967 -15.087  0.00  0.00    +0.049 C 
BRANCH   9  12
ATOM     10  S   UNL     1      33.615 -24.191 -13.957  0.00  0.00    -0.109 S 
ATOM     11  N   UNL     1      34.852 -23.992 -16.217  0.00  0.00    -0.266 NA
ATOM     12  C   UNL     1      32.814 -23.472 -15.269  0.00  0.00    +0.087 C 
ATOM     13  C   UNL     1      33.595 -23.444 -16.380  0.00  0.00    +0.043 C 
ATOM     14  C   UNL     1      33.240 -22.898 -17.705  0.00  0.00    +0.048 C 
ATOM     15  C   UNL     1      34.974 -24.418 -14.980  0.00  0.00    +0.183 C 
ENDBRANCH   9  12
ENDBRANCH   1   9
TORSDOF 6
ENDMDL
MODEL 5
REMARK VINA RESULT:      -6.2      3.519      4.436
REMARK  Name = 1137
REMARK  6 active torsions:
REMARK  status: ('A' for Active; 'I' for Inactive)
REMARK    1  A    between atoms: C_1  and  O_2
REMARK    2  A    between atoms: C_1  and  C_9
REMARK    3  A    between atoms: O_2  and  P_3
REMARK    4  A    between atoms: P_3  and  O_5
REMARK    5  A    between atoms: P_3  and  O_7
REMARK    6  A    between atoms: C_9  and  C_12
REMARK                            x       y       z     vdW  Elec       q    Type
REMARK                         _______ _______ _______ _____ _____    ______ ____
ROOT
ATOM      1  C   UNL     1      35.503 -24.647 -14.620  0.00  0.00    +0.155 C 
ENDROOT
BRANCH   1   2
ATOM      2  O   UNL     1      36.858 -25.020 -14.805  0.00  0.00    -0.273 OA
BRANCH   2   3
ATOM      3  P   UNL     1      37.220 -26.596 -14.890  0.00  0.00    +0.473 P 
ATOM      4  O   UNL     1      36.691 -27.302 -16.104  0.00  0.00    -0.227 OA
BRANCH   3   5
ATOM      5  O   UNL     1      36.711 -27.184 -13.471  0.00  0.00    -0.303 OA
ATOM      6  H   UNL     1      36.422 -28.103 -13.588  0.00  0.00    +0.222 HD
ENDBRANCH   3   5
BRANCH   3   7
ATOM      7  O   UNL     1      38.829 -26.605 -14.741  0.00  0.00    -0.303 OA
ATOM      8  H   UNL     1      39.071 -26.409 -13.823  0.00  0.00    +0.222 HD
ENDBRANCH   3   7
ENDBRANCH   2   3
ENDBRANCH   1   2
BRANCH   1   9
ATOM      9  C   UNL     1      35.331 -23.138 -14.771  0.00  0.00    +0.049 C 
BRANCH   9  12
ATOM     10  S   UNL     1      37.102 -21.942 -16.534  0.00  0.00    -0.109 S 
ATOM     11  N   UNL     1      35.373 -22.229 -18.432  0.00  0.00    -0.266 NA
ATOM     12  C   UNL     1      35.611 -22.673 -16.181  0.00  0.00    +0.087 C 
ATOM     13  C   UNL     1      34.817 -22.750 -17.280  0.00  0.00    +0.043 C 
ATOM     14  C   UNL     1      33.457 -23.320 -17.359  0.00  0.00    +0.048 C 
ATOM     15  C   UNL     1      36.575 -21.775 -18.158  0.00  0.00    +0.183 C 
ENDBRANCH   9  12
ENDBRANCH   1   9
TORSDOF 6
ENDMDL
MODEL 6
REMARK VINA RESULT:      -6.2      3.181      3.908
REMARK  Name = 1137
REMARK  6 active torsions:
REMARK  status: ('A' for Active; 'I' for Inactive)
REMARK    1  A    between atoms: C_1  and  O_2
REMARK    2  A    between atoms: C_1  and  C_9
REMARK    3  A    between atoms: O_2  and  P_3
REMARK    4  A    between atoms: P_3  and  O_5
REMARK    5  A    between atoms: P_3  and  O_7
REMARK    6  A    between atoms: C_9  and  C_12
REMARK                            x       y       z     vdW  Elec       q    Type
REMARK                         _______ _______ _______ _____ _____    ______ ____
ROOT
ATOM      1  C   UNL     1      37.437 -24.157 -14.946  0.00  0.00    +0.155 C 
ENDROOT
BRANCH   1   2
ATOM      2  O   UNL     1      38.832 -24.090 -15.187  0.00  0.00    -0.273 OA
BRANCH   2   3
ATOM      3  P   UNL     1      39.754 -25.344 -14.740  0.00  0.00    +0.473 P 
ATOM      4  O   UNL     1      39.060 -26.370 -13.892  0.00  0.00    -0.227 OA
BRANCH   3   5
ATOM      5  O   UNL     1      41.047 -24.647 -14.062  0.00  0.00    -0.303 OA
ATOM      6  H   UNL     1      40.758 -23.914 -13.495  0.00  0.00    +0.222 HD
ENDBRANCH   3   5
BRANCH   3   7
ATOM      7  O   UNL     1      40.324 -25.894 -16.149  0.00  0.00    -0.303 OA
ATOM      8  H   UNL     1      39.792 -25.535 -16.876  0.00  0.00    +0.222 HD
ENDBRANCH   3   7
ENDBRANCH   2   3
ENDBRANCH   1   2
BRANCH   1   9
ATOM      9  C   UNL     1      36.801 -22.774 -15.055  0.00  0.00    +0.049 C 
BRANCH   9  12
ATOM     10  S   UNL     1      36.841 -21.799 -17.647  0.00  0.00    -0.109 S 
ATOM     11  N   UNL     1      34.427 -22.655 -17.985  0.00  0.00    -0.266 NA
ATOM     12  C   UNL     1      36.066 -22.590 -16.361  0.00  0.00    +0.087 C 
ATOM     13  C   UNL     1      34.808 -22.977 -16.696  0.00  0.00    +0.043 C 
ATOM     14  C   UNL     1      33.837 -23.688 -15.841  0.00  0.00    +0.048 C 
ATOM     15  C   UNL     1      35.420 -22.032 -18.578  0.00  0.00    +0.183 C 
ENDBRANCH   9  12
ENDBRANCH   1   9
TORSDOF 6
ENDMDL
MODEL 7
REMARK VINA RESULT:      -6.2      1.877      2.178
REMARK  Name = 1137
REMARK  6 active torsions:
REMARK  status: ('A' for Active; 'I' for Inactive)
REMARK    1  A    between atoms: C_1  and  O_2
REMARK    2  A    between atoms: C_1  and  C_9
REMARK    3  A    between atoms: O_2  and  P_3
REMARK    4  A    between atoms: P_3  and  O_5
REMARK    5  A    between atoms: P_3  and  O_7
REMARK    6  A    between atoms: C_9  and  C_12
REMARK                            x       y       z     vdW  Elec       q    Type
REMARK                         _______ _______ _______ _____ _____    ______ ____
ROOT
ATOM      1  C   UNL     1      37.642 -26.421 -14.931  0.00  0.00    +0.155 C 
ENDROOT
BRANCH   1   2
ATOM      2  O   UNL     1      38.850 -26.847 -14.322  0.00  0.00    -0.273 OA
BRANCH   2   3
ATOM      3  P   UNL     1      40.170 -25.926 -14.498  0.00  0.00    +0.473 P 
ATOM      4  O   UNL     1      40.133 -24.618 -13.763  0.00  0.00    -0.227 OA
BRANCH   3   5
ATOM      5  O   UNL     1      40.349 -25.814 -16.101  0.00  0.00    -0.303 OA
ATOM      6  H   UNL     1      40.373 -26.704 -16.487  0.00  0.00    +0.222 HD
ENDBRANCH   3   5
BRANCH   3   7
ATOM      7  O   UNL     1      41.365 -26.922 -14.059  0.00  0.00    -0.303 OA
ATOM      8  H   UNL     1      41.930 -27.108 -14.826  0.00  0.00    +0.222 HD
ENDBRANCH   3   7
ENDBRANCH   2   3
ENDBRANCH   1   2
BRANCH   1   9
ATOM      9  C   UNL     1      36.864 -25.493 -14.002  0.00  0.00    +0.049 C 
BRANCH   9  12
ATOM     10  S   UNL     1      37.383 -23.264 -15.561  0.00  0.00    -0.109 S 
ATOM     11  N   UNL     1      34.857 -22.717 -15.581  0.00  0.00    -0.266 NA
ATOM     12  C   UNL     1      36.316 -24.290 -14.730  0.00  0.00    +0.087 C 
ATOM     13  C   UNL     1      35.029 -23.868 -14.836  0.00  0.00    +0.043 C 
ATOM     14  C   UNL     1      33.832 -24.502 -14.249  0.00  0.00    +0.048 C 
ATOM     15  C   UNL     1      36.030 -22.311 -16.013  0.00  0.00    +0.183 C 
ENDBRANCH   9  12
ENDBRANCH   1   9
TORSDOF 6
ENDMDL
MODEL 8
REMARK VINA RESULT:      -6.1      3.792      4.749
REMARK  Name = 1137
REMARK  6 active torsions:
REMARK  status: ('A' for Active; 'I' for Inactive)
REMARK    1  A    between atoms: C_1  and  O_2
REMARK    2  A    between atoms: C_1  and  C_9
REMARK    3  A    between atoms: O_2  and  P_3
REMARK    4  A    between atoms: P_3  and  O_5
REMARK    5  A    between atoms: P_3  and  O_7
REMARK    6  A    between atoms: C_9  and  C_12
REMARK                            x       y       z     vdW  Elec       q    Type
REMARK                         _______ _______ _______ _____ _____    ______ ____
ROOT
ATOM      1  C   UNL     1      35.274 -24.858 -14.952  0.00  0.00    +0.155 C 
ENDROOT
BRANCH   1   2
ATOM      2  O   UNL     1      36.689 -24.933 -15.016  0.00  0.00    -0.273 OA
BRANCH   2   3
ATOM      3  P   UNL     1      37.391 -26.388 -14.904  0.00  0.00    +0.473 P 
ATOM      4  O   UNL     1      37.215 -27.075 -13.581  0.00  0.00    -0.227 OA
BRANCH   3   5
ATOM      5  O   UNL     1      38.923 -26.110 -15.341  0.00  0.00    -0.303 OA
ATOM      6  H   UNL     1      39.203 -25.245 -15.001  0.00  0.00    +0.222 HD
ENDBRANCH   3   5
BRANCH   3   7
ATOM      7  O   UNL     1      36.780 -27.183 -16.172  0.00  0.00    -0.303 OA
ATOM      8  H   UNL     1      35.818 -27.255 -16.076  0.00  0.00    +0.222 HD
ENDBRANCH   3   7
ENDBRANCH   2   3
ENDBRANCH   1   2
BRANCH   1   9
ATOM      9  C   UNL     1      34.800 -23.415 -15.102  0.00  0.00    +0.049 C 
BRANCH   9  12
ATOM     10  S   UNL     1      33.383 -23.242 -17.475  0.00  0.00    -0.109 S 
ATOM     11  N   UNL     1      35.413 -22.084 -18.578  0.00  0.00    -0.266 NA
ATOM     12  C   UNL     1      34.777 -22.973 -16.546  0.00  0.00    +0.087 C 
ATOM     13  C   UNL     1      35.750 -22.358 -17.267  0.00  0.00    +0.043 C 
ATOM     14  C   UNL     1      37.094 -21.966 -16.798  0.00  0.00    +0.048 C 
ATOM     15  C   UNL     1      34.187 -22.506 -18.799  0.00  0.00    +0.183 C 
ENDBRANCH   9  12
ENDBRANCH   1   9
TORSDOF 6
ENDMDL
MODEL 9
REMARK VINA RESULT:      -6.1     12.882     13.666
REMARK  Name = 1137
REMARK  6 active torsions:
REMARK  status: ('A' for Active; 'I' for Inactive)
REMARK    1  A    between atoms: C_1  and  O_2
REMARK    2  A    between atoms: C_1  and  C_9
REMARK    3  A    between atoms: O_2  and  P_3
REMARK    4  A    between atoms: P_3  and  O_5
REMARK    5  A    between atoms: P_3  and  O_7
REMARK    6  A    between atoms: C_9  and  C_12
REMARK                            x       y       z     vdW  Elec       q    Type
REMARK                         _______ _______ _______ _____ _____    ______ ____
ROOT
ATOM      1  C   UNL     1      34.110 -16.548 -21.990  0.00  0.00    +0.155 C 
ENDROOT
BRANCH   1   2
ATOM      2  O   UNL     1      35.061 -17.092 -21.090  0.00  0.00    -0.273 OA
BRANCH   2   3
ATOM      3  P   UNL     1      35.708 -18.537 -21.431  0.00  0.00    +0.473 P 
ATOM      4  O   UNL     1      36.287 -19.265 -20.254  0.00  0.00    -0.227 OA
BRANCH   3   5
ATOM      5  O   UNL     1      36.750 -18.218 -22.627  0.00  0.00    -0.303 OA
ATOM      6  H   UNL     1      36.777 -17.260 -22.784  0.00  0.00    +0.222 HD
ENDBRANCH   3   5
BRANCH   3   7
ATOM      7  O   UNL     1      34.501 -19.304 -22.183  0.00  0.00    -0.303 OA
ATOM      8  H   UNL     1      34.006 -18.673 -22.729  0.00  0.00    +0.222 HD
ENDBRANCH   3   7
ENDBRANCH   2   3
ENDBRANCH   1   2
BRANCH   1   9
ATOM      9  C   UNL     1      34.743 -15.466 -22.859  0.00  0.00    +0.049 C 
BRANCH   9  12
ATOM     10  S   UNL     1      33.210 -13.932 -24.583  0.00  0.00    -0.109 S 
ATOM     11  N   UNL     1      33.311 -15.833 -26.330  0.00  0.00    -0.266 NA
ATOM     12  C   UNL     1      34.065 -15.349 -24.203  0.00  0.00    +0.087 C 
ATOM     13  C   UNL     1      34.024 -16.247 -25.221  0.00  0.00    +0.043 C 
ATOM     14  C   UNL     1      34.648 -17.584 -25.255  0.00  0.00    +0.048 C 
ATOM     15  C   UNL     1      32.838 -14.628 -26.106  0.00  0.00    +0.183 C 
ENDBRANCH   9  12
ENDBRANCH   1   9
TORSDOF 6
ENDMDL
