MODEL 1
REMARK VINA RESULT:      -9.4      0.000      0.000
REMARK  Name = 185914
REMARK  6 active torsions:
REMARK  status: ('A' for Active; 'I' for Inactive)
REMARK    1  A    between atoms: C_1  and  C_2
REMARK    2  A    between atoms: C_1  and  C_12
REMARK    3  A    between atoms: C_5  and  O_8
REMARK    4  A    between atoms: C_6  and  O_10
REMARK    5  A    between atoms: C_12  and  C_13
REMARK    6  A    between atoms: C_18  and  O_19
REMARK                            x       y       z     vdW  Elec       q    Type
REMARK                         _______ _______ _______ _____ _____    ______ ____
ROOT
ATOM      1  C   UNL     1      35.535 -18.605 -23.354  0.00  0.00    +0.031 C 
ENDROOT
BRANCH   1   2
ATOM      2  C   UNL     1      34.912 -17.289 -23.752  0.00  0.00    -0.016 C 
ATOM      3  C   UNL     1      34.377 -17.147 -25.023  0.00  0.00    +0.033 C 
ATOM      4  C   UNL     1      34.886 -16.246 -22.840  0.00  0.00    +0.033 C 
ATOM      5  C   UNL     1      34.310 -15.030 -23.208  0.00  0.00    +0.136 C 
ATOM      6  C   UNL     1      33.801 -15.932 -25.391  0.00  0.00    +0.136 C 
ATOM      7  C   UNL     1      33.768 -14.873 -24.483  0.00  0.00    +0.073 C 
BRANCH   5   8
ATOM      8  O   UNL     1      34.277 -13.997 -22.321  0.00  0.00    -0.505 OA
ATOM      9  H   UNL     1      33.807 -14.086 -21.516  0.00  0.00    +0.292 HD
ENDBRANCH   5   8
BRANCH   6  10
ATOM     10  O   UNL     1      33.271 -15.778 -26.635  0.00  0.00    -0.505 OA
ATOM     11  H   UNL     1      33.729 -15.276 -27.281  0.00  0.00    +0.292 HD
ENDBRANCH   6  10
ENDBRANCH   1   2
BRANCH   1  12
ATOM     12  C   UNL     1      35.918 -18.669 -21.862  0.00  0.00    +0.031 C 
BRANCH  12  13
ATOM     13  C   UNL     1      35.087 -19.613 -21.061  0.00  0.00    -0.022 C 
ATOM     14  C   UNL     1      33.699 -19.478 -21.043  0.00  0.00    -0.001 C 
ATOM     15  C   UNL     1      35.698 -20.631 -20.327  0.00  0.00    -0.001 C 
ATOM     16  C   UNL     1      32.922 -20.360 -20.293  0.00  0.00    +0.036 C 
ATOM     17  C   UNL     1      34.921 -21.514 -19.578  0.00  0.00    +0.036 C 
ATOM     18  C   UNL     1      33.533 -21.378 -19.561  0.00  0.00    +0.134 C 
BRANCH  18  19
ATOM     19  O   UNL     1      32.774 -22.239 -18.829  0.00  0.00    -0.506 OA
ATOM     20  H   UNL     1      32.018 -22.638 -19.212  0.00  0.00    +0.292 HD
ENDBRANCH  18  19
ENDBRANCH  12  13
ENDBRANCH   1  12
TORSDOF 6
ENDMDL
MODEL 2
REMARK VINA RESULT:      -9.4      0.015      1.172
REMARK  Name = 185914
REMARK  6 active torsions:
REMARK  status: ('A' for Active; 'I' for Inactive)
REMARK    1  A    between atoms: C_1  and  C_2
REMARK    2  A    between atoms: C_1  and  C_12
REMARK    3  A    between atoms: C_5  and  O_8
REMARK    4  A    between atoms: C_6  and  O_10
REMARK    5  A    between atoms: C_12  and  C_13
REMARK    6  A    between atoms: C_18  and  O_19
REMARK                            x       y       z     vdW  Elec       q    Type
REMARK                         _______ _______ _______ _____ _____    ______ ____
ROOT
ATOM      1  C   UNL     1      35.536 -18.603 -23.360  0.00  0.00    +0.031 C 
ENDROOT
BRANCH   1   2
ATOM      2  C   UNL     1      34.910 -17.290 -23.762  0.00  0.00    -0.016 C 
ATOM      3  C   UNL     1      34.370 -17.155 -25.032  0.00  0.00    +0.033 C 
ATOM      4  C   UNL     1      34.886 -16.242 -22.855  0.00  0.00    +0.033 C 
ATOM      5  C   UNL     1      34.307 -15.029 -23.226  0.00  0.00    +0.136 C 
ATOM      6  C   UNL     1      33.791 -15.942 -25.403  0.00  0.00    +0.136 C 
ATOM      7  C   UNL     1      33.760 -14.878 -24.501  0.00  0.00    +0.073 C 
BRANCH   5   8
ATOM      8  O   UNL     1      34.276 -13.993 -22.345  0.00  0.00    -0.505 OA
ATOM      9  H   UNL     1      34.223 -13.111 -22.659  0.00  0.00    +0.292 HD
ENDBRANCH   5   8
BRANCH   6  10
ATOM     10  O   UNL     1      33.256 -15.795 -26.646  0.00  0.00    -0.505 OA
ATOM     11  H   UNL     1      33.357 -16.476 -27.283  0.00  0.00    +0.292 HD
ENDBRANCH   6  10
ENDBRANCH   1   2
BRANCH   1  12
ATOM     12  C   UNL     1      35.916 -18.663 -21.867  0.00  0.00    +0.031 C 
BRANCH  12  13
ATOM     13  C   UNL     1      35.087 -19.610 -21.067  0.00  0.00    -0.022 C 
ATOM     14  C   UNL     1      35.701 -20.625 -20.333  0.00  0.00    -0.001 C 
ATOM     15  C   UNL     1      33.698 -19.480 -21.052  0.00  0.00    -0.001 C 
ATOM     16  C   UNL     1      34.926 -21.511 -19.585  0.00  0.00    +0.036 C 
ATOM     17  C   UNL     1      32.923 -20.366 -20.303  0.00  0.00    +0.036 C 
ATOM     18  C   UNL     1      33.537 -21.381 -19.570  0.00  0.00    +0.134 C 
BRANCH  18  19
ATOM     19  O   UNL     1      32.782 -22.246 -18.839  0.00  0.00    -0.506 OA
ATOM     20  H   UNL     1      32.154 -22.795 -19.266  0.00  0.00    +0.292 HD
ENDBRANCH  18  19
ENDBRANCH  12  13
ENDBRANCH   1  12
TORSDOF 6
ENDMDL
MODEL 3
REMARK VINA RESULT:      -9.4      0.011      2.014
REMARK  Name = 185914
REMARK  6 active torsions:
REMARK  status: ('A' for Active; 'I' for Inactive)
REMARK    1  A    between atoms: C_1  and  C_2
REMARK    2  A    between atoms: C_1  and  C_12
REMARK    3  A    between atoms: C_5  and  O_8
REMARK    4  A    between atoms: C_6  and  O_10
REMARK    5  A    between atoms: C_12  and  C_13
REMARK    6  A    between atoms: C_18  and  O_19
REMARK                            x       y       z     vdW  Elec       q    Type
REMARK                         _______ _______ _______ _____ _____    ______ ____
ROOT
ATOM      1  C   UNL     1      35.534 -18.606 -23.351  0.00  0.00    +0.031 C 
ENDROOT
BRANCH   1   2
ATOM      2  C   UNL     1      34.911 -17.292 -23.754  0.00  0.00    -0.016 C 
ATOM      3  C   UNL     1      34.880 -16.247 -22.844  0.00  0.00    +0.033 C 
ATOM      4  C   UNL     1      34.381 -17.153 -25.027  0.00  0.00    +0.033 C 
ATOM      5  C   UNL     1      33.805 -15.939 -25.400  0.00  0.00    +0.136 C 
ATOM      6  C   UNL     1      34.304 -15.033 -23.216  0.00  0.00    +0.136 C 
ATOM      7  C   UNL     1      33.766 -14.879 -24.494  0.00  0.00    +0.073 C 
BRANCH   5   8
ATOM      8  O   UNL     1      33.281 -15.789 -26.647  0.00  0.00    -0.505 OA
ATOM      9  H   UNL     1      32.855 -16.510 -27.066  0.00  0.00    +0.292 HD
ENDBRANCH   5   8
BRANCH   6  10
ATOM     10  O   UNL     1      34.267 -13.998 -22.333  0.00  0.00    -0.505 OA
ATOM     11  H   UNL     1      34.687 -13.187 -22.544  0.00  0.00    +0.292 HD
ENDBRANCH   6  10
ENDBRANCH   1   2
BRANCH   1  12
ATOM     12  C   UNL     1      35.915 -18.666 -21.858  0.00  0.00    +0.031 C 
BRANCH  12  13
ATOM     13  C   UNL     1      35.083 -19.609 -21.057  0.00  0.00    -0.022 C 
ATOM     14  C   UNL     1      33.694 -19.475 -21.044  0.00  0.00    -0.001 C 
ATOM     15  C   UNL     1      35.693 -20.623 -20.318  0.00  0.00    -0.001 C 
ATOM     16  C   UNL     1      32.916 -20.355 -20.293  0.00  0.00    +0.036 C 
ATOM     17  C   UNL     1      34.914 -21.504 -19.568  0.00  0.00    +0.036 C 
ATOM     18  C   UNL     1      33.526 -21.370 -19.556  0.00  0.00    +0.134 C 
BRANCH  18  19
ATOM     19  O   UNL     1      32.766 -22.230 -18.824  0.00  0.00    -0.506 OA
ATOM     20  H   UNL     1      32.908 -23.153 -18.889  0.00  0.00    +0.292 HD
ENDBRANCH  18  19
ENDBRANCH  12  13
ENDBRANCH   1  12
TORSDOF 6
ENDMDL
MODEL 4
REMARK VINA RESULT:      -8.8      1.347      6.838
REMARK  Name = 185914
REMARK  6 active torsions:
REMARK  status: ('A' for Active; 'I' for Inactive)
REMARK    1  A    between atoms: C_1  and  C_2
REMARK    2  A    between atoms: C_1  and  C_12
REMARK    3  A    between atoms: C_5  and  O_8
REMARK    4  A    between atoms: C_6  and  O_10
REMARK    5  A    between atoms: C_12  and  C_13
REMARK    6  A    between atoms: C_18  and  O_19
REMARK                            x       y       z     vdW  Elec       q    Type
REMARK                         _______ _______ _______ _____ _____    ______ ____
ROOT
ATOM      1  C   UNL     1      36.226 -18.759 -21.469  0.00  0.00    +0.031 C 
ENDROOT
BRANCH   1   2
ATOM      2  C   UNL     1      35.723 -19.878 -20.590  0.00  0.00    -0.016 C 
ATOM      3  C   UNL     1      36.602 -20.508 -19.723  0.00  0.00    +0.033 C 
ATOM      4  C   UNL     1      34.391 -20.255 -20.665  0.00  0.00    +0.033 C 
ATOM      5  C   UNL     1      33.927 -21.288 -19.852  0.00  0.00    +0.136 C 
ATOM      6  C   UNL     1      36.137 -21.542 -18.911  0.00  0.00    +0.136 C 
ATOM      7  C   UNL     1      34.800 -21.932 -18.975  0.00  0.00    +0.073 C 
BRANCH   5   8
ATOM      8  O   UNL     1      32.621 -21.668 -19.915  0.00  0.00    -0.505 OA
ATOM      9  H   UNL     1      32.401 -22.571 -20.038  0.00  0.00    +0.292 HD
ENDBRANCH   5   8
BRANCH   6  10
ATOM     10  O   UNL     1      36.989 -22.170 -18.054  0.00  0.00    -0.505 OA
ATOM     11  H   UNL     1      37.625 -22.774 -18.385  0.00  0.00    +0.292 HD
ENDBRANCH   6  10
ENDBRANCH   1   2
BRANCH   1  12
ATOM     12  C   UNL     1      35.343 -17.496 -21.410  0.00  0.00    +0.031 C 
BRANCH  12  13
ATOM     13  C   UNL     1      34.885 -17.012 -22.744  0.00  0.00    -0.022 C 
ATOM     14  C   UNL     1      34.335 -15.736 -22.871  0.00  0.00    -0.001 C 
ATOM     15  C   UNL     1      35.005 -17.835 -23.864  0.00  0.00    -0.001 C 
ATOM     16  C   UNL     1      33.905 -15.284 -24.118  0.00  0.00    +0.036 C 
ATOM     17  C   UNL     1      34.575 -17.382 -25.112  0.00  0.00    +0.036 C 
ATOM     18  C   UNL     1      34.025 -16.107 -25.239  0.00  0.00    +0.134 C 
BRANCH  18  19
ATOM     19  O   UNL     1      33.606 -15.664 -26.456  0.00  0.00    -0.506 OA
ATOM     20  H   UNL     1      33.768 -14.778 -26.713  0.00  0.00    +0.292 HD
ENDBRANCH  18  19
ENDBRANCH  12  13
ENDBRANCH   1  12
TORSDOF 6
ENDMDL
MODEL 5
REMARK VINA RESULT:      -8.8      1.350      6.738
REMARK  Name = 185914
REMARK  6 active torsions:
REMARK  status: ('A' for Active; 'I' for Inactive)
REMARK    1  A    between atoms: C_1  and  C_2
REMARK    2  A    between atoms: C_1  and  C_12
REMARK    3  A    between atoms: C_5  and  O_8
REMARK    4  A    between atoms: C_6  and  O_10
REMARK    5  A    between atoms: C_12  and  C_13
REMARK    6  A    between atoms: C_18  and  O_19
REMARK                            x       y       z     vdW  Elec       q    Type
REMARK                         _______ _______ _______ _____ _____    ______ ____
ROOT
ATOM      1  C   UNL     1      36.222 -18.775 -21.486  0.00  0.00    +0.031 C 
ENDROOT
BRANCH   1   2
ATOM      2  C   UNL     1      35.715 -19.884 -20.597  0.00  0.00    -0.016 C 
ATOM      3  C   UNL     1      34.378 -20.244 -20.655  0.00  0.00    +0.033 C 
ATOM      4  C   UNL     1      36.596 -20.523 -19.739  0.00  0.00    +0.033 C 
ATOM      5  C   UNL     1      36.128 -21.548 -18.918  0.00  0.00    +0.136 C 
ATOM      6  C   UNL     1      33.909 -21.269 -19.834  0.00  0.00    +0.136 C 
ATOM      7  C   UNL     1      34.784 -21.921 -18.965  0.00  0.00    +0.073 C 
BRANCH   5   8
ATOM      8  O   UNL     1      36.982 -22.185 -18.071  0.00  0.00    -0.505 OA
ATOM      9  H   UNL     1      37.775 -22.560 -18.399  0.00  0.00    +0.292 HD
ENDBRANCH   5   8
BRANCH   6  10
ATOM     10  O   UNL     1      32.599 -21.634 -19.881  0.00  0.00    -0.505 OA
ATOM     11  H   UNL     1      32.337 -22.480 -19.574  0.00  0.00    +0.292 HD
ENDBRANCH   6  10
ENDBRANCH   1   2
BRANCH   1  12
ATOM     12  C   UNL     1      35.351 -17.504 -21.429  0.00  0.00    +0.031 C 
BRANCH  12  13
ATOM     13  C   UNL     1      34.884 -17.026 -22.762  0.00  0.00    -0.022 C 
ATOM     14  C   UNL     1      35.005 -17.851 -23.880  0.00  0.00    -0.001 C 
ATOM     15  C   UNL     1      34.327 -15.753 -22.891  0.00  0.00    -0.001 C 
ATOM     16  C   UNL     1      34.570 -17.404 -25.127  0.00  0.00    +0.036 C 
ATOM     17  C   UNL     1      33.891 -15.307 -24.138  0.00  0.00    +0.036 C 
ATOM     18  C   UNL     1      34.012 -16.132 -25.256  0.00  0.00    +0.134 C 
BRANCH  18  19
ATOM     19  O   UNL     1      33.587 -15.696 -26.473  0.00  0.00    -0.506 OA
ATOM     20  H   UNL     1      33.595 -16.277 -27.208  0.00  0.00    +0.292 HD
ENDBRANCH  18  19
ENDBRANCH  12  13
ENDBRANCH   1  12
TORSDOF 6
ENDMDL
MODEL 6
REMARK VINA RESULT:      -8.6      4.517      9.927
REMARK  Name = 185914
REMARK  6 active torsions:
REMARK  status: ('A' for Active; 'I' for Inactive)
REMARK    1  A    between atoms: C_1  and  C_2
REMARK    2  A    between atoms: C_1  and  C_12
REMARK    3  A    between atoms: C_5  and  O_8
REMARK    4  A    between atoms: C_6  and  O_10
REMARK    5  A    between atoms: C_12  and  C_13
REMARK    6  A    between atoms: C_18  and  O_19
REMARK                            x       y       z     vdW  Elec       q    Type
REMARK                         _______ _______ _______ _____ _____    ______ ____
ROOT
ATOM      1  C   UNL     1      32.150 -22.779 -17.197  0.00  0.00    +0.031 C 
ENDROOT
BRANCH   1   2
ATOM      2  C   UNL     1      31.869 -23.581 -15.950  0.00  0.00    -0.016 C 
ATOM      3  C   UNL     1      32.880 -23.766 -15.020  0.00  0.00    +0.033 C 
ATOM      4  C   UNL     1      30.606 -24.117 -15.757  0.00  0.00    +0.033 C 
ATOM      5  C   UNL     1      30.347 -24.857 -14.604  0.00  0.00    +0.136 C 
ATOM      6  C   UNL     1      32.621 -24.507 -13.867  0.00  0.00    +0.136 C 
ATOM      7  C   UNL     1      31.354 -25.053 -13.659  0.00  0.00    +0.073 C 
BRANCH   5   8
ATOM      8  O   UNL     1      29.110 -25.389 -14.400  0.00  0.00    -0.505 OA
ATOM      9  H   UNL     1      28.347 -24.860 -14.524  0.00  0.00    +0.292 HD
ENDBRANCH   5   8
BRANCH   6  10
ATOM     10  O   UNL     1      33.604 -24.696 -12.944  0.00  0.00    -0.505 OA
ATOM     11  H   UNL     1      33.546 -25.409 -12.338  0.00  0.00    +0.292 HD
ENDBRANCH   6  10
ENDBRANCH   1   2
BRANCH   1  12
ATOM     12  C   UNL     1      33.504 -23.122 -17.849  0.00  0.00    +0.031 C 
BRANCH  12  13
ATOM     13  C   UNL     1      33.993 -22.095 -18.813  0.00  0.00    -0.022 C 
ATOM     14  C   UNL     1      35.362 -21.935 -19.027  0.00  0.00    -0.001 C 
ATOM     15  C   UNL     1      33.081 -21.292 -19.499  0.00  0.00    -0.001 C 
ATOM     16  C   UNL     1      35.819 -20.974 -19.928  0.00  0.00    +0.036 C 
ATOM     17  C   UNL     1      33.539 -20.331 -20.401  0.00  0.00    +0.036 C 
ATOM     18  C   UNL     1      34.908 -20.172 -20.615  0.00  0.00    +0.134 C 
BRANCH  18  19
ATOM     19  O   UNL     1      35.355 -19.234 -21.494  0.00  0.00    -0.506 OA
ATOM     20  H   UNL     1      35.441 -19.447 -22.402  0.00  0.00    +0.292 HD
ENDBRANCH  18  19
ENDBRANCH  12  13
ENDBRANCH   1  12
TORSDOF 6
ENDMDL
MODEL 7
REMARK VINA RESULT:      -8.6      4.516      9.751
REMARK  Name = 185914
REMARK  6 active torsions:
REMARK  status: ('A' for Active; 'I' for Inactive)
REMARK    1  A    between atoms: C_1  and  C_2
REMARK    2  A    between atoms: C_1  and  C_12
REMARK    3  A    between atoms: C_5  and  O_8
REMARK    4  A    between atoms: C_6  and  O_10
REMARK    5  A    between atoms: C_12  and  C_13
REMARK    6  A    between atoms: C_18  and  O_19
REMARK                            x       y       z     vdW  Elec       q    Type
REMARK                         _______ _______ _______ _____ _____    ______ ____
ROOT
ATOM      1  C   UNL     1      32.153 -22.774 -17.193  0.00  0.00    +0.031 C 
ENDROOT
BRANCH   1   2
ATOM      2  C   UNL     1      31.875 -23.580 -15.948  0.00  0.00    -0.016 C 
ATOM      3  C   UNL     1      30.613 -24.121 -15.756  0.00  0.00    +0.033 C 
ATOM      4  C   UNL     1      32.887 -23.766 -15.019  0.00  0.00    +0.033 C 
ATOM      5  C   UNL     1      32.630 -24.512 -13.869  0.00  0.00    +0.136 C 
ATOM      6  C   UNL     1      30.356 -24.866 -14.606  0.00  0.00    +0.136 C 
ATOM      7  C   UNL     1      31.364 -25.062 -13.662  0.00  0.00    +0.073 C 
BRANCH   5   8
ATOM      8  O   UNL     1      33.614 -24.703 -12.948  0.00  0.00    -0.505 OA
ATOM      9  H   UNL     1      33.536 -24.327 -12.094  0.00  0.00    +0.292 HD
ENDBRANCH   5   8
BRANCH   6  10
ATOM     10  O   UNL     1      29.122 -25.404 -14.404  0.00  0.00    -0.505 OA
ATOM     11  H   UNL     1      29.003 -26.333 -14.444  0.00  0.00    +0.292 HD
ENDBRANCH   6  10
ENDBRANCH   1   2
BRANCH   1  12
ATOM     12  C   UNL     1      33.502 -23.121 -17.853  0.00  0.00    +0.031 C 
BRANCH  12  13
ATOM     13  C   UNL     1      33.992 -22.090 -18.813  0.00  0.00    -0.022 C 
ATOM     14  C   UNL     1      33.081 -21.288 -19.499  0.00  0.00    -0.001 C 
ATOM     15  C   UNL     1      35.361 -21.930 -19.026  0.00  0.00    -0.001 C 
ATOM     16  C   UNL     1      33.539 -20.325 -20.398  0.00  0.00    +0.036 C 
ATOM     17  C   UNL     1      35.819 -20.966 -19.924  0.00  0.00    +0.036 C 
ATOM     18  C   UNL     1      34.908 -20.164 -20.610  0.00  0.00    +0.134 C 
BRANCH  18  19
ATOM     19  O   UNL     1      35.354 -19.224 -21.487  0.00  0.00    -0.506 OA
ATOM     20  H   UNL     1      35.764 -19.486 -22.288  0.00  0.00    +0.292 HD
ENDBRANCH  18  19
ENDBRANCH  12  13
ENDBRANCH   1  12
TORSDOF 6
ENDMDL
MODEL 8
REMARK VINA RESULT:      -8.6      4.066      8.930
REMARK  Name = 185914
REMARK  6 active torsions:
REMARK  status: ('A' for Active; 'I' for Inactive)
REMARK    1  A    between atoms: C_1  and  C_2
REMARK    2  A    between atoms: C_1  and  C_12
REMARK    3  A    between atoms: C_5  and  O_8
REMARK    4  A    between atoms: C_6  and  O_10
REMARK    5  A    between atoms: C_12  and  C_13
REMARK    6  A    between atoms: C_18  and  O_19
REMARK                            x       y       z     vdW  Elec       q    Type
REMARK                         _______ _______ _______ _____ _____    ______ ____
ROOT
ATOM      1  C   UNL     1      33.793 -23.108 -16.917  0.00  0.00    +0.031 C 
ENDROOT
BRANCH   1   2
ATOM      2  C   UNL     1      32.461 -23.074 -16.208  0.00  0.00    -0.016 C 
ATOM      3  C   UNL     1      32.406 -23.360 -14.853  0.00  0.00    +0.033 C 
ATOM      4  C   UNL     1      31.317 -22.759 -16.924  0.00  0.00    +0.033 C 
ATOM      5  C   UNL     1      30.087 -22.728 -16.268  0.00  0.00    +0.136 C 
ATOM      6  C   UNL     1      31.176 -23.329 -14.197  0.00  0.00    +0.136 C 
ATOM      7  C   UNL     1      30.016 -23.014 -14.904  0.00  0.00    +0.073 C 
BRANCH   5   8
ATOM      8  O   UNL     1      28.956 -22.420 -16.959  0.00  0.00    -0.505 OA
ATOM      9  H   UNL     1      28.973 -21.745 -17.609  0.00  0.00    +0.292 HD
ENDBRANCH   5   8
BRANCH   6  10
ATOM     10  O   UNL     1      31.107 -23.606 -12.866  0.00  0.00    -0.505 OA
ATOM     11  H   UNL     1      30.367 -23.320 -12.366  0.00  0.00    +0.292 HD
ENDBRANCH   6  10
ENDBRANCH   1   2
BRANCH   1  12
ATOM     12  C   UNL     1      33.663 -23.233 -18.449  0.00  0.00    +0.031 C 
BRANCH  12  13
ATOM     13  C   UNL     1      34.210 -22.069 -19.203  0.00  0.00    -0.022 C 
ATOM     14  C   UNL     1      33.342 -21.182 -19.840  0.00  0.00    -0.001 C 
ATOM     15  C   UNL     1      35.588 -21.868 -19.272  0.00  0.00    -0.001 C 
ATOM     16  C   UNL     1      33.853 -20.093 -20.546  0.00  0.00    +0.036 C 
ATOM     17  C   UNL     1      36.100 -20.779 -19.978  0.00  0.00    +0.036 C 
ATOM     18  C   UNL     1      35.232 -19.892 -20.615  0.00  0.00    +0.134 C 
BRANCH  18  19
ATOM     19  O   UNL     1      35.730 -18.829 -21.304  0.00  0.00    -0.506 OA
ATOM     20  H   UNL     1      35.227 -18.042 -21.380  0.00  0.00    +0.292 HD
ENDBRANCH  18  19
ENDBRANCH  12  13
ENDBRANCH   1  12
TORSDOF 6
ENDMDL
MODEL 9
REMARK VINA RESULT:      -8.6      4.066      8.746
REMARK  Name = 185914
REMARK  6 active torsions:
REMARK  status: ('A' for Active; 'I' for Inactive)
REMARK    1  A    between atoms: C_1  and  C_2
REMARK    2  A    between atoms: C_1  and  C_12
REMARK    3  A    between atoms: C_5  and  O_8
REMARK    4  A    between atoms: C_6  and  O_10
REMARK    5  A    between atoms: C_12  and  C_13
REMARK    6  A    between atoms: C_18  and  O_19
REMARK                            x       y       z     vdW  Elec       q    Type
REMARK                         _______ _______ _______ _____ _____    ______ ____
ROOT
ATOM      1  C   UNL     1      33.805 -23.109 -16.919  0.00  0.00    +0.031 C 
ENDROOT
BRANCH   1   2
ATOM      2  C   UNL     1      32.472 -23.073 -16.211  0.00  0.00    -0.016 C 
ATOM      3  C   UNL     1      31.329 -22.759 -16.930  0.00  0.00    +0.033 C 
ATOM      4  C   UNL     1      32.415 -23.355 -14.855  0.00  0.00    +0.033 C 
ATOM      5  C   UNL     1      31.184 -23.322 -14.201  0.00  0.00    +0.136 C 
ATOM      6  C   UNL     1      30.098 -22.726 -16.276  0.00  0.00    +0.136 C 
ATOM      7  C   UNL     1      30.025 -23.007 -14.911  0.00  0.00    +0.073 C 
BRANCH   5   8
ATOM      8  O   UNL     1      31.113 -23.597 -12.870  0.00  0.00    -0.505 OA
ATOM      9  H   UNL     1      31.867 -23.479 -12.326  0.00  0.00    +0.292 HD
ENDBRANCH   5   8
BRANCH   6  10
ATOM     10  O   UNL     1      28.967 -22.421 -16.969  0.00  0.00    -0.505 OA
ATOM     11  H   UNL     1      28.746 -21.525 -17.134  0.00  0.00    +0.292 HD
ENDBRANCH   6  10
ENDBRANCH   1   2
BRANCH   1  12
ATOM     12  C   UNL     1      33.676 -23.236 -18.450  0.00  0.00    +0.031 C 
BRANCH  12  13
ATOM     13  C   UNL     1      34.222 -22.071 -19.204  0.00  0.00    -0.022 C 
ATOM     14  C   UNL     1      33.353 -21.180 -19.834  0.00  0.00    -0.001 C 
ATOM     15  C   UNL     1      35.600 -21.873 -19.281  0.00  0.00    -0.001 C 
ATOM     16  C   UNL     1      33.863 -20.091 -20.541  0.00  0.00    +0.036 C 
ATOM     17  C   UNL     1      36.110 -20.783 -19.987  0.00  0.00    +0.036 C 
ATOM     18  C   UNL     1      35.241 -19.892 -20.617  0.00  0.00    +0.134 C 
BRANCH  18  19
ATOM     19  O   UNL     1      35.738 -18.829 -21.306  0.00  0.00    -0.506 OA
ATOM     20  H   UNL     1      35.155 -18.241 -21.744  0.00  0.00    +0.292 HD
ENDBRANCH  18  19
ENDBRANCH  12  13
ENDBRANCH   1  12
TORSDOF 6
ENDMDL
