MODEL 1
REMARK VINA RESULT:     -11.3      0.000      0.000
REMARK  Name = 21066087
REMARK  4 active torsions:
REMARK  status: ('A' for Active; 'I' for Inactive)
REMARK    1  A    between atoms: C_4  and  N_18
REMARK    2  A    between atoms: C_5  and  C_12
REMARK    3  A    between atoms: N_18  and  C_20
REMARK    4  A    between atoms: C_20  and  C_22
REMARK                            x       y       z     vdW  Elec       q    Type
REMARK                         _______ _______ _______ _____ _____    ______ ____
ROOT
ATOM      1  N   UNL     1      34.254 -16.199 -23.305  0.00  0.00    -0.152 N 
ATOM      2  N   UNL     1      34.907 -18.507 -23.082  0.00  0.00    -0.389 NA
ATOM      3  N   UNL     1      33.956 -15.295 -24.280  0.00  0.00    -0.174 NA
ATOM      4  C   UNL     1      34.267 -15.994 -21.916  0.00  0.00    +0.126 C 
ATOM      5  C   UNL     1      34.904 -18.321 -21.793  0.00  0.00    +0.136 C 
ATOM      6  C   UNL     1      34.575 -17.440 -23.858  0.00  0.00    +0.190 C 
ATOM      7  C   UNL     1      34.589 -17.024 -21.117  0.00  0.00    +0.064 C 
ATOM      8  C   UNL     1      34.475 -17.300 -25.223  0.00  0.00    +0.125 C 
ATOM      9  C   UNL     1      34.093 -15.968 -25.421  0.00  0.00    +0.101 C 
ENDROOT
BRANCH   5  12
ATOM     10 CL   UNL     1      32.620 -20.062 -20.766  0.00  0.00    -0.081 Cl
ATOM     11 CL   UNL     1      33.536 -22.479 -18.861  0.00  0.00    -0.081 Cl
ATOM     12  C   UNL     1      35.256 -19.461 -20.905  0.00  0.00    +0.041 C 
ATOM     13  C   UNL     1      34.292 -20.321 -20.378  0.00  0.00    +0.071 C 
ATOM     14  C   UNL     1      36.604 -19.655 -20.604  0.00  0.00    +0.003 C 
ATOM     15  C   UNL     1      34.677 -21.375 -19.549  0.00  0.00    +0.068 C 
ATOM     16  C   UNL     1      36.988 -20.709 -19.775  0.00  0.00    +0.001 C 
ATOM     17  C   UNL     1      36.025 -21.569 -19.248  0.00  0.00    +0.012 C 
ENDBRANCH   5  12
BRANCH   4  18
ATOM     18  N   UNL     1      33.955 -14.743 -21.462  0.00  0.00    -0.316 N 
ATOM     19  H   UNL     1      34.601 -14.017 -21.614  0.00  0.00    +0.148 HD
BRANCH  18  20
ATOM     20  C   UNL     1      32.730 -14.436 -20.773  0.00  0.00    +0.115 C 
BRANCH  20  22
ATOM     21  N   UNL     1      31.459 -10.429 -21.671  0.00  0.00    -0.242 NA
ATOM     22  C   UNL     1      32.285 -13.035 -21.087  0.00  0.00    +0.000 C 
ATOM     23  C   UNL     1      32.325 -12.566 -22.395  0.00  0.00    +0.018 C 
ATOM     24  C   UNL     1      31.833 -12.201 -20.070  0.00  0.00    +0.018 C 
ATOM     25  C   UNL     1      31.904 -11.268 -22.633  0.00  0.00    +0.099 C 
ATOM     26  C   UNL     1      31.435 -10.919 -20.411  0.00  0.00    +0.099 C 
ENDBRANCH  20  22
ENDBRANCH  18  20
ENDBRANCH   4  18
TORSDOF 4
ENDMDL
MODEL 2
REMARK VINA RESULT:     -10.8      1.509      1.909
REMARK  Name = 21066087
REMARK  4 active torsions:
REMARK  status: ('A' for Active; 'I' for Inactive)
REMARK    1  A    between atoms: C_4  and  N_18
REMARK    2  A    between atoms: C_5  and  C_12
REMARK    3  A    between atoms: N_18  and  C_20
REMARK    4  A    between atoms: C_20  and  C_22
REMARK                            x       y       z     vdW  Elec       q    Type
REMARK                         _______ _______ _______ _____ _____    ______ ____
ROOT
ATOM      1  N   UNL     1      34.337 -16.864 -23.389  0.00  0.00    -0.152 N 
ATOM      2  N   UNL     1      34.605 -19.208 -22.903  0.00  0.00    -0.389 NA
ATOM      3  N   UNL     1      34.353 -16.016 -24.456  0.00  0.00    -0.174 NA
ATOM      4  C   UNL     1      34.123 -16.542 -22.039  0.00  0.00    +0.126 C 
ATOM      5  C   UNL     1      34.392 -18.913 -21.653  0.00  0.00    +0.136 C 
ATOM      6  C   UNL     1      34.575 -18.179 -23.792  0.00  0.00    +0.190 C 
ATOM      7  C   UNL     1      34.144 -17.532 -21.131  0.00  0.00    +0.064 C 
ATOM      8  C   UNL     1      34.748 -18.145 -25.157  0.00  0.00    +0.125 C 
ATOM      9  C   UNL     1      34.600 -16.797 -25.505  0.00  0.00    +0.101 C 
ENDROOT
BRANCH   5  12
ATOM     10 CL   UNL     1      37.081 -19.638 -20.410  0.00  0.00    -0.081 Cl
ATOM     11 CL   UNL     1      36.958 -22.017 -18.256  0.00  0.00    -0.081 Cl
ATOM     12  C   UNL     1      34.410 -20.007 -20.646  0.00  0.00    +0.041 C 
ATOM     13  C   UNL     1      35.582 -20.420 -20.015  0.00  0.00    +0.071 C 
ATOM     14  C   UNL     1      33.197 -20.624 -20.339  0.00  0.00    +0.003 C 
ATOM     15  C   UNL     1      35.543 -21.453 -19.077  0.00  0.00    +0.068 C 
ATOM     16  C   UNL     1      33.158 -21.657 -19.402  0.00  0.00    +0.001 C 
ATOM     17  C   UNL     1      34.331 -22.070 -18.771  0.00  0.00    +0.012 C 
ENDBRANCH   5  12
BRANCH   4  18
ATOM     18  N   UNL     1      33.912 -15.228 -21.729  0.00  0.00    -0.316 N 
ATOM     19  H   UNL     1      34.696 -14.655 -21.569  0.00  0.00    +0.148 HD
BRANCH  18  20
ATOM     20  C   UNL     1      32.603 -14.640 -21.627  0.00  0.00    +0.115 C 
BRANCH  20  22
ATOM     21  N   UNL     1      32.616 -10.644 -23.211  0.00  0.00    -0.242 NA
ATOM     22  C   UNL     1      32.608 -13.243 -22.181  0.00  0.00    +0.000 C 
ATOM     23  C   UNL     1      33.445 -12.915 -23.241  0.00  0.00    +0.018 C 
ATOM     24  C   UNL     1      31.775 -12.273 -21.634  0.00  0.00    +0.018 C 
ATOM     25  C   UNL     1      33.412 -11.614 -23.716  0.00  0.00    +0.099 C 
ATOM     26  C   UNL     1      31.816 -11.000 -22.181  0.00  0.00    +0.099 C 
ENDBRANCH  20  22
ENDBRANCH  18  20
ENDBRANCH   4  18
TORSDOF 4
ENDMDL
MODEL 3
REMARK VINA RESULT:     -10.6      6.545     10.189
REMARK  Name = 21066087
REMARK  4 active torsions:
REMARK  status: ('A' for Active; 'I' for Inactive)
REMARK    1  A    between atoms: C_4  and  N_18
REMARK    2  A    between atoms: C_5  and  C_12
REMARK    3  A    between atoms: N_18  and  C_20
REMARK    4  A    between atoms: C_20  and  C_22
REMARK                            x       y       z     vdW  Elec       q    Type
REMARK                         _______ _______ _______ _____ _____    ______ ____
ROOT
ATOM      1  N   UNL     1      32.080 -23.921 -15.240  0.00  0.00    -0.152 N 
ATOM      2  N   UNL     1      33.438 -24.550 -13.353  0.00  0.00    -0.389 NA
ATOM      3  N   UNL     1      30.780 -23.974 -15.648  0.00  0.00    -0.174 NA
ATOM      4  C   UNL     1      33.178 -23.390 -15.936  0.00  0.00    +0.126 C 
ATOM      5  C   UNL     1      34.454 -24.046 -13.991  0.00  0.00    +0.136 C 
ATOM      6  C   UNL     1      32.229 -24.489 -13.974  0.00  0.00    +0.190 C 
ATOM      7  C   UNL     1      34.388 -23.432 -15.355  0.00  0.00    +0.064 C 
ATOM      8  C   UNL     1      30.978 -24.912 -13.584  0.00  0.00    +0.125 C 
ATOM      9  C   UNL     1      30.135 -24.570 -14.648  0.00  0.00    +0.101 C 
ENDROOT
BRANCH   5  12
ATOM     10 CL   UNL     1      36.526 -25.946 -15.174  0.00  0.00    -0.081 Cl
ATOM     11 CL   UNL     1      39.368 -25.920 -13.679  0.00  0.00    -0.081 Cl
ATOM     12  C   UNL     1      35.794 -24.086 -13.349  0.00  0.00    +0.041 C 
ATOM     13  C   UNL     1      36.816 -24.917 -13.806  0.00  0.00    +0.071 C 
ATOM     14  C   UNL     1      36.011 -23.252 -12.251  0.00  0.00    +0.003 C 
ATOM     15  C   UNL     1      38.056 -24.916 -13.166  0.00  0.00    +0.068 C 
ATOM     16  C   UNL     1      37.250 -23.251 -11.611  0.00  0.00    +0.001 C 
ATOM     17  C   UNL     1      38.273 -24.082 -12.068  0.00  0.00    +0.012 C 
ENDBRANCH   5  12
BRANCH   4  18
ATOM     18  N   UNL     1      32.945 -22.867 -17.177  0.00  0.00    -0.316 N 
ATOM     19  H   UNL     1      32.261 -22.165 -17.266  0.00  0.00    +0.148 HD
BRANCH  18  20
ATOM     20  C   UNL     1      33.651 -23.289 -18.357  0.00  0.00    +0.115 C 
BRANCH  20  22
ATOM     21  N   UNL     1      35.173 -19.888 -20.501  0.00  0.00    -0.242 NA
ATOM     22  C   UNL     1      34.184 -22.100 -19.107  0.00  0.00    +0.000 C 
ATOM     23  C   UNL     1      35.552 -21.866 -19.163  0.00  0.00    +0.018 C 
ATOM     24  C   UNL     1      33.308 -21.230 -19.747  0.00  0.00    +0.018 C 
ATOM     25  C   UNL     1      35.993 -20.757 -19.866  0.00  0.00    +0.099 C 
ATOM     26  C   UNL     1      33.849 -20.149 -20.424  0.00  0.00    +0.099 C 
ENDBRANCH  20  22
ENDBRANCH  18  20
ENDBRANCH   4  18
TORSDOF 4
ENDMDL
MODEL 4
REMARK VINA RESULT:     -10.1      5.671     10.341
REMARK  Name = 21066087
REMARK  4 active torsions:
REMARK  status: ('A' for Active; 'I' for Inactive)
REMARK    1  A    between atoms: C_4  and  N_18
REMARK    2  A    between atoms: C_5  and  C_12
REMARK    3  A    between atoms: N_18  and  C_20
REMARK    4  A    between atoms: C_20  and  C_22
REMARK                            x       y       z     vdW  Elec       q    Type
REMARK                         _______ _______ _______ _____ _____    ______ ____
ROOT
ATOM      1  N   UNL     1      31.984 -10.992 -21.165  0.00  0.00    -0.152 N 
ATOM      2  N   UNL     1      32.351  -8.634 -21.493  0.00  0.00    -0.389 NA
ATOM      3  N   UNL     1      31.600 -11.856 -20.184  0.00  0.00    -0.174 NA
ATOM      4  C   UNL     1      32.334 -11.297 -22.490  0.00  0.00    +0.126 C 
ATOM      5  C   UNL     1      32.662  -8.914 -22.726  0.00  0.00    +0.136 C 
ATOM      6  C   UNL     1      32.002  -9.678 -20.694  0.00  0.00    +0.190 C 
ATOM      7  C   UNL     1      32.685 -10.292 -23.310  0.00  0.00    +0.064 C 
ATOM      8  C   UNL     1      31.618  -9.730 -19.373  0.00  0.00    +0.125 C 
ATOM      9  C   UNL     1      31.385 -11.086 -19.119  0.00  0.00    +0.101 C 
ENDROOT
BRANCH   5  12
ATOM     10 CL   UNL     1      30.513  -6.871 -23.438  0.00  0.00    -0.081 Cl
ATOM     11 CL   UNL     1      31.493  -4.536 -25.413  0.00  0.00    -0.081 Cl
ATOM     12  C   UNL     1      33.046  -7.804 -23.637  0.00  0.00    +0.041 C 
ATOM     13  C   UNL     1      32.145  -6.815 -24.029  0.00  0.00    +0.071 C 
ATOM     14  C   UNL     1      34.361  -7.772 -24.102  0.00  0.00    +0.003 C 
ATOM     15  C   UNL     1      32.557  -5.794 -24.887  0.00  0.00    +0.068 C 
ATOM     16  C   UNL     1      34.774  -6.753 -24.959  0.00  0.00    +0.001 C 
ATOM     17  C   UNL     1      33.872  -5.764 -25.351  0.00  0.00    +0.012 C 
ENDBRANCH   5  12
BRANCH   4  18
ATOM     18  N   UNL     1      32.304 -12.611 -22.864  0.00  0.00    -0.316 N 
ATOM     19  H   UNL     1      31.457 -12.981 -23.201  0.00  0.00    +0.148 HD
BRANCH  18  20
ATOM     20  C   UNL     1      33.449 -13.479 -22.791  0.00  0.00    +0.115 C 
BRANCH  20  22
ATOM     21  N   UNL     1      33.602 -16.060 -26.226  0.00  0.00    -0.242 NA
ATOM     22  C   UNL     1      33.503 -14.382 -23.992  0.00  0.00    +0.000 C 
ATOM     23  C   UNL     1      34.131 -15.619 -23.908  0.00  0.00    +0.018 C 
ATOM     24  C   UNL     1      32.924 -13.983 -25.192  0.00  0.00    +0.018 C 
ATOM     25  C   UNL     1      34.153 -16.414 -25.042  0.00  0.00    +0.099 C 
ATOM     26  C   UNL     1      33.000 -14.851 -26.269  0.00  0.00    +0.099 C 
ENDBRANCH  20  22
ENDBRANCH  18  20
ENDBRANCH   4  18
TORSDOF 4
ENDMDL
MODEL 5
REMARK VINA RESULT:     -10.1      4.047      8.611
REMARK  Name = 21066087
REMARK  4 active torsions:
REMARK  status: ('A' for Active; 'I' for Inactive)
REMARK    1  A    between atoms: C_4  and  N_18
REMARK    2  A    between atoms: C_5  and  C_12
REMARK    3  A    between atoms: N_18  and  C_20
REMARK    4  A    between atoms: C_20  and  C_22
REMARK                            x       y       z     vdW  Elec       q    Type
REMARK                         _______ _______ _______ _____ _____    ______ ____
ROOT
ATOM      1  N   UNL     1      33.322 -13.952 -24.836  0.00  0.00    -0.152 N 
ATOM      2  N   UNL     1      33.468 -11.623 -25.434  0.00  0.00    -0.389 NA
ATOM      3  N   UNL     1      33.216 -15.172 -25.433  0.00  0.00    -0.174 NA
ATOM      4  C   UNL     1      33.383 -13.669 -23.462  0.00  0.00    +0.126 C 
ATOM      5  C   UNL     1      33.539 -11.362 -24.161  0.00  0.00    +0.136 C 
ATOM      6  C   UNL     1      33.361 -12.932 -25.788  0.00  0.00    +0.190 C 
ATOM      7  C   UNL     1      33.489 -12.388 -23.073  0.00  0.00    +0.064 C 
ATOM      8  C   UNL     1      33.275 -13.542 -27.019  0.00  0.00    +0.125 C 
ATOM      9  C   UNL     1      33.189 -14.911 -26.738  0.00  0.00    +0.101 C 
ENDROOT
BRANCH   5  12
ATOM     10 CL   UNL     1      31.293 -10.215 -22.446  0.00  0.00    -0.081 Cl
ATOM     11 CL   UNL     1      31.699  -7.147 -21.590  0.00  0.00    -0.081 Cl
ATOM     12  C   UNL     1      33.661  -9.945 -23.727  0.00  0.00    +0.041 C 
ATOM     13  C   UNL     1      32.694  -9.319 -22.942  0.00  0.00    +0.071 C 
ATOM     14  C   UNL     1      34.794  -9.239 -24.133  0.00  0.00    +0.003 C 
ATOM     15  C   UNL     1      32.858  -7.986 -22.563  0.00  0.00    +0.068 C 
ATOM     16  C   UNL     1      34.958  -7.906 -23.755  0.00  0.00    +0.001 C 
ATOM     17  C   UNL     1      33.991  -7.280 -22.969  0.00  0.00    +0.012 C 
ENDBRANCH   5  12
BRANCH   4  18
ATOM     18  N   UNL     1      33.322 -14.726 -22.598  0.00  0.00    -0.316 N 
ATOM     19  H   UNL     1      32.446 -15.143 -22.431  0.00  0.00    +0.148 HD
BRANCH  18  20
ATOM     20  C   UNL     1      34.474 -15.260 -21.920  0.00  0.00    +0.115 C 
BRANCH  20  22
ATOM     21  N   UNL     1      34.886 -19.461 -22.733  0.00  0.00    -0.242 NA
ATOM     22  C   UNL     1      34.618 -16.730 -22.204  0.00  0.00    +0.000 C 
ATOM     23  C   UNL     1      34.200 -17.666 -21.266  0.00  0.00    +0.018 C 
ATOM     24  C   UNL     1      35.170 -17.157 -23.406  0.00  0.00    +0.018 C 
ATOM     25  C   UNL     1      34.354 -19.008 -21.575  0.00  0.00    +0.099 C 
ATOM     26  C   UNL     1      35.281 -18.521 -23.620  0.00  0.00    +0.099 C 
ENDBRANCH  20  22
ENDBRANCH  18  20
ENDBRANCH   4  18
TORSDOF 4
ENDMDL
MODEL 6
REMARK VINA RESULT:     -10.1      6.010      9.469
REMARK  Name = 21066087
REMARK  4 active torsions:
REMARK  status: ('A' for Active; 'I' for Inactive)
REMARK    1  A    between atoms: C_4  and  N_18
REMARK    2  A    between atoms: C_5  and  C_12
REMARK    3  A    between atoms: N_18  and  C_20
REMARK    4  A    between atoms: C_20  and  C_22
REMARK                            x       y       z     vdW  Elec       q    Type
REMARK                         _______ _______ _______ _____ _____    ______ ____
ROOT
ATOM      1  N   UNL     1      31.993 -23.286 -15.973  0.00  0.00    -0.152 N 
ATOM      2  N   UNL     1      33.260 -24.486 -14.313  0.00  0.00    -0.389 NA
ATOM      3  N   UNL     1      30.735 -22.801 -16.169  0.00  0.00    -0.174 NA
ATOM      4  C   UNL     1      33.091 -23.203 -16.845  0.00  0.00    +0.126 C 
ATOM      5  C   UNL     1      34.282 -24.397 -15.114  0.00  0.00    +0.136 C 
ATOM      6  C   UNL     1      32.096 -23.923 -14.736  0.00  0.00    +0.190 C 
ATOM      7  C   UNL     1      34.258 -23.747 -16.462  0.00  0.00    +0.064 C 
ATOM      8  C   UNL     1      30.856 -23.833 -14.145  0.00  0.00    +0.125 C 
ATOM      9  C   UNL     1      30.067 -23.137 -15.068  0.00  0.00    +0.101 C 
ENDROOT
BRANCH   5  12
ATOM     10 CL   UNL     1      35.703 -23.133 -12.729  0.00  0.00    -0.081 Cl
ATOM     11 CL   UNL     1      38.483 -24.531 -11.938  0.00  0.00    -0.081 Cl
ATOM     12  C   UNL     1      35.576 -24.994 -14.691  0.00  0.00    +0.041 C 
ATOM     13  C   UNL     1      36.311 -24.497 -13.615  0.00  0.00    +0.071 C 
ATOM     14  C   UNL     1      36.051 -26.090 -15.412  0.00  0.00    +0.003 C 
ATOM     15  C   UNL     1      37.521 -25.095 -13.260  0.00  0.00    +0.068 C 
ATOM     16  C   UNL     1      37.260 -26.688 -15.058  0.00  0.00    +0.001 C 
ATOM     17  C   UNL     1      37.995 -26.191 -13.982  0.00  0.00    +0.012 C 
ENDBRANCH   5  12
BRANCH   4  18
ATOM     18  N   UNL     1      32.900 -22.575 -18.043  0.00  0.00    -0.316 N 
ATOM     19  H   UNL     1      32.130 -21.968 -18.134  0.00  0.00    +0.148 HD
BRANCH  18  20
ATOM     20  C   UNL     1      33.767 -22.754 -19.177  0.00  0.00    +0.115 C 
BRANCH  20  22
ATOM     21  N   UNL     1      34.613 -18.975 -21.043  0.00  0.00    -0.242 NA
ATOM     22  C   UNL     1      34.062 -21.433 -19.830  0.00  0.00    +0.000 C 
ATOM     23  C   UNL     1      33.021 -20.604 -20.232  0.00  0.00    +0.018 C 
ATOM     24  C   UNL     1      35.379 -21.034 -20.033  0.00  0.00    +0.018 C 
ATOM     25  C   UNL     1      33.346 -19.397 -20.828  0.00  0.00    +0.099 C 
ATOM     26  C   UNL     1      35.598 -19.808 -20.638  0.00  0.00    +0.099 C 
ENDBRANCH  20  22
ENDBRANCH  18  20
ENDBRANCH   4  18
TORSDOF 4
ENDMDL
MODEL 7
REMARK VINA RESULT:     -10.1      3.260      7.711
REMARK  Name = 21066087
REMARK  4 active torsions:
REMARK  status: ('A' for Active; 'I' for Inactive)
REMARK    1  A    between atoms: C_4  and  N_18
REMARK    2  A    between atoms: C_5  and  C_12
REMARK    3  A    between atoms: N_18  and  C_20
REMARK    4  A    between atoms: C_20  and  C_22
REMARK                            x       y       z     vdW  Elec       q    Type
REMARK                         _______ _______ _______ _____ _____    ______ ____
ROOT
ATOM      1  N   UNL     1      34.621 -16.956 -23.161  0.00  0.00    -0.152 N 
ATOM      2  N   UNL     1      33.413 -14.988 -23.848  0.00  0.00    -0.389 NA
ATOM      3  N   UNL     1      35.135 -18.099 -23.698  0.00  0.00    -0.174 NA
ATOM      4  C   UNL     1      34.663 -16.542 -21.820  0.00  0.00    +0.126 C 
ATOM      5  C   UNL     1      33.465 -14.597 -22.607  0.00  0.00    +0.136 C 
ATOM      6  C   UNL     1      34.000 -16.180 -24.141  0.00  0.00    +0.190 C 
ATOM      7  C   UNL     1      34.095 -15.370 -21.492  0.00  0.00    +0.064 C 
ATOM      8  C   UNL     1      34.130 -16.867 -25.327  0.00  0.00    +0.125 C 
ATOM      9  C   UNL     1      34.832 -18.031 -24.993  0.00  0.00    +0.101 C 
ENDROOT
BRANCH   5  12
ATOM     10 CL   UNL     1      33.835 -12.263 -24.536  0.00  0.00    -0.081 Cl
ATOM     11 CL   UNL     1      32.433  -9.528 -23.608  0.00  0.00    -0.081 Cl
ATOM     12  C   UNL     1      32.841 -13.297 -22.241  0.00  0.00    +0.041 C 
ATOM     13  C   UNL     1      32.947 -12.165 -23.048  0.00  0.00    +0.071 C 
ATOM     14  C   UNL     1      32.130 -13.236 -21.043  0.00  0.00    +0.003 C 
ATOM     15  C   UNL     1      32.342 -10.970 -22.657  0.00  0.00    +0.068 C 
ATOM     16  C   UNL     1      31.526 -12.041 -20.651  0.00  0.00    +0.001 C 
ATOM     17  C   UNL     1      31.632 -10.908 -21.458  0.00  0.00    +0.012 C 
ENDBRANCH   5  12
BRANCH   4  18
ATOM     18  N   UNL     1      35.278 -17.369 -20.924  0.00  0.00    -0.316 N 
ATOM     19  H   UNL     1      35.305 -17.096 -19.978  0.00  0.00    +0.148 HD
BRANCH  18  20
ATOM     20  C   UNL     1      35.887 -18.620 -21.291  0.00  0.00    +0.115 C 
BRANCH  20  22
ATOM     21  N   UNL     1      33.862 -21.900 -19.388  0.00  0.00    -0.242 NA
ATOM     22  C   UNL     1      35.178 -19.767 -20.626  0.00  0.00    +0.000 C 
ATOM     23  C   UNL     1      33.791 -19.848 -20.664  0.00  0.00    +0.018 C 
ATOM     24  C   UNL     1      35.909 -20.751 -19.969  0.00  0.00    +0.018 C 
ATOM     25  C   UNL     1      33.187 -20.924 -20.037  0.00  0.00    +0.099 C 
ATOM     26  C   UNL     1      35.209 -21.787 -19.372  0.00  0.00    +0.099 C 
ENDBRANCH  20  22
ENDBRANCH  18  20
ENDBRANCH   4  18
TORSDOF 4
ENDMDL
MODEL 8
REMARK VINA RESULT:     -10.0      5.270     10.260
REMARK  Name = 21066087
REMARK  4 active torsions:
REMARK  status: ('A' for Active; 'I' for Inactive)
REMARK    1  A    between atoms: C_4  and  N_18
REMARK    2  A    between atoms: C_5  and  C_12
REMARK    3  A    between atoms: N_18  and  C_20
REMARK    4  A    between atoms: C_20  and  C_22
REMARK                            x       y       z     vdW  Elec       q    Type
REMARK                         _______ _______ _______ _____ _____    ______ ____
ROOT
ATOM      1  N   UNL     1      31.828 -10.854 -20.917  0.00  0.00    -0.152 N 
ATOM      2  N   UNL     1      32.352  -8.536 -21.310  0.00  0.00    -0.389 NA
ATOM      3  N   UNL     1      31.443 -11.672 -19.898  0.00  0.00    -0.174 NA
ATOM      4  C   UNL     1      32.069 -11.203 -22.256  0.00  0.00    +0.126 C 
ATOM      5  C   UNL     1      32.562  -8.856 -22.555  0.00  0.00    +0.136 C 
ATOM      6  C   UNL     1      31.976  -9.539 -20.472  0.00  0.00    +0.190 C 
ATOM      7  C   UNL     1      32.442 -10.239 -23.114  0.00  0.00    +0.064 C 
ATOM      8  C   UNL     1      31.674  -9.543 -19.129  0.00  0.00    +0.125 C 
ATOM      9  C   UNL     1      31.356 -10.874 -18.836  0.00  0.00    +0.101 C 
ENDROOT
BRANCH   5  12
ATOM     10 CL   UNL     1      30.469  -6.774 -23.320  0.00  0.00    -0.081 Cl
ATOM     11 CL   UNL     1      31.499  -4.542 -25.386  0.00  0.00    -0.081 Cl
ATOM     12  C   UNL     1      32.970  -7.791 -23.509  0.00  0.00    +0.041 C 
ATOM     13  C   UNL     1      32.095  -6.789 -23.927  0.00  0.00    +0.071 C 
ATOM     14  C   UNL     1      34.280  -7.817 -23.986  0.00  0.00    +0.003 C 
ATOM     15  C   UNL     1      32.530  -5.813 -24.825  0.00  0.00    +0.068 C 
ATOM     16  C   UNL     1      34.715  -6.841 -24.884  0.00  0.00    +0.001 C 
ATOM     17  C   UNL     1      33.840  -5.839 -25.302  0.00  0.00    +0.012 C 
ENDBRANCH   5  12
BRANCH   4  18
ATOM     18  N   UNL     1      31.916 -12.515 -22.602  0.00  0.00    -0.316 N 
ATOM     19  H   UNL     1      31.148 -13.009 -22.234  0.00  0.00    +0.148 HD
BRANCH  18  20
ATOM     20  C   UNL     1      32.819 -13.212 -23.480  0.00  0.00    +0.115 C 
BRANCH  20  22
ATOM     21  N   UNL     1      34.906 -16.305 -21.345  0.00  0.00    -0.242 NA
ATOM     22  C   UNL     1      33.549 -14.294 -22.734  0.00  0.00    +0.000 C 
ATOM     23  C   UNL     1      34.314 -15.225 -23.426  0.00  0.00    +0.018 C 
ATOM     24  C   UNL     1      33.461 -14.367 -21.348  0.00  0.00    +0.018 C 
ATOM     25  C   UNL     1      34.967 -16.202 -22.693  0.00  0.00    +0.099 C 
ATOM     26  C   UNL     1      34.152 -15.382 -20.707  0.00  0.00    +0.099 C 
ENDBRANCH  20  22
ENDBRANCH  18  20
ENDBRANCH   4  18
TORSDOF 4
ENDMDL
MODEL 9
REMARK VINA RESULT:      -9.9      5.382     10.364
REMARK  Name = 21066087
REMARK  4 active torsions:
REMARK  status: ('A' for Active; 'I' for Inactive)
REMARK    1  A    between atoms: C_4  and  N_18
REMARK    2  A    between atoms: C_5  and  C_12
REMARK    3  A    between atoms: N_18  and  C_20
REMARK    4  A    between atoms: C_20  and  C_22
REMARK                            x       y       z     vdW  Elec       q    Type
REMARK                         _______ _______ _______ _____ _____    ______ ____
ROOT
ATOM      1  N   UNL     1      31.778 -10.983 -20.987  0.00  0.00    -0.152 N 
ATOM      2  N   UNL     1      31.906  -8.596 -21.281  0.00  0.00    -0.389 NA
ATOM      3  N   UNL     1      31.618 -11.899 -19.991  0.00  0.00    -0.174 NA
ATOM      4  C   UNL     1      31.942 -11.226 -22.360  0.00  0.00    +0.126 C 
ATOM      5  C   UNL     1      32.044  -8.820 -22.557  0.00  0.00    +0.136 C 
ATOM      6  C   UNL     1      31.766  -9.684 -20.477  0.00  0.00    +0.190 C 
ATOM      7  C   UNL     1      32.083 -10.177 -23.187  0.00  0.00    +0.064 C 
ATOM      8  C   UNL     1      31.596  -9.799 -19.116  0.00  0.00    +0.125 C 
ATOM      9  C   UNL     1      31.511 -11.175 -18.879  0.00  0.00    +0.101 C 
ENDROOT
BRANCH   5  12
ATOM     10 CL   UNL     1      34.767  -8.409 -23.869  0.00  0.00    -0.081 Cl
ATOM     11 CL   UNL     1      34.937  -5.866 -25.822  0.00  0.00    -0.081 Cl
ATOM     12  C   UNL     1      32.195  -7.661 -23.475  0.00  0.00    +0.041 C 
ATOM     13  C   UNL     1      33.395  -7.378 -24.128  0.00  0.00    +0.071 C 
ATOM     14  C   UNL     1      31.083  -6.843 -23.674  0.00  0.00    +0.003 C 
ATOM     15  C   UNL     1      33.482  -6.276 -24.980  0.00  0.00    +0.068 C 
ATOM     16  C   UNL     1      31.171  -5.741 -24.524  0.00  0.00    +0.001 C 
ATOM     17  C   UNL     1      32.370  -5.458 -25.178  0.00  0.00    +0.012 C 
ENDBRANCH   5  12
BRANCH   4  18
ATOM     18  N   UNL     1      31.956 -12.529 -22.772  0.00  0.00    -0.316 N 
ATOM     19  H   UNL     1      31.151 -12.890 -23.207  0.00  0.00    +0.148 HD
BRANCH  18  20
ATOM     20  C   UNL     1      33.091 -13.399 -22.604  0.00  0.00    +0.115 C 
BRANCH  20  22
ATOM     21  N   UNL     1      33.693 -15.792 -26.124  0.00  0.00    -0.242 NA
ATOM     22  C   UNL     1      33.301 -14.235 -23.836  0.00  0.00    +0.000 C 
ATOM     23  C   UNL     1      32.816 -13.804 -25.064  0.00  0.00    +0.018 C 
ATOM     24  C   UNL     1      33.982 -15.444 -23.749  0.00  0.00    +0.018 C 
ATOM     25  C   UNL     1      33.036 -14.610 -26.168  0.00  0.00    +0.099 C 
ATOM     26  C   UNL     1      34.150 -16.178 -24.912  0.00  0.00    +0.099 C 
ENDBRANCH  20  22
ENDBRANCH  18  20
ENDBRANCH   4  18
TORSDOF 4
ENDMDL
