MODEL 1
REMARK VINA RESULT:      -8.9      0.000      0.000
REMARK  Name = 446659
REMARK  5 active torsions:
REMARK  status: ('A' for Active; 'I' for Inactive)
REMARK    1  A    between atoms: C_6  and  C_16
REMARK    2  A    between atoms: C_15  and  O_19
REMARK    3  A    between atoms: C_17  and  O_21
REMARK    4  A    between atoms: C_18  and  C_23
REMARK    5  A    between atoms: C_23  and  O_24
REMARK                            x       y       z     vdW  Elec       q    Type
REMARK                         _______ _______ _______ _____ _____    ______ ____
ROOT
ATOM      1  N   UNL     1      37.562 -22.469 -16.154  0.00  0.00    -0.251 N 
ATOM      2  N   UNL     1      37.244 -21.734 -17.238  0.00  0.00    -0.181 NA
ATOM      3  N   UNL     1      34.360 -23.735 -16.645  0.00  0.00    -0.245 NA
ATOM      4  N   UNL     1      33.926 -22.308 -18.638  0.00  0.00    -0.228 NA
ATOM      5  N   UNL     1      35.522 -20.732 -19.531  0.00  0.00    -0.316 N 
ATOM      6  C   UNL     1      36.584 -23.321 -15.742  0.00  0.00    +0.158 C 
ATOM      7  C   UNL     1      35.565 -23.124 -16.622  0.00  0.00    +0.099 C 
ATOM      8  C   UNL     1      35.997 -22.122 -17.557  0.00  0.00    +0.144 C 
ATOM      9  C   UNL     1      35.148 -21.707 -18.592  0.00  0.00    +0.146 C 
ATOM     10  C   UNL     1      33.623 -23.254 -17.689  0.00  0.00    +0.252 C 
ATOM     11  C   UNL     1      34.663 -20.301 -20.595  0.00  0.00    +0.110 C 
ATOM     12  H   UNL     1      38.430 -22.394 -15.696  0.00  0.00    +0.169 HD
ATOM     13  H   UNL     1      36.415 -20.326 -19.455  0.00  0.00    +0.148 HD
ENDROOT
BRANCH   6  16
ATOM     14  O   UNL     1      38.012 -23.941 -13.910  0.00  0.00    -0.349 OA
ATOM     15  C   UNL     1      36.787 -25.707 -14.902  0.00  0.00    +0.169 C 
ATOM     16  C   UNL     1      36.750 -24.228 -14.547  0.00  0.00    +0.169 C 
ATOM     17  C   UNL     1      37.614 -26.284 -13.769  0.00  0.00    +0.169 C 
ATOM     18  C   UNL     1      38.638 -25.183 -13.515  0.00  0.00    +0.174 C 
BRANCH  15  19
ATOM     19  O   UNL     1      35.490 -26.264 -14.976  0.00  0.00    -0.379 OA
ATOM     20  H   UNL     1      35.170 -26.218 -15.891  0.00  0.00    +0.211 HD
ENDBRANCH  15  19
BRANCH  17  21
ATOM     21  O   UNL     1      36.817 -26.467 -12.599  0.00  0.00    -0.379 OA
ATOM     22  H   UNL     1      37.099 -25.841 -11.915  0.00  0.00    +0.211 HD
ENDBRANCH  17  21
BRANCH  18  23
ATOM     23  C   UNL     1      39.911 -25.357 -14.330  0.00  0.00    +0.169 C 
BRANCH  23  24
ATOM     24  O   UNL     1      40.124 -26.741 -14.550  0.00  0.00    -0.379 OA
ATOM     25  H   UNL     1      40.953 -26.867 -15.037  0.00  0.00    +0.211 HD
ENDBRANCH  23  24
ENDBRANCH  18  23
ENDBRANCH   6  16
TORSDOF 5
ENDMDL
MODEL 2
REMARK VINA RESULT:      -8.8      2.382      3.939
REMARK  Name = 446659
REMARK  5 active torsions:
REMARK  status: ('A' for Active; 'I' for Inactive)
REMARK    1  A    between atoms: C_6  and  C_16
REMARK    2  A    between atoms: C_15  and  O_19
REMARK    3  A    between atoms: C_17  and  O_21
REMARK    4  A    between atoms: C_18  and  C_23
REMARK    5  A    between atoms: C_23  and  O_24
REMARK                            x       y       z     vdW  Elec       q    Type
REMARK                         _______ _______ _______ _____ _____    ______ ____
ROOT
ATOM      1  N   UNL     1      34.479 -24.777 -13.600  0.00  0.00    -0.251 N 
ATOM      2  N   UNL     1      33.216 -24.309 -13.549  0.00  0.00    -0.181 NA
ATOM      3  N   UNL     1      34.225 -23.773 -16.921  0.00  0.00    -0.245 NA
ATOM      4  N   UNL     1      31.889 -22.952 -16.662  0.00  0.00    -0.228 NA
ATOM      5  N   UNL     1      30.656 -23.048 -14.590  0.00  0.00    -0.316 N 
ATOM      6  C   UNL     1      35.072 -24.670 -14.820  0.00  0.00    +0.158 C 
ATOM      7  C   UNL     1      34.126 -24.094 -15.612  0.00  0.00    +0.099 C 
ATOM      8  C   UNL     1      32.965 -23.873 -14.796  0.00  0.00    +0.144 C 
ATOM      9  C   UNL     1      31.816 -23.286 -15.343  0.00  0.00    +0.146 C 
ATOM     10  C   UNL     1      33.054 -23.211 -17.343  0.00  0.00    +0.252 C 
ATOM     11  C   UNL     1      29.476 -22.446 -15.138  0.00  0.00    +0.110 C 
ATOM     12  H   UNL     1      34.936 -25.165 -12.819  0.00  0.00    +0.169 HD
ATOM     13  H   UNL     1      30.652 -23.308 -13.640  0.00  0.00    +0.148 HD
ENDROOT
BRANCH   6  16
ATOM     14  O   UNL     1      36.803 -26.203 -14.161  0.00  0.00    -0.349 OA
ATOM     15  C   UNL     1      37.535 -24.061 -14.853  0.00  0.00    +0.169 C 
ATOM     16  C   UNL     1      36.484 -25.137 -15.079  0.00  0.00    +0.169 C 
ATOM     17  C   UNL     1      38.757 -24.883 -14.489  0.00  0.00    +0.169 C 
ATOM     18  C   UNL     1      38.155 -26.027 -13.680  0.00  0.00    +0.174 C 
BRANCH  15  19
ATOM     19  O   UNL     1      37.730 -23.264 -16.003  0.00  0.00    -0.379 OA
ATOM     20  H   UNL     1      37.123 -22.508 -15.980  0.00  0.00    +0.211 HD
ENDBRANCH  15  19
BRANCH  17  21
ATOM     21  O   UNL     1      39.382 -25.410 -15.659  0.00  0.00    -0.379 OA
ATOM     22  H   UNL     1      38.838 -25.206 -16.435  0.00  0.00    +0.211 HD
ENDBRANCH  17  21
BRANCH  18  23
ATOM     23  C   UNL     1      38.096 -25.732 -12.188  0.00  0.00    +0.169 C 
BRANCH  23  24
ATOM     24  O   UNL     1      36.782 -25.990 -11.725  0.00  0.00    -0.379 OA
ATOM     25  H   UNL     1      36.823 -26.484 -10.892  0.00  0.00    +0.211 HD
ENDBRANCH  23  24
ENDBRANCH  18  23
ENDBRANCH   6  16
TORSDOF 5
ENDMDL
MODEL 3
REMARK VINA RESULT:      -8.7      2.386      3.786
REMARK  Name = 446659
REMARK  5 active torsions:
REMARK  status: ('A' for Active; 'I' for Inactive)
REMARK    1  A    between atoms: C_6  and  C_16
REMARK    2  A    between atoms: C_15  and  O_19
REMARK    3  A    between atoms: C_17  and  O_21
REMARK    4  A    between atoms: C_18  and  C_23
REMARK    5  A    between atoms: C_23  and  O_24
REMARK                            x       y       z     vdW  Elec       q    Type
REMARK                         _______ _______ _______ _____ _____    ______ ____
ROOT
ATOM      1  N   UNL     1      33.741 -23.682 -13.566  0.00  0.00    -0.251 N 
ATOM      2  N   UNL     1      32.451 -23.501 -13.915  0.00  0.00    -0.181 NA
ATOM      3  N   UNL     1      34.248 -23.214 -16.975  0.00  0.00    -0.245 NA
ATOM      4  N   UNL     1      31.825 -22.898 -17.456  0.00  0.00    -0.228 NA
ATOM      5  N   UNL     1      30.102 -22.984 -15.770  0.00  0.00    -0.316 N 
ATOM      6  C   UNL     1      34.621 -23.613 -14.601  0.00  0.00    +0.158 C 
ATOM      7  C   UNL     1      33.847 -23.369 -15.694  0.00  0.00    +0.099 C 
ATOM      8  C   UNL     1      32.485 -23.302 -15.244  0.00  0.00    +0.144 C 
ATOM      9  C   UNL     1      31.449 -23.059 -16.157  0.00  0.00    +0.146 C 
ATOM     10  C   UNL     1      33.161 -22.984 -17.769  0.00  0.00    +0.252 C 
ATOM     11  C   UNL     1      29.034 -22.735 -16.693  0.00  0.00    +0.110 C 
ATOM     12  H   UNL     1      34.023 -23.852 -12.638  0.00  0.00    +0.169 HD
ATOM     13  H   UNL     1      29.880 -23.108 -14.819  0.00  0.00    +0.148 HD
ENDROOT
BRANCH   6  16
ATOM     14  O   UNL     1      36.614 -24.659 -15.447  0.00  0.00    -0.349 OA
ATOM     15  C   UNL     1      36.486 -24.442 -13.093  0.00  0.00    +0.169 C 
ATOM     16  C   UNL     1      36.108 -23.788 -14.413  0.00  0.00    +0.169 C 
ATOM     17  C   UNL     1      37.804 -25.109 -13.435  0.00  0.00    +0.169 C 
ATOM     18  C   UNL     1      37.578 -25.570 -14.871  0.00  0.00    +0.174 C 
BRANCH  15  19
ATOM     19  O   UNL     1      36.601 -23.496 -12.050  0.00  0.00    -0.379 OA
ATOM     20  H   UNL     1      36.859 -23.947 -11.230  0.00  0.00    +0.211 HD
ENDBRANCH  15  19
BRANCH  17  21
ATOM     21  O   UNL     1      38.874 -24.165 -13.404  0.00  0.00    -0.379 OA
ATOM     22  H   UNL     1      38.936 -23.719 -14.264  0.00  0.00    +0.211 HD
ENDBRANCH  17  21
BRANCH  18  23
ATOM     23  C   UNL     1      37.015 -26.981 -14.959  0.00  0.00    +0.169 C 
BRANCH  23  24
ATOM     24  O   UNL     1      36.755 -27.282 -16.319  0.00  0.00    -0.379 OA
ATOM     25  H   UNL     1      37.411 -27.919 -16.641  0.00  0.00    +0.211 HD
ENDBRANCH  23  24
ENDBRANCH  18  23
ENDBRANCH   6  16
TORSDOF 5
ENDMDL
MODEL 4
REMARK VINA RESULT:      -8.5      2.902      4.629
REMARK  Name = 446659
REMARK  5 active torsions:
REMARK  status: ('A' for Active; 'I' for Inactive)
REMARK    1  A    between atoms: C_6  and  C_16
REMARK    2  A    between atoms: C_15  and  O_19
REMARK    3  A    between atoms: C_17  and  O_21
REMARK    4  A    between atoms: C_18  and  C_23
REMARK    5  A    between atoms: C_23  and  O_24
REMARK                            x       y       z     vdW  Elec       q    Type
REMARK                         _______ _______ _______ _____ _____    ______ ____
ROOT
ATOM      1  N   UNL     1      32.577 -22.343 -18.528  0.00  0.00    -0.251 N 
ATOM      2  N   UNL     1      32.674 -21.440 -19.525  0.00  0.00    -0.181 NA
ATOM      3  N   UNL     1      36.037 -21.988 -18.495  0.00  0.00    -0.245 NA
ATOM      4  N   UNL     1      36.046 -20.326 -20.349  0.00  0.00    -0.228 NA
ATOM      5  N   UNL     1      34.051 -19.551 -21.463  0.00  0.00    -0.316 N 
ATOM      6  C   UNL     1      33.767 -22.704 -17.977  0.00  0.00    +0.158 C 
ATOM      7  C   UNL     1      34.696 -21.986 -18.664  0.00  0.00    +0.099 C 
ATOM      8  C   UNL     1      33.991 -21.195 -19.634  0.00  0.00    +0.144 C 
ATOM      9  C   UNL     1      34.692 -20.343 -20.499  0.00  0.00    +0.146 C 
ATOM     10  C   UNL     1      36.611 -21.126 -19.386  0.00  0.00    +0.252 C 
ATOM     11  C   UNL     1      34.757 -18.674 -22.352  0.00  0.00    +0.110 C 
ATOM     12  H   UNL     1      31.716 -22.711 -18.224  0.00  0.00    +0.169 HD
ATOM     13  H   UNL     1      33.070 -19.599 -21.533  0.00  0.00    +0.148 HD
ENDROOT
BRANCH   6  16
ATOM     14  O   UNL     1      32.557 -23.907 -16.283  0.00  0.00    -0.349 OA
ATOM     15  C   UNL     1      34.752 -23.240 -15.700  0.00  0.00    +0.169 C 
ATOM     16  C   UNL     1      33.868 -23.702 -16.848  0.00  0.00    +0.169 C 
ATOM     17  C   UNL     1      34.156 -23.986 -14.521  0.00  0.00    +0.169 C 
ATOM     18  C   UNL     1      32.665 -23.973 -14.842  0.00  0.00    +0.174 C 
BRANCH  15  19
ATOM     19  O   UNL     1      36.111 -23.554 -15.921  0.00  0.00    -0.379 OA
ATOM     20  H   UNL     1      36.672 -22.917 -15.451  0.00  0.00    +0.211 HD
ENDBRANCH  15  19
BRANCH  17  21
ATOM     21  O   UNL     1      34.620 -25.335 -14.487  0.00  0.00    -0.379 OA
ATOM     22  H   UNL     1      33.966 -25.890 -14.035  0.00  0.00    +0.211 HD
ENDBRANCH  17  21
BRANCH  18  23
ATOM     23  C   UNL     1      31.942 -22.771 -14.253  0.00  0.00    +0.169 C 
BRANCH  23  24
ATOM     24  O   UNL     1      32.177 -22.739 -12.856  0.00  0.00    -0.379 OA
ATOM     25  H   UNL     1      31.587 -23.369 -12.414  0.00  0.00    +0.211 HD
ENDBRANCH  23  24
ENDBRANCH  18  23
ENDBRANCH   6  16
TORSDOF 5
ENDMDL
MODEL 5
REMARK VINA RESULT:      -8.5      3.583      5.924
REMARK  Name = 446659
REMARK  5 active torsions:
REMARK  status: ('A' for Active; 'I' for Inactive)
REMARK    1  A    between atoms: C_6  and  C_16
REMARK    2  A    between atoms: C_15  and  O_19
REMARK    3  A    between atoms: C_17  and  O_21
REMARK    4  A    between atoms: C_18  and  C_23
REMARK    5  A    between atoms: C_23  and  O_24
REMARK                            x       y       z     vdW  Elec       q    Type
REMARK                         _______ _______ _______ _____ _____    ______ ____
ROOT
ATOM      1  N   UNL     1      32.140 -22.886 -17.875  0.00  0.00    -0.251 N 
ATOM      2  N   UNL     1      33.007 -22.343 -18.754  0.00  0.00    -0.181 NA
ATOM      3  N   UNL     1      35.007 -23.165 -15.926  0.00  0.00    -0.245 NA
ATOM      4  N   UNL     1      36.478 -22.141 -17.655  0.00  0.00    -0.228 NA
ATOM      5  N   UNL     1      35.688 -21.375 -19.802  0.00  0.00    -0.316 N 
ATOM      6  C   UNL     1      32.701 -23.281 -16.700  0.00  0.00    +0.158 C 
ATOM      7  C   UNL     1      34.020 -22.971 -16.828  0.00  0.00    +0.099 C 
ATOM      8  C   UNL     1      34.195 -22.382 -18.126  0.00  0.00    +0.144 C 
ATOM      9  C   UNL     1      35.463 -21.957 -18.545  0.00  0.00    +0.146 C 
ATOM     10  C   UNL     1      36.190 -22.717 -16.441  0.00  0.00    +0.252 C 
ATOM     11  C   UNL     1      36.980 -20.935 -20.242  0.00  0.00    +0.110 C 
ATOM     12  H   UNL     1      31.180 -22.989 -18.069  0.00  0.00    +0.169 HD
ATOM     13  H   UNL     1      34.923 -21.264 -20.412  0.00  0.00    +0.148 HD
ENDROOT
BRANCH   6  16
ATOM     14  O   UNL     1      30.564 -24.188 -16.073  0.00  0.00    -0.349 OA
ATOM     15  C   UNL     1      31.721 -23.012 -14.374  0.00  0.00    +0.169 C 
ATOM     16  C   UNL     1      31.895 -23.911 -15.589  0.00  0.00    +0.169 C 
ATOM     17  C   UNL     1      30.413 -23.514 -13.794  0.00  0.00    +0.169 C 
ATOM     18  C   UNL     1      29.605 -23.851 -15.043  0.00  0.00    +0.174 C 
BRANCH  15  19
ATOM     19  O   UNL     1      32.803 -23.128 -13.474  0.00  0.00    -0.379 OA
ATOM     20  H   UNL     1      33.386 -22.357 -13.567  0.00  0.00    +0.211 HD
ENDBRANCH  15  19
BRANCH  17  21
ATOM     21  O   UNL     1      30.618 -24.701 -13.030  0.00  0.00    -0.379 OA
ATOM     22  H   UNL     1      29.894 -24.804 -12.392  0.00  0.00    +0.211 HD
ENDBRANCH  17  21
BRANCH  18  23
ATOM     23  C   UNL     1      28.764 -22.684 -15.538  0.00  0.00    +0.169 C 
BRANCH  23  24
ATOM     24  O   UNL     1      29.108 -22.415 -16.886  0.00  0.00    -0.379 OA
ATOM     25  H   UNL     1      29.753 -21.691 -16.918  0.00  0.00    +0.211 HD
ENDBRANCH  23  24
ENDBRANCH  18  23
ENDBRANCH   6  16
TORSDOF 5
ENDMDL
MODEL 6
REMARK VINA RESULT:      -8.5      2.914      4.206
REMARK  Name = 446659
REMARK  5 active torsions:
REMARK  status: ('A' for Active; 'I' for Inactive)
REMARK    1  A    between atoms: C_6  and  C_16
REMARK    2  A    between atoms: C_15  and  O_19
REMARK    3  A    between atoms: C_17  and  O_21
REMARK    4  A    between atoms: C_18  and  C_23
REMARK    5  A    between atoms: C_23  and  O_24
REMARK                            x       y       z     vdW  Elec       q    Type
REMARK                         _______ _______ _______ _____ _____    ______ ____
ROOT
ATOM      1  N   UNL     1      33.976 -23.274 -16.811  0.00  0.00    -0.251 N 
ATOM      2  N   UNL     1      32.681 -23.144 -17.161  0.00  0.00    -0.181 NA
ATOM      3  N   UNL     1      32.604 -23.580 -13.629  0.00  0.00    -0.245 NA
ATOM      4  N   UNL     1      30.263 -23.324 -14.437  0.00  0.00    -0.228 NA
ATOM      5  N   UNL     1      29.674 -22.996 -16.754  0.00  0.00    -0.316 N 
ATOM      6  C   UNL     1      34.185 -23.453 -15.478  0.00  0.00    +0.158 C 
ATOM      7  C   UNL     1      32.938 -23.439 -14.931  0.00  0.00    +0.099 C 
ATOM      8  C   UNL     1      32.004 -23.244 -16.004  0.00  0.00    +0.144 C 
ATOM      9  C   UNL     1      30.628 -23.185 -15.743  0.00  0.00    +0.146 C 
ATOM     10  C   UNL     1      31.247 -23.507 -13.496  0.00  0.00    +0.252 C 
ATOM     11  C   UNL     1      28.265 -22.936 -16.500  0.00  0.00    +0.110 C 
ATOM     12  H   UNL     1      34.711 -23.240 -17.465  0.00  0.00    +0.169 HD
ATOM     13  H   UNL     1      29.988 -22.899 -17.683  0.00  0.00    +0.148 HD
ENDROOT
BRANCH   6  16
ATOM     14  O   UNL     1      36.326 -24.520 -15.721  0.00  0.00    -0.349 OA
ATOM     15  C   UNL     1      35.566 -24.233 -13.497  0.00  0.00    +0.169 C 
ATOM     16  C   UNL     1      35.565 -23.620 -14.889  0.00  0.00    +0.169 C 
ATOM     17  C   UNL     1      36.924 -24.906 -13.449  0.00  0.00    +0.169 C 
ATOM     18  C   UNL     1      37.093 -25.411 -14.878  0.00  0.00    +0.174 C 
BRANCH  15  19
ATOM     19  O   UNL     1      35.400 -23.255 -12.491  0.00  0.00    -0.379 OA
ATOM     20  H   UNL     1      36.050 -22.545 -12.618  0.00  0.00    +0.211 HD
ENDBRANCH  15  19
BRANCH  17  21
ATOM     21  O   UNL     1      37.951 -23.959 -13.158  0.00  0.00    -0.379 OA
ATOM     22  H   UNL     1      37.559 -23.078 -13.057  0.00  0.00    +0.211 HD
ENDBRANCH  17  21
BRANCH  18  23
ATOM     23  C   UNL     1      36.567 -26.825 -15.074  0.00  0.00    +0.169 C 
BRANCH  23  24
ATOM     24  O   UNL     1      36.911 -27.262 -16.377  0.00  0.00    -0.379 OA
ATOM     25  H   UNL     1      37.661 -26.742 -16.705  0.00  0.00    +0.211 HD
ENDBRANCH  23  24
ENDBRANCH  18  23
ENDBRANCH   6  16
TORSDOF 5
ENDMDL
MODEL 7
REMARK VINA RESULT:      -8.5      2.962      4.094
REMARK  Name = 446659
REMARK  5 active torsions:
REMARK  status: ('A' for Active; 'I' for Inactive)
REMARK    1  A    between atoms: C_6  and  C_16
REMARK    2  A    between atoms: C_15  and  O_19
REMARK    3  A    between atoms: C_17  and  O_21
REMARK    4  A    between atoms: C_18  and  C_23
REMARK    5  A    between atoms: C_23  and  O_24
REMARK                            x       y       z     vdW  Elec       q    Type
REMARK                         _______ _______ _______ _____ _____    ______ ____
ROOT
ATOM      1  N   UNL     1      34.656 -23.751 -15.806  0.00  0.00    -0.251 N 
ATOM      2  N   UNL     1      33.511 -23.270 -16.330  0.00  0.00    -0.181 NA
ATOM      3  N   UNL     1      32.481 -25.024 -13.409  0.00  0.00    -0.245 NA
ATOM      4  N   UNL     1      30.459 -24.070 -14.503  0.00  0.00    -0.228 NA
ATOM      5  N   UNL     1      30.522 -22.769 -16.534  0.00  0.00    -0.316 N 
ATOM      6  C   UNL     1      34.495 -24.468 -14.661  0.00  0.00    +0.158 C 
ATOM      7  C   UNL     1      33.154 -24.450 -14.430  0.00  0.00    +0.099 C 
ATOM      8  C   UNL     1      32.550 -23.692 -15.490  0.00  0.00    +0.144 C 
ATOM      9  C   UNL     1      31.162 -23.500 -15.521  0.00  0.00    +0.146 C 
ATOM     10  C   UNL     1      31.146 -24.773 -13.543  0.00  0.00    +0.252 C 
ATOM     11  C   UNL     1      29.103 -22.567 -16.578  0.00  0.00    +0.110 C 
ATOM     12  H   UNL     1      35.537 -23.595 -16.217  0.00  0.00    +0.169 HD
ATOM     13  H   UNL     1      31.074 -22.376 -17.248  0.00  0.00    +0.148 HD
ENDROOT
BRANCH   6  16
ATOM     14  O   UNL     1      35.596 -24.698 -12.536  0.00  0.00    -0.349 OA
ATOM     15  C   UNL     1      37.017 -24.632 -14.428  0.00  0.00    +0.169 C 
ATOM     16  C   UNL     1      35.657 -25.088 -13.923  0.00  0.00    +0.169 C 
ATOM     17  C   UNL     1      37.883 -24.788 -13.193  0.00  0.00    +0.169 C 
ATOM     18  C   UNL     1      36.931 -24.390 -12.070  0.00  0.00    +0.174 C 
BRANCH  15  19
ATOM     19  O   UNL     1      37.464 -25.412 -15.517  0.00  0.00    -0.379 OA
ATOM     20  H   UNL     1      36.709 -25.869 -15.921  0.00  0.00    +0.211 HD
ENDBRANCH  15  19
BRANCH  17  21
ATOM     21  O   UNL     1      38.277 -26.149 -13.018  0.00  0.00    -0.379 OA
ATOM     22  H   UNL     1      39.214 -26.184 -12.770  0.00  0.00    +0.211 HD
ENDBRANCH  17  21
BRANCH  18  23
ATOM     23  C   UNL     1      36.992 -22.907 -11.739  0.00  0.00    +0.169 C 
BRANCH  23  24
ATOM     24  O   UNL     1      38.339 -22.475 -11.829  0.00  0.00    -0.379 OA
ATOM     25  H   UNL     1      38.362 -21.532 -12.053  0.00  0.00    +0.211 HD
ENDBRANCH  23  24
ENDBRANCH  18  23
ENDBRANCH   6  16
TORSDOF 5
ENDMDL
MODEL 8
REMARK VINA RESULT:      -8.4      2.975      4.638
REMARK  Name = 446659
REMARK  5 active torsions:
REMARK  status: ('A' for Active; 'I' for Inactive)
REMARK    1  A    between atoms: C_6  and  C_16
REMARK    2  A    between atoms: C_15  and  O_19
REMARK    3  A    between atoms: C_17  and  O_21
REMARK    4  A    between atoms: C_18  and  C_23
REMARK    5  A    between atoms: C_23  and  O_24
REMARK                            x       y       z     vdW  Elec       q    Type
REMARK                         _______ _______ _______ _____ _____    ______ ____
ROOT
ATOM      1  N   UNL     1      33.586 -23.182 -17.428  0.00  0.00    -0.251 N 
ATOM      2  N   UNL     1      32.277 -22.937 -17.638  0.00  0.00    -0.181 NA
ATOM      3  N   UNL     1      32.494 -23.675 -14.163  0.00  0.00    -0.245 NA
ATOM      4  N   UNL     1      30.114 -23.195 -14.714  0.00  0.00    -0.228 NA
ATOM      5  N   UNL     1      29.341 -22.626 -16.928  0.00  0.00    -0.316 N 
ATOM      6  C   UNL     1      33.903 -23.492 -16.142  0.00  0.00    +0.158 C 
ATOM      7  C   UNL     1      32.717 -23.443 -15.475  0.00  0.00    +0.099 C 
ATOM      8  C   UNL     1      31.705 -23.092 -16.432  0.00  0.00    +0.144 C 
ATOM      9  C   UNL     1      30.367 -22.966 -16.033  0.00  0.00    +0.146 C 
ATOM     10  C   UNL     1      31.164 -23.524 -13.892  0.00  0.00    +0.252 C 
ATOM     11  C   UNL     1      27.969 -22.495 -16.533  0.00  0.00    +0.110 C 
ATOM     12  H   UNL     1      34.258 -23.141 -18.147  0.00  0.00    +0.169 HD
ATOM     13  H   UNL     1      29.574 -22.469 -17.872  0.00  0.00    +0.148 HD
ENDROOT
BRANCH   6  16
ATOM     14  O   UNL     1      35.277 -24.767 -14.636  0.00  0.00    -0.349 OA
ATOM     15  C   UNL     1      36.063 -22.596 -15.156  0.00  0.00    +0.169 C 
ATOM     16  C   UNL     1      35.315 -23.800 -15.706  0.00  0.00    +0.169 C 
ATOM     17  C   UNL     1      37.057 -23.244 -14.211  0.00  0.00    +0.169 C 
ATOM     18  C   UNL     1      36.253 -24.404 -13.633  0.00  0.00    +0.174 C 
BRANCH  15  19
ATOM     19  O   UNL     1      36.684 -21.848 -16.181  0.00  0.00    -0.379 OA
ATOM     20  H   UNL     1      36.896 -22.433 -16.926  0.00  0.00    +0.211 HD
ENDBRANCH  15  19
BRANCH  17  21
ATOM     21  O   UNL     1      38.179 -23.757 -14.928  0.00  0.00    -0.379 OA
ATOM     22  H   UNL     1      38.997 -23.486 -14.484  0.00  0.00    +0.211 HD
ENDBRANCH  17  21
BRANCH  18  23
ATOM     23  C   UNL     1      35.511 -24.033 -12.357  0.00  0.00    +0.169 C 
BRANCH  23  24
ATOM     24  O   UNL     1      34.429 -24.931 -12.183  0.00  0.00    -0.379 OA
ATOM     25  H   UNL     1      34.487 -25.640 -12.843  0.00  0.00    +0.211 HD
ENDBRANCH  23  24
ENDBRANCH  18  23
ENDBRANCH   6  16
TORSDOF 5
ENDMDL
MODEL 9
REMARK VINA RESULT:      -8.3      6.407      9.467
REMARK  Name = 446659
REMARK  5 active torsions:
REMARK  status: ('A' for Active; 'I' for Inactive)
REMARK    1  A    between atoms: C_6  and  C_16
REMARK    2  A    between atoms: C_15  and  O_19
REMARK    3  A    between atoms: C_17  and  O_21
REMARK    4  A    between atoms: C_18  and  C_23
REMARK    5  A    between atoms: C_23  and  O_24
REMARK                            x       y       z     vdW  Elec       q    Type
REMARK                         _______ _______ _______ _____ _____    ______ ____
ROOT
ATOM      1  N   UNL     1      33.014 -19.367 -21.086  0.00  0.00    -0.251 N 
ATOM      2  N   UNL     1      32.666 -20.414 -20.310  0.00  0.00    -0.181 NA
ATOM      3  N   UNL     1      36.211 -20.250 -20.036  0.00  0.00    -0.245 NA
ATOM      4  N   UNL     1      35.405 -22.153 -18.648  0.00  0.00    -0.228 NA
ATOM      5  N   UNL     1      33.081 -22.765 -18.434  0.00  0.00    -0.316 N 
ATOM      6  C   UNL     1      34.351 -19.117 -21.128  0.00  0.00    +0.158 C 
ATOM      7  C   UNL     1      34.904 -20.068 -20.326  0.00  0.00    +0.099 C 
ATOM      8  C   UNL     1      33.829 -20.875 -19.820  0.00  0.00    +0.144 C 
ATOM      9  C   UNL     1      34.094 -21.947 -18.956  0.00  0.00    +0.146 C 
ATOM     10  C   UNL     1      36.348 -21.315 -19.192  0.00  0.00    +0.252 C 
ATOM     11  C   UNL     1      33.340 -23.865 -17.551  0.00  0.00    +0.110 C 
ATOM     12  H   UNL     1      32.356 -18.828 -21.580  0.00  0.00    +0.169 HD
ATOM     13  H   UNL     1      32.148 -22.576 -18.685  0.00  0.00    +0.148 HD
ENDROOT
BRANCH   6  16
ATOM     14  O   UNL     1      34.781 -16.753 -21.214  0.00  0.00    -0.349 OA
ATOM     15  C   UNL     1      34.253 -17.778 -23.282  0.00  0.00    +0.169 C 
ATOM     16  C   UNL     1      34.939 -17.990 -21.941  0.00  0.00    +0.169 C 
ATOM     17  C   UNL     1      34.499 -16.304 -23.535  0.00  0.00    +0.169 C 
ATOM     18  C   UNL     1      34.396 -15.707 -22.135  0.00  0.00    +0.174 C 
BRANCH  15  19
ATOM     19  O   UNL     1      34.795 -18.608 -24.288  0.00  0.00    -0.379 OA
ATOM     20  H   UNL     1      34.789 -19.531 -23.986  0.00  0.00    +0.211 HD
ENDBRANCH  15  19
BRANCH  17  21
ATOM     21  O   UNL     1      35.814 -16.088 -24.045  0.00  0.00    -0.379 OA
ATOM     22  H   UNL     1      36.440 -16.025 -23.307  0.00  0.00    +0.211 HD
ENDBRANCH  17  21
BRANCH  18  23
ATOM     23  C   UNL     1      32.986 -15.256 -21.785  0.00  0.00    +0.169 C 
BRANCH  23  24
ATOM     24  O   UNL     1      32.484 -16.092 -20.756  0.00  0.00    -0.379 OA
ATOM     25  H   UNL     1      31.879 -15.585 -20.193  0.00  0.00    +0.211 HD
ENDBRANCH  23  24
ENDBRANCH  18  23
ENDBRANCH   6  16
TORSDOF 5
ENDMDL
