MODEL 1
REMARK VINA RESULT:      -1.7      0.000      0.000
REMARK  Name = 6329
REMARK  0 active torsions:
REMARK  status: ('A' for Active; 'I' for Inactive)
REMARK                            x       y       z     vdW  Elec       q    Type
REMARK                         _______ _______ _______ _____ _____    ______ ____
ROOT
ATOM      1  N   UNL     1      40.684 -13.049 -13.549  0.00  0.00    +0.379 N 
ATOM      2  C   UNL     1      40.861 -13.926 -14.664  0.00  0.00    -0.111 C 
ATOM      3  H   UNL     1      39.854 -13.329 -13.025  0.00  0.00    -0.089 HD
ATOM      4  H   UNL     1      40.568 -12.092 -13.884  0.00  0.00    -0.089 HD
ATOM      5  H   UNL     1      41.502 -13.101 -12.943  0.00  0.00    -0.089 HD
ENDROOT
TORSDOF 0
ENDMDL
MODEL 2
REMARK VINA RESULT:      -1.6     11.341     11.341
REMARK  Name = 6329
REMARK  0 active torsions:
REMARK  status: ('A' for Active; 'I' for Inactive)
REMARK                            x       y       z     vdW  Elec       q    Type
REMARK                         _______ _______ _______ _____ _____    ______ ____
ROOT
ATOM      1  N   UNL     1      32.988  -7.674 -19.777  0.00  0.00    +0.379 N 
ATOM      2  C   UNL     1      32.247  -8.835 -20.163  0.00  0.00    -0.111 C 
ATOM      3  H   UNL     1      32.644  -7.335 -18.878  0.00  0.00    -0.089 HD
ATOM      4  H   UNL     1      32.872  -6.947 -20.483  0.00  0.00    -0.089 HD
ATOM      5  H   UNL     1      33.976  -7.913 -19.695  0.00  0.00    -0.089 HD
ENDROOT
TORSDOF 0
ENDMDL
MODEL 3
REMARK VINA RESULT:      -1.6     13.999     13.999
REMARK  Name = 6329
REMARK  0 active torsions:
REMARK  status: ('A' for Active; 'I' for Inactive)
REMARK                            x       y       z     vdW  Elec       q    Type
REMARK                         _______ _______ _______ _____ _____    ______ ____
ROOT
ATOM      1  N   UNL     1      36.112 -26.840 -15.186  0.00  0.00    +0.379 N 
ATOM      2  C   UNL     1      37.280 -26.781 -14.364  0.00  0.00    -0.111 C 
ATOM      3  H   UNL     1      35.306 -27.096 -14.615  0.00  0.00    -0.089 HD
ATOM      4  H   UNL     1      36.245 -27.538 -15.918  0.00  0.00    -0.089 HD
ATOM      5  H   UNL     1      35.949 -25.928 -15.613  0.00  0.00    -0.089 HD
ENDROOT
TORSDOF 0
ENDMDL
MODEL 4
REMARK VINA RESULT:      -1.6     12.192     12.192
REMARK  Name = 6329
REMARK  0 active torsions:
REMARK  status: ('A' for Active; 'I' for Inactive)
REMARK                            x       y       z     vdW  Elec       q    Type
REMARK                         _______ _______ _______ _____ _____    ______ ____
ROOT
ATOM      1  N   UNL     1      32.727 -20.908 -19.528  0.00  0.00    +0.379 N 
ATOM      2  C   UNL     1      32.889 -20.026 -20.642  0.00  0.00    -0.111 C 
ATOM      3  H   UNL     1      33.039 -21.845 -19.788  0.00  0.00    -0.089 HD
ATOM      4  H   UNL     1      31.744 -20.940 -19.259  0.00  0.00    -0.089 HD
ATOM      5  H   UNL     1      33.284 -20.571 -18.743  0.00  0.00    -0.089 HD
ENDROOT
TORSDOF 0
ENDMDL
MODEL 5
REMARK VINA RESULT:      -1.5      2.380      2.380
REMARK  Name = 6329
REMARK  0 active torsions:
REMARK  status: ('A' for Active; 'I' for Inactive)
REMARK                            x       y       z     vdW  Elec       q    Type
REMARK                         _______ _______ _______ _____ _____    ______ ____
ROOT
ATOM      1  N   UNL     1      40.528 -14.877 -15.149  0.00  0.00    +0.379 N 
ATOM      2  C   UNL     1      41.266 -16.002 -15.633  0.00  0.00    -0.111 C 
ATOM      3  H   UNL     1      39.559 -14.946 -15.460  0.00  0.00    -0.089 HD
ATOM      4  H   UNL     1      40.941 -14.017 -15.512  0.00  0.00    -0.089 HD
ATOM      5  H   UNL     1      40.558 -14.864 -14.130  0.00  0.00    -0.089 HD
ENDROOT
TORSDOF 0
ENDMDL
MODEL 6
REMARK VINA RESULT:      -1.5     10.868     10.868
REMARK  Name = 6329
REMARK  0 active torsions:
REMARK  status: ('A' for Active; 'I' for Inactive)
REMARK                            x       y       z     vdW  Elec       q    Type
REMARK                         _______ _______ _______ _____ _____    ______ ____
ROOT
ATOM      1  N   UNL     1      32.571  -8.868 -19.501  0.00  0.00    +0.379 N 
ATOM      2  C   UNL     1      31.844 -10.082 -19.296  0.00  0.00    -0.111 C 
ATOM      3  H   UNL     1      33.571  -9.048 -19.398  0.00  0.00    -0.089 HD
ATOM      4  H   UNL     1      32.278  -8.175 -18.812  0.00  0.00    -0.089 HD
ATOM      5  H   UNL     1      32.385  -8.514 -20.439  0.00  0.00    -0.089 HD
ENDROOT
TORSDOF 0
ENDMDL
MODEL 7
REMARK VINA RESULT:      -1.4     10.335     10.335
REMARK  Name = 6329
REMARK  0 active torsions:
REMARK  status: ('A' for Active; 'I' for Inactive)
REMARK                            x       y       z     vdW  Elec       q    Type
REMARK                         _______ _______ _______ _____ _____    ______ ____
ROOT
ATOM      1  N   UNL     1      38.408  -4.310 -10.458  0.00  0.00    +0.379 N 
ATOM      2  C   UNL     1      37.073  -4.610 -10.042  0.00  0.00    -0.111 C 
ATOM      3  H   UNL     1      39.041  -4.408  -9.664  0.00  0.00    -0.089 HD
ATOM      4  H   UNL     1      38.449  -3.353 -10.808  0.00  0.00    -0.089 HD
ATOM      5  H   UNL     1      38.687  -4.954 -11.197  0.00  0.00    -0.089 HD
ENDROOT
TORSDOF 0
ENDMDL
MODEL 8
REMARK VINA RESULT:      -1.4      6.037      6.037
REMARK  Name = 6329
REMARK  0 active torsions:
REMARK  status: ('A' for Active; 'I' for Inactive)
REMARK                            x       y       z     vdW  Elec       q    Type
REMARK                         _______ _______ _______ _____ _____    ______ ____
ROOT
ATOM      1  N   UNL     1      42.944 -16.649 -19.379  0.00  0.00    +0.379 N 
ATOM      2  C   UNL     1      42.401 -16.560 -18.059  0.00  0.00    -0.111 C 
ATOM      3  H   UNL     1      43.621 -17.412 -19.418  0.00  0.00    -0.089 HD
ATOM      4  H   UNL     1      43.406 -15.772 -19.617  0.00  0.00    -0.089 HD
ATOM      5  H   UNL     1      42.192 -16.828 -20.044  0.00  0.00    -0.089 HD
ENDROOT
TORSDOF 0
ENDMDL
MODEL 9
REMARK VINA RESULT:      -1.4     12.306     12.306
REMARK  Name = 6329
REMARK  0 active torsions:
REMARK  status: ('A' for Active; 'I' for Inactive)
REMARK                            x       y       z     vdW  Elec       q    Type
REMARK                         _______ _______ _______ _____ _____    ______ ____
ROOT
ATOM      1  N   UNL     1      35.437 -16.494 -23.940  0.00  0.00    +0.379 N 
ATOM      2  C   UNL     1      34.717 -16.969 -25.081  0.00  0.00    -0.111 C 
ATOM      3  H   UNL     1      35.300 -17.136 -23.159  0.00  0.00    -0.089 HD
ATOM      4  H   UNL     1      35.094 -15.568 -23.683  0.00  0.00    -0.089 HD
ATOM      5  H   UNL     1      36.430 -16.438 -24.164  0.00  0.00    -0.089 HD
ENDROOT
TORSDOF 0
ENDMDL
