MODEL 1
REMARK VINA RESULT:      -9.5      0.000      0.000
REMARK  Name = 2780
REMARK  6 active torsions:
REMARK  status: ('A' for Active; 'I' for Inactive)
REMARK    1  A    between atoms: N_2  and  C_18
REMARK    2  A    between atoms: C_3  and  C_6
REMARK    3  A    between atoms: C_7  and  O_15
REMARK    4  A    between atoms: C_11  and  N_12
REMARK    5  A    between atoms: N_17  and  C_24
REMARK    6  A    between atoms: C_24  and  C_25
REMARK                            x       y       z     vdW  Elec       q    Type
REMARK                         _______ _______ _______ _____ _____    ______ ____
ROOT
ATOM      1  O   UNL     1      34.137 -23.551 -19.872  0.00  0.00    -0.270 OA
ATOM      2  N   UNL     1      34.315 -21.266 -19.513  0.00  0.00    -0.303 N 
ATOM      3  C   UNL     1      34.159 -22.585 -19.113  0.00  0.00    +0.249 C 
ATOM      4  H   UNL     1      34.319 -20.561 -18.826  0.00  0.00    +0.150 HD
ENDROOT
BRANCH   3   6
ATOM      5 CL   UNL     1      30.922 -23.577 -15.243  0.00  0.00    -0.081 Cl
ATOM      6  C   UNL     1      33.981 -22.803 -17.655  0.00  0.00    +0.088 C 
ATOM      7  C   UNL     1      35.076 -22.750 -16.814  0.00  0.00    +0.144 C 
ATOM      8  C   UNL     1      32.708 -23.055 -17.185  0.00  0.00    +0.020 C 
ATOM      9  C   UNL     1      34.889 -22.958 -15.448  0.00  0.00    +0.052 C 
ATOM     10  C   UNL     1      32.521 -23.263 -15.819  0.00  0.00    +0.071 C 
ATOM     11  C   UNL     1      33.611 -23.214 -14.950  0.00  0.00    +0.055 C 
BRANCH  11  12
ATOM     12  N   UNL     1      33.454 -23.420 -13.561  0.00  0.00    -0.356 N 
ATOM     13  H   UNL     1      33.642 -24.304 -13.170  0.00  0.00    +0.142 HD
ATOM     14  H   UNL     1      33.158 -22.679 -12.984  0.00  0.00    +0.142 HD
ENDBRANCH  11  12
BRANCH   7  15
ATOM     15  O   UNL     1      36.331 -22.501 -17.282  0.00  0.00    -0.471 OA
ATOM     16  C   UNL     1      37.181 -21.702 -16.460  0.00  0.00    +0.252 C 
ENDBRANCH   7  15
ENDBRANCH   3   6
BRANCH   2  18
ATOM     17  N   UNL     1      34.823 -17.977 -21.081  0.00  0.00    +0.390 N 
ATOM     18  C   UNL     1      34.473 -20.890 -20.899  0.00  0.00    +0.068 C 
ATOM     19  C   UNL     1      35.835 -20.236 -21.142  0.00  0.00    -0.003 C 
ATOM     20  C   UNL     1      33.352 -19.950 -21.348  0.00  0.00    -0.003 C 
ATOM     21  C   UNL     1      35.907 -18.820 -20.560  0.00  0.00    -0.075 C 
ATOM     22  C   UNL     1      33.507 -18.543 -20.759  0.00  0.00    -0.075 C 
ATOM     23  H   UNL     1      34.911 -17.945 -22.096  0.00  0.00    -0.079 HD
BRANCH  17  24
ATOM     24  C   UNL     1      34.936 -16.616 -20.557  0.00  0.00    -0.050 C 
BRANCH  24  25
ATOM     25  C   UNL     1      34.182 -15.625 -21.403  0.00  0.00    -0.043 C 
ATOM     26  C   UNL     1      33.130 -14.911 -20.846  0.00  0.00    -0.006 C 
ATOM     27  C   UNL     1      34.550 -15.439 -22.728  0.00  0.00    -0.006 C 
ATOM     28  C   UNL     1      32.432 -13.992 -21.631  0.00  0.00    -0.000 C 
ATOM     29  C   UNL     1      33.851 -14.521 -23.513  0.00  0.00    -0.000 C 
ATOM     30  C   UNL     1      32.792 -13.797 -22.964  0.00  0.00    -0.000 C 
ENDBRANCH  24  25
ENDBRANCH  17  24
ENDBRANCH   2  18
TORSDOF 6
ENDMDL
MODEL 2
REMARK VINA RESULT:      -9.2      6.306      9.740
REMARK  Name = 2780
REMARK  6 active torsions:
REMARK  status: ('A' for Active; 'I' for Inactive)
REMARK    1  A    between atoms: N_2  and  C_18
REMARK    2  A    between atoms: C_3  and  C_6
REMARK    3  A    between atoms: C_7  and  O_15
REMARK    4  A    between atoms: C_11  and  N_12
REMARK    5  A    between atoms: N_17  and  C_24
REMARK    6  A    between atoms: C_24  and  C_25
REMARK                            x       y       z     vdW  Elec       q    Type
REMARK                         _______ _______ _______ _____ _____    ______ ____
ROOT
ATOM      1  O   UNL     1      32.923 -14.253 -25.392  0.00  0.00    -0.270 OA
ATOM      2  N   UNL     1      34.231 -12.601 -24.423  0.00  0.00    -0.303 N 
ATOM      3  C   UNL     1      33.713 -13.883 -24.527  0.00  0.00    +0.249 C 
ATOM      4  H   UNL     1      34.860 -12.403 -23.692  0.00  0.00    +0.150 HD
ENDROOT
BRANCH   3   6
ATOM      5 CL   UNL     1      35.754 -18.478 -23.451  0.00  0.00    -0.081 Cl
ATOM      6  C   UNL     1      34.149 -14.845 -23.483  0.00  0.00    +0.088 C 
ATOM      7  C   UNL     1      34.018 -14.516 -22.149  0.00  0.00    +0.144 C 
ATOM      8  C   UNL     1      34.679 -16.053 -23.893  0.00  0.00    +0.020 C 
ATOM      9  C   UNL     1      34.432 -15.433 -21.183  0.00  0.00    +0.052 C 
ATOM     10  C   UNL     1      35.094 -16.970 -22.927  0.00  0.00    +0.071 C 
ATOM     11  C   UNL     1      34.971 -16.661 -21.572  0.00  0.00    +0.055 C 
BRANCH  11  12
ATOM     12  N   UNL     1      35.382 -17.568 -20.570  0.00  0.00    -0.356 N 
ATOM     13  H   UNL     1      35.342 -17.307 -19.622  0.00  0.00    +0.142 HD
ATOM     14  H   UNL     1      35.709 -18.463 -20.822  0.00  0.00    +0.142 HD
ENDBRANCH  11  12
BRANCH   7  15
ATOM     15  O   UNL     1      33.494 -13.324 -21.749  0.00  0.00    -0.471 OA
ATOM     16  C   UNL     1      32.261 -13.366 -21.032  0.00  0.00    +0.252 C 
ENDBRANCH   7  15
ENDBRANCH   3   6
BRANCH   2  18
ATOM     17  N   UNL     1      33.982  -8.961 -23.951  0.00  0.00    +0.390 N 
ATOM     18  C   UNL     1      33.882 -11.546 -25.347  0.00  0.00    +0.068 C 
ATOM     19  C   UNL     1      35.040 -10.559 -25.520  0.00  0.00    -0.003 C 
ATOM     20  C   UNL     1      32.624 -10.806 -24.891  0.00  0.00    -0.003 C 
ATOM     21  C   UNL     1      35.225  -9.667 -24.287  0.00  0.00    -0.075 C 
ATOM     22  C   UNL     1      32.890  -9.905 -23.680  0.00  0.00    -0.075 C 
ATOM     23  H   UNL     1      33.714  -8.396 -24.757  0.00  0.00    -0.079 HD
BRANCH  17  24
ATOM     24  C   UNL     1      34.189  -8.075 -22.806  0.00  0.00    -0.050 C 
BRANCH  24  25
ATOM     25  C   UNL     1      33.079  -7.068 -22.668  0.00  0.00    -0.043 C 
ATOM     26  C   UNL     1      32.723  -6.288 -23.760  0.00  0.00    -0.006 C 
ATOM     27  C   UNL     1      32.427  -6.934 -21.450  0.00  0.00    -0.006 C 
ATOM     28  C   UNL     1      31.694  -5.355 -23.631  0.00  0.00    -0.000 C 
ATOM     29  C   UNL     1      31.398  -6.000 -21.322  0.00  0.00    -0.000 C 
ATOM     30  C   UNL     1      31.031  -5.211 -22.412  0.00  0.00    -0.000 C 
ENDBRANCH  24  25
ENDBRANCH  17  24
ENDBRANCH   2  18
TORSDOF 6
ENDMDL
MODEL 3
REMARK VINA RESULT:      -9.0      1.584      2.254
REMARK  Name = 2780
REMARK  6 active torsions:
REMARK  status: ('A' for Active; 'I' for Inactive)
REMARK    1  A    between atoms: N_2  and  C_18
REMARK    2  A    between atoms: C_3  and  C_6
REMARK    3  A    between atoms: C_7  and  O_15
REMARK    4  A    between atoms: C_11  and  N_12
REMARK    5  A    between atoms: N_17  and  C_24
REMARK    6  A    between atoms: C_24  and  C_25
REMARK                            x       y       z     vdW  Elec       q    Type
REMARK                         _______ _______ _______ _____ _____    ______ ____
ROOT
ATOM      1  O   UNL     1      34.023 -23.387 -19.864  0.00  0.00    -0.270 OA
ATOM      2  N   UNL     1      34.458 -21.128 -19.565  0.00  0.00    -0.303 N 
ATOM      3  C   UNL     1      34.291 -22.436 -19.134  0.00  0.00    +0.249 C 
ATOM      4  H   UNL     1      34.673 -20.434 -18.900  0.00  0.00    +0.150 HD
ENDROOT
BRANCH   3   6
ATOM      5 CL   UNL     1      37.436 -22.762 -15.079  0.00  0.00    -0.081 Cl
ATOM      6  C   UNL     1      34.430 -22.659 -17.672  0.00  0.00    +0.088 C 
ATOM      7  C   UNL     1      33.307 -22.903 -16.906  0.00  0.00    +0.144 C 
ATOM      8  C   UNL     1      35.696 -22.613 -17.124  0.00  0.00    +0.020 C 
ATOM      9  C   UNL     1      33.457 -23.110 -15.534  0.00  0.00    +0.052 C 
ATOM     10  C   UNL     1      35.846 -22.821 -15.753  0.00  0.00    +0.071 C 
ATOM     11  C   UNL     1      34.727 -23.069 -14.958  0.00  0.00    +0.055 C 
BRANCH  11  12
ATOM     12  N   UNL     1      34.847 -23.283 -13.566  0.00  0.00    -0.356 N 
ATOM     13  H   UNL     1      34.260 -23.932 -13.116  0.00  0.00    +0.142 HD
ATOM     14  H   UNL     1      35.518 -22.782 -13.048  0.00  0.00    +0.142 HD
ENDBRANCH  11  12
BRANCH   7  15
ATOM     15  O   UNL     1      32.059 -22.947 -17.450  0.00  0.00    -0.471 OA
ATOM     16  C   UNL     1      30.957 -22.958 -16.544  0.00  0.00    +0.252 C 
ENDBRANCH   7  15
ENDBRANCH   3   6
BRANCH   2  18
ATOM     17  N   UNL     1      34.642 -17.834 -21.193  0.00  0.00    +0.390 N 
ATOM     18  C   UNL     1      34.329 -20.747 -20.953  0.00  0.00    +0.068 C 
ATOM     19  C   UNL     1      35.615 -20.095 -21.468  0.00  0.00    -0.003 C 
ATOM     20  C   UNL     1      33.143 -19.804 -21.159  0.00  0.00    -0.003 C 
ATOM     21  C   UNL     1      35.808 -18.681 -20.908  0.00  0.00    -0.075 C 
ATOM     22  C   UNL     1      33.418 -18.399 -20.610  0.00  0.00    -0.075 C 
ATOM     23  H   UNL     1      34.520 -17.798 -22.204  0.00  0.00    -0.079 HD
BRANCH  17  24
ATOM     24  C   UNL     1      34.864 -16.475 -20.699  0.00  0.00    -0.050 C 
BRANCH  24  25
ATOM     25  C   UNL     1      34.114 -15.454 -21.511  0.00  0.00    -0.043 C 
ATOM     26  C   UNL     1      33.030 -14.793 -20.948  0.00  0.00    -0.006 C 
ATOM     27  C   UNL     1      34.516 -15.188 -22.813  0.00  0.00    -0.006 C 
ATOM     28  C   UNL     1      32.336 -13.846 -21.702  0.00  0.00    -0.000 C 
ATOM     29  C   UNL     1      33.821 -14.241 -23.567  0.00  0.00    -0.000 C 
ATOM     30  C   UNL     1      32.731 -13.570 -23.011  0.00  0.00    -0.000 C 
ENDBRANCH  24  25
ENDBRANCH  17  24
ENDBRANCH   2  18
TORSDOF 6
ENDMDL
MODEL 4
REMARK VINA RESULT:      -8.8      7.750     11.822
REMARK  Name = 2780
REMARK  6 active torsions:
REMARK  status: ('A' for Active; 'I' for Inactive)
REMARK    1  A    between atoms: N_2  and  C_18
REMARK    2  A    between atoms: C_3  and  C_6
REMARK    3  A    between atoms: C_7  and  O_15
REMARK    4  A    between atoms: C_11  and  N_12
REMARK    5  A    between atoms: N_17  and  C_24
REMARK    6  A    between atoms: C_24  and  C_25
REMARK                            x       y       z     vdW  Elec       q    Type
REMARK                         _______ _______ _______ _____ _____    ______ ____
ROOT
ATOM      1  O   UNL     1      30.563 -11.369 -21.484  0.00  0.00    -0.270 OA
ATOM      2  N   UNL     1      32.358 -10.118 -22.253  0.00  0.00    -0.303 N 
ATOM      3  C   UNL     1      31.674 -11.298 -22.003  0.00  0.00    +0.249 C 
ATOM      4  H   UNL     1      33.247 -10.166 -22.674  0.00  0.00    +0.150 HD
ENDROOT
BRANCH   3   6
ATOM      5 CL   UNL     1      32.766 -16.182 -20.823  0.00  0.00    -0.081 Cl
ATOM      6  C   UNL     1      32.380 -12.549 -22.380  0.00  0.00    +0.088 C 
ATOM      7  C   UNL     1      33.126 -12.592 -23.542  0.00  0.00    +0.144 C 
ATOM      8  C   UNL     1      32.263 -13.640 -21.542  0.00  0.00    +0.020 C 
ATOM      9  C   UNL     1      33.782 -13.776 -23.879  0.00  0.00    +0.052 C 
ATOM     10  C   UNL     1      32.920 -14.824 -21.880  0.00  0.00    +0.071 C 
ATOM     11  C   UNL     1      33.679 -14.892 -23.048  0.00  0.00    +0.055 C 
BRANCH  11  12
ATOM     12  N   UNL     1      34.355 -16.077 -23.418  0.00  0.00    -0.356 N 
ATOM     13  H   UNL     1      33.900 -16.946 -23.347  0.00  0.00    +0.142 HD
ATOM     14  H   UNL     1      35.282 -16.031 -23.747  0.00  0.00    +0.142 HD
ENDBRANCH  11  12
BRANCH   7  15
ATOM     15  O   UNL     1      33.239 -11.513 -24.366  0.00  0.00    -0.471 OA
ATOM     16  C   UNL     1      34.210 -11.593 -25.408  0.00  0.00    +0.252 C 
ENDBRANCH   7  15
ENDBRANCH   3   6
BRANCH   2  18
ATOM     17  N   UNL     1      32.895  -6.809 -23.769  0.00  0.00    +0.390 N 
ATOM     18  C   UNL     1      31.814  -8.821 -21.918  0.00  0.00    +0.068 C 
ATOM     19  C   UNL     1      31.000  -8.248 -23.081  0.00  0.00    -0.003 C 
ATOM     20  C   UNL     1      32.922  -7.844 -21.519  0.00  0.00    -0.003 C 
ATOM     21  C   UNL     1      31.894  -7.778 -24.234  0.00  0.00    -0.075 C 
ATOM     22  C   UNL     1      33.751  -7.388 -22.725  0.00  0.00    -0.075 C 
ATOM     23  H   UNL     1      32.399  -6.016 -23.363  0.00  0.00    -0.079 HD
BRANCH  17  24
ATOM     24  C   UNL     1      33.705  -6.332 -24.889  0.00  0.00    -0.050 C 
BRANCH  24  25
ATOM     25  C   UNL     1      33.037  -5.199 -25.621  0.00  0.00    -0.043 C 
ATOM     26  C   UNL     1      32.070  -4.441 -24.974  0.00  0.00    -0.006 C 
ATOM     27  C   UNL     1      33.398  -4.927 -26.934  0.00  0.00    -0.006 C 
ATOM     28  C   UNL     1      31.452  -3.391 -25.654  0.00  0.00    -0.000 C 
ATOM     29  C   UNL     1      32.779  -3.877 -27.613  0.00  0.00    -0.000 C 
ATOM     30  C   UNL     1      31.807  -3.108 -26.972  0.00  0.00    -0.000 C 
ENDBRANCH  24  25
ENDBRANCH  17  24
ENDBRANCH   2  18
TORSDOF 6
ENDMDL
MODEL 5
REMARK VINA RESULT:      -8.5      6.623     10.167
REMARK  Name = 2780
REMARK  6 active torsions:
REMARK  status: ('A' for Active; 'I' for Inactive)
REMARK    1  A    between atoms: N_2  and  C_18
REMARK    2  A    between atoms: C_3  and  C_6
REMARK    3  A    between atoms: C_7  and  O_15
REMARK    4  A    between atoms: C_11  and  N_12
REMARK    5  A    between atoms: N_17  and  C_24
REMARK    6  A    between atoms: C_24  and  C_25
REMARK                            x       y       z     vdW  Elec       q    Type
REMARK                         _______ _______ _______ _____ _____    ______ ____
ROOT
ATOM      1  O   UNL     1      32.199 -13.211 -19.796  0.00  0.00    -0.270 OA
ATOM      2  N   UNL     1      31.592 -12.285 -21.834  0.00  0.00    -0.303 N 
ATOM      3  C   UNL     1      32.262 -13.188 -21.022  0.00  0.00    +0.249 C 
ATOM      4  H   UNL     1      31.708 -12.349 -22.809  0.00  0.00    +0.150 HD
ENDROOT
BRANCH   3   6
ATOM      5 CL   UNL     1      34.270 -17.921 -21.096  0.00  0.00    -0.081 Cl
ATOM      6  C   UNL     1      33.131 -14.169 -21.723  0.00  0.00    +0.088 C 
ATOM      7  C   UNL     1      33.759 -13.811 -22.899  0.00  0.00    +0.144 C 
ATOM      8  C   UNL     1      33.279 -15.422 -21.163  0.00  0.00    +0.020 C 
ATOM      9  C   UNL     1      34.571 -14.745 -23.543  0.00  0.00    +0.052 C 
ATOM     10  C   UNL     1      34.091 -16.356 -21.806  0.00  0.00    +0.071 C 
ATOM     11  C   UNL     1      34.737 -16.018 -22.996  0.00  0.00    +0.055 C 
BRANCH  11  12
ATOM     12  N   UNL     1      35.565 -16.943 -23.671  0.00  0.00    -0.356 N 
ATOM     13  H   UNL     1      36.087 -16.656 -24.455  0.00  0.00    +0.142 HD
ATOM     14  H   UNL     1      35.620 -17.874 -23.357  0.00  0.00    +0.142 HD
ENDBRANCH  11  12
BRANCH   7  15
ATOM     15  O   UNL     1      33.610 -12.572 -23.448  0.00  0.00    -0.471 OA
ATOM     16  C   UNL     1      33.844 -12.453 -24.850  0.00  0.00    +0.252 C 
ENDBRANCH   7  15
ENDBRANCH   3   6
BRANCH   2  18
ATOM     17  N   UNL     1      32.041  -8.641 -21.602  0.00  0.00    +0.390 N 
ATOM     18  C   UNL     1      30.730 -11.255 -21.300  0.00  0.00    +0.068 C 
ATOM     19  C   UNL     1      30.332 -10.252 -22.386  0.00  0.00    -0.003 C 
ATOM     20  C   UNL     1      31.397 -10.527 -20.132  0.00  0.00    -0.003 C 
ATOM     21  C   UNL     1      31.494  -9.333 -22.777  0.00  0.00    -0.075 C 
ATOM     22  C   UNL     1      32.525  -9.598 -20.598  0.00  0.00    -0.075 C 
ATOM     23  H   UNL     1      31.289  -8.097 -21.180  0.00  0.00    -0.079 HD
BRANCH  17  24
ATOM     24  C   UNL     1      33.114  -7.730 -21.998  0.00  0.00    -0.050 C 
BRANCH  24  25
ATOM     25  C   UNL     1      32.614  -6.632 -22.899  0.00  0.00    -0.043 C 
ATOM     26  C   UNL     1      31.697  -5.711 -22.411  0.00  0.00    -0.006 C 
ATOM     27  C   UNL     1      33.076  -6.557 -24.206  0.00  0.00    -0.006 C 
ATOM     28  C   UNL     1      31.234  -4.694 -23.247  0.00  0.00    -0.000 C 
ATOM     29  C   UNL     1      32.612  -5.541 -25.041  0.00  0.00    -0.000 C 
ATOM     30  C   UNL     1      31.692  -4.609 -24.561  0.00  0.00    -0.000 C 
ENDBRANCH  24  25
ENDBRANCH  17  24
ENDBRANCH   2  18
TORSDOF 6
ENDMDL
MODEL 6
REMARK VINA RESULT:      -8.1      6.378     11.313
REMARK  Name = 2780
REMARK  6 active torsions:
REMARK  status: ('A' for Active; 'I' for Inactive)
REMARK    1  A    between atoms: N_2  and  C_18
REMARK    2  A    between atoms: C_3  and  C_6
REMARK    3  A    between atoms: C_7  and  O_15
REMARK    4  A    between atoms: C_11  and  N_12
REMARK    5  A    between atoms: N_17  and  C_24
REMARK    6  A    between atoms: C_24  and  C_25
REMARK                            x       y       z     vdW  Elec       q    Type
REMARK                         _______ _______ _______ _____ _____    ______ ____
ROOT
ATOM      1  O   UNL     1      30.771 -11.221 -22.144  0.00  0.00    -0.270 OA
ATOM      2  N   UNL     1      32.712 -12.484 -22.021  0.00  0.00    -0.303 N 
ATOM      3  C   UNL     1      31.986 -11.334 -22.290  0.00  0.00    +0.249 C 
ATOM      4  H   UNL     1      33.685 -12.475 -22.171  0.00  0.00    +0.150 HD
ENDROOT
BRANCH   3   6
ATOM      5 CL   UNL     1      32.721  -6.246 -22.310  0.00  0.00    -0.081 Cl
ATOM      6  C   UNL     1      32.764 -10.184 -22.817  0.00  0.00    +0.088 C 
ATOM      7  C   UNL     1      33.788 -10.404 -23.717  0.00  0.00    +0.144 C 
ATOM      8  C   UNL     1      32.430  -8.918 -22.380  0.00  0.00    +0.020 C 
ATOM      9  C   UNL     1      34.508  -9.311 -24.201  0.00  0.00    +0.052 C 
ATOM     10  C   UNL     1      33.149  -7.825 -22.864  0.00  0.00    +0.071 C 
ATOM     11  C   UNL     1      34.188  -8.021 -23.774  0.00  0.00    +0.055 C 
BRANCH  11  12
ATOM     12  N   UNL     1      34.936  -6.935 -24.281  0.00  0.00    -0.356 N 
ATOM     13  H   UNL     1      35.637  -7.091 -24.954  0.00  0.00    +0.142 HD
ATOM     14  H   UNL     1      34.755  -6.021 -23.962  0.00  0.00    +0.142 HD
ENDBRANCH  11  12
BRANCH   7  15
ATOM     15  O   UNL     1      34.115 -11.655 -24.146  0.00  0.00    -0.471 OA
ATOM     16  C   UNL     1      33.808 -11.975 -25.502  0.00  0.00    +0.252 C 
ENDBRANCH   7  15
ENDBRANCH   3   6
BRANCH   2  18
ATOM     17  N   UNL     1      34.029 -15.902 -21.673  0.00  0.00    +0.390 N 
ATOM     18  C   UNL     1      32.094 -13.694 -21.528  0.00  0.00    +0.068 C 
ATOM     19  C   UNL     1      32.830 -14.228 -20.297  0.00  0.00    -0.003 C 
ATOM     20  C   UNL     1      32.039 -14.769 -22.615  0.00  0.00    -0.003 C 
ATOM     21  C   UNL     1      34.183 -14.850 -20.659  0.00  0.00    -0.075 C 
ATOM     22  C   UNL     1      33.419 -15.373 -22.900  0.00  0.00    -0.075 C 
ATOM     23  H   UNL     1      33.405 -16.613 -21.294  0.00  0.00    -0.079 HD
BRANCH  17  24
ATOM     24  C   UNL     1      35.321 -16.520 -21.969  0.00  0.00    -0.050 C 
BRANCH  24  25
ATOM     25  C   UNL     1      35.397 -17.933 -21.456  0.00  0.00    -0.043 C 
ATOM     26  C   UNL     1      34.226 -18.641 -21.223  0.00  0.00    -0.006 C 
ATOM     27  C   UNL     1      36.639 -18.509 -21.222  0.00  0.00    -0.006 C 
ATOM     28  C   UNL     1      34.298 -19.951 -20.748  0.00  0.00    -0.000 C 
ATOM     29  C   UNL     1      36.710 -19.818 -20.745  0.00  0.00    -0.000 C 
ATOM     30  C   UNL     1      35.539 -20.540 -20.510  0.00  0.00    -0.000 C 
ENDBRANCH  24  25
ENDBRANCH  17  24
ENDBRANCH   2  18
TORSDOF 6
ENDMDL
MODEL 7
REMARK VINA RESULT:      -8.0      6.183      9.635
REMARK  Name = 2780
REMARK  6 active torsions:
REMARK  status: ('A' for Active; 'I' for Inactive)
REMARK    1  A    between atoms: N_2  and  C_18
REMARK    2  A    between atoms: C_3  and  C_6
REMARK    3  A    between atoms: C_7  and  O_15
REMARK    4  A    between atoms: C_11  and  N_12
REMARK    5  A    between atoms: N_17  and  C_24
REMARK    6  A    between atoms: C_24  and  C_25
REMARK                            x       y       z     vdW  Elec       q    Type
REMARK                         _______ _______ _______ _____ _____    ______ ____
ROOT
ATOM      1  O   UNL     1      32.923 -14.281 -25.472  0.00  0.00    -0.270 OA
ATOM      2  N   UNL     1      34.277 -12.657 -24.519  0.00  0.00    -0.303 N 
ATOM      3  C   UNL     1      33.739 -13.931 -24.623  0.00  0.00    +0.249 C 
ATOM      4  H   UNL     1      34.927 -12.475 -23.802  0.00  0.00    +0.150 HD
ENDROOT
BRANCH   3   6
ATOM      5 CL   UNL     1      34.552 -14.928 -19.645  0.00  0.00    -0.081 Cl
ATOM      6  C   UNL     1      34.187 -14.910 -23.600  0.00  0.00    +0.088 C 
ATOM      7  C   UNL     1      34.609 -16.166 -23.989  0.00  0.00    +0.144 C 
ATOM      8  C   UNL     1      34.165 -14.521 -22.275  0.00  0.00    +0.020 C 
ATOM      9  C   UNL     1      35.026 -17.071 -23.013  0.00  0.00    +0.052 C 
ATOM     10  C   UNL     1      34.583 -15.426 -21.299  0.00  0.00    +0.071 C 
ATOM     11  C   UNL     1      35.013 -16.701 -21.668  0.00  0.00    +0.055 C 
BRANCH  11  12
ATOM     12  N   UNL     1      35.442 -17.640 -20.703  0.00  0.00    -0.356 N 
ATOM     13  H   UNL     1      35.322 -17.451 -19.745  0.00  0.00    +0.142 HD
ATOM     14  H   UNL     1      35.861 -18.484 -20.991  0.00  0.00    +0.142 HD
ENDBRANCH  11  12
BRANCH   7  15
ATOM     15  O   UNL     1      34.629 -16.545 -25.298  0.00  0.00    -0.471 OA
ATOM     16  C   UNL     1      34.382 -17.922 -25.577  0.00  0.00    +0.252 C 
ENDBRANCH   7  15
ENDBRANCH   3   6
BRANCH   2  18
ATOM     17  N   UNL     1      34.012  -9.027 -23.985  0.00  0.00    +0.390 N 
ATOM     18  C   UNL     1      33.920 -11.589 -25.424  0.00  0.00    +0.068 C 
ATOM     19  C   UNL     1      35.072 -10.593 -25.584  0.00  0.00    -0.003 C 
ATOM     20  C   UNL     1      32.660 -10.862 -24.952  0.00  0.00    -0.003 C 
ATOM     21  C   UNL     1      35.258  -9.722 -24.337  0.00  0.00    -0.075 C 
ATOM     22  C   UNL     1      32.926  -9.981 -23.726  0.00  0.00    -0.075 C 
ATOM     23  H   UNL     1      33.739  -8.450 -24.781  0.00  0.00    -0.079 HD
BRANCH  17  24
ATOM     24  C   UNL     1      34.219  -8.160 -22.826  0.00  0.00    -0.050 C 
BRANCH  24  25
ATOM     25  C   UNL     1      33.123  -7.138 -22.687  0.00  0.00    -0.043 C 
ATOM     26  C   UNL     1      32.491  -6.974 -21.462  0.00  0.00    -0.006 C 
ATOM     27  C   UNL     1      32.759  -6.373 -23.787  0.00  0.00    -0.006 C 
ATOM     28  C   UNL     1      31.475  -6.026 -21.334  0.00  0.00    -0.000 C 
ATOM     29  C   UNL     1      31.742  -5.426 -23.659  0.00  0.00    -0.000 C 
ATOM     30  C   UNL     1      31.101  -5.252 -22.432  0.00  0.00    -0.000 C 
ENDBRANCH  24  25
ENDBRANCH  17  24
ENDBRANCH   2  18
TORSDOF 6
ENDMDL
MODEL 8
REMARK VINA RESULT:      -8.0      7.264     11.168
REMARK  Name = 2780
REMARK  6 active torsions:
REMARK  status: ('A' for Active; 'I' for Inactive)
REMARK    1  A    between atoms: N_2  and  C_18
REMARK    2  A    between atoms: C_3  and  C_6
REMARK    3  A    between atoms: C_7  and  O_15
REMARK    4  A    between atoms: C_11  and  N_12
REMARK    5  A    between atoms: N_17  and  C_24
REMARK    6  A    between atoms: C_24  and  C_25
REMARK                            x       y       z     vdW  Elec       q    Type
REMARK                         _______ _______ _______ _____ _____    ______ ____
ROOT
ATOM      1  O   UNL     1      31.736 -12.688 -21.022  0.00  0.00    -0.270 OA
ATOM      2  N   UNL     1      32.257 -11.160 -22.688  0.00  0.00    -0.303 N 
ATOM      3  C   UNL     1      32.249 -12.419 -22.105  0.00  0.00    +0.249 C 
ATOM      4  H   UNL     1      32.695 -11.046 -23.562  0.00  0.00    +0.150 HD
ENDROOT
BRANCH   3   6
ATOM      5 CL   UNL     1      33.008 -14.718 -26.641  0.00  0.00    -0.081 Cl
ATOM      6  C   UNL     1      32.944 -13.489 -22.865  0.00  0.00    +0.088 C 
ATOM      7  C   UNL     1      33.814 -14.340 -22.212  0.00  0.00    +0.144 C 
ATOM      8  C   UNL     1      32.690 -13.595 -24.218  0.00  0.00    +0.020 C 
ATOM      9  C   UNL     1      34.457 -15.339 -22.943  0.00  0.00    +0.052 C 
ATOM     10  C   UNL     1      33.333 -14.594 -24.949  0.00  0.00    +0.071 C 
ATOM     11  C   UNL     1      34.216 -15.467 -24.312  0.00  0.00    +0.055 C 
BRANCH  11  12
ATOM     12  N   UNL     1      34.883 -16.488 -25.024  0.00  0.00    -0.356 N 
ATOM     13  H   UNL     1      35.483 -17.108 -24.551  0.00  0.00    +0.142 HD
ATOM     14  H   UNL     1      34.747 -16.580 -25.995  0.00  0.00    +0.142 HD
ENDBRANCH  11  12
BRANCH   7  15
ATOM     15  O   UNL     1      34.060 -14.232 -20.876  0.00  0.00    -0.471 OA
ATOM     16  C   UNL     1      34.555 -15.394 -20.214  0.00  0.00    +0.252 C 
ENDBRANCH   7  15
ENDBRANCH   3   6
BRANCH   2  18
ATOM     17  N   UNL     1      32.683  -7.558 -23.303  0.00  0.00    +0.390 N 
ATOM     18  C   UNL     1      31.645 -10.011 -22.060  0.00  0.00    +0.068 C 
ATOM     19  C   UNL     1      30.838  -9.194 -23.072  0.00  0.00    -0.003 C 
ATOM     20  C   UNL     1      32.695  -9.126 -21.386  0.00  0.00    -0.003 C 
ATOM     21  C   UNL     1      31.741  -8.416 -24.035  0.00  0.00    -0.075 C 
ATOM     22  C   UNL     1      33.536  -8.349 -22.406  0.00  0.00    -0.075 C 
ATOM     23  H   UNL     1      32.140  -6.913 -22.731  0.00  0.00    -0.079 HD
BRANCH  17  24
ATOM     24  C   UNL     1      33.501  -6.784 -24.236  0.00  0.00    -0.050 C 
BRANCH  24  25
ATOM     25  C   UNL     1      32.759  -5.592 -24.777  0.00  0.00    -0.043 C 
ATOM     26  C   UNL     1      31.799  -4.969 -23.991  0.00  0.00    -0.006 C 
ATOM     27  C   UNL     1      33.044  -5.132 -26.055  0.00  0.00    -0.006 C 
ATOM     28  C   UNL     1      31.111  -3.864 -24.494  0.00  0.00    -0.000 C 
ATOM     29  C   UNL     1      32.355  -4.027 -26.558  0.00  0.00    -0.000 C 
ATOM     30  C   UNL     1      31.390  -3.393 -25.776  0.00  0.00    -0.000 C 
ENDBRANCH  24  25
ENDBRANCH  17  24
ENDBRANCH   2  18
TORSDOF 6
ENDMDL
MODEL 9
REMARK VINA RESULT:      -8.0      1.498      2.084
REMARK  Name = 2780
REMARK  6 active torsions:
REMARK  status: ('A' for Active; 'I' for Inactive)
REMARK    1  A    between atoms: N_2  and  C_18
REMARK    2  A    between atoms: C_3  and  C_6
REMARK    3  A    between atoms: C_7  and  O_15
REMARK    4  A    between atoms: C_11  and  N_12
REMARK    5  A    between atoms: N_17  and  C_24
REMARK    6  A    between atoms: C_24  and  C_25
REMARK                            x       y       z     vdW  Elec       q    Type
REMARK                         _______ _______ _______ _____ _____    ______ ____
ROOT
ATOM      1  O   UNL     1      33.289 -22.690 -19.876  0.00  0.00    -0.270 OA
ATOM      2  N   UNL     1      34.325 -20.619 -19.998  0.00  0.00    -0.303 N 
ATOM      3  C   UNL     1      34.081 -21.862 -19.434  0.00  0.00    +0.249 C 
ATOM      4  H   UNL     1      34.980 -20.024 -19.567  0.00  0.00    +0.150 HD
ENDROOT
BRANCH   3   6
ATOM      5 CL   UNL     1      34.134 -24.249 -14.880  0.00  0.00    -0.081 Cl
ATOM      6  C   UNL     1      34.832 -22.168 -18.190  0.00  0.00    +0.088 C 
ATOM      7  C   UNL     1      36.106 -21.662 -18.015  0.00  0.00    +0.144 C 
ATOM      8  C   UNL     1      34.220 -22.960 -17.239  0.00  0.00    +0.020 C 
ATOM      9  C   UNL     1      36.795 -21.960 -16.840  0.00  0.00    +0.052 C 
ATOM     10  C   UNL     1      34.910 -23.258 -16.064  0.00  0.00    +0.071 C 
ATOM     11  C   UNL     1      36.197 -22.758 -15.864  0.00  0.00    +0.055 C 
BRANCH  11  12
ATOM     12  N   UNL     1      36.922 -23.043 -14.685  0.00  0.00    -0.356 N 
ATOM     13  H   UNL     1      37.832 -22.687 -14.567  0.00  0.00    +0.142 HD
ATOM     14  H   UNL     1      36.516 -23.598 -13.980  0.00  0.00    +0.142 HD
ENDBRANCH  11  12
BRANCH   7  15
ATOM     15  O   UNL     1      36.705 -20.880 -18.956  0.00  0.00    -0.471 OA
ATOM     16  C   UNL     1      37.264 -21.544 -20.089  0.00  0.00    +0.252 C 
ENDBRANCH   7  15
ENDBRANCH   3   6
BRANCH   2  18
ATOM     17  N   UNL     1      34.213 -17.307 -21.598  0.00  0.00    +0.390 N 
ATOM     18  C   UNL     1      33.652 -20.165 -21.194  0.00  0.00    +0.068 C 
ATOM     19  C   UNL     1      34.656 -19.659 -22.233  0.00  0.00    -0.003 C 
ATOM     20  C   UNL     1      32.633 -19.070 -20.873  0.00  0.00    -0.003 C 
ATOM     21  C   UNL     1      35.262 -18.307 -21.840  0.00  0.00    -0.075 C 
ATOM     22  C   UNL     1      33.305 -17.737 -20.526  0.00  0.00    -0.075 C 
ATOM     23  H   UNL     1      33.666 -17.213 -22.452  0.00  0.00    -0.079 HD
BRANCH  17  24
ATOM     24  C   UNL     1      34.807 -16.010 -21.275  0.00  0.00    -0.050 C 
BRANCH  24  25
ATOM     25  C   UNL     1      33.953 -14.868 -21.754  0.00  0.00    -0.043 C 
ATOM     26  C   UNL     1      34.125 -14.378 -23.042  0.00  0.00    -0.006 C 
ATOM     27  C   UNL     1      33.005 -14.319 -20.902  0.00  0.00    -0.006 C 
ATOM     28  C   UNL     1      33.332 -13.319 -23.486  0.00  0.00    -0.000 C 
ATOM     29  C   UNL     1      32.214 -13.259 -21.346  0.00  0.00    -0.000 C 
ATOM     30  C   UNL     1      32.376 -12.760 -22.638  0.00  0.00    -0.000 C 
ENDBRANCH  24  25
ENDBRANCH  17  24
ENDBRANCH   2  18
TORSDOF 6
ENDMDL
