MODEL 1
REMARK VINA RESULT:      -3.2      0.000      0.000
REMARK  Name = 6367
REMARK  0 active torsions:
REMARK  status: ('A' for Active; 'I' for Inactive)
REMARK                            x       y       z     vdW  Elec       q    Type
REMARK                         _______ _______ _______ _____ _____    ______ ____
ROOT
ATOM      1 CL   UNL     1      35.278 -21.235 -19.570  0.00  0.00    -0.043 Cl
ATOM      2  O   UNL     1      32.840 -22.201 -19.161  0.00  0.00    -0.279 OA
ATOM      3  C   UNL     1      32.953 -20.174 -20.421  0.00  0.00    +0.091 C 
ATOM      4  C   UNL     1      33.544 -21.325 -19.652  0.00  0.00    +0.231 C 
ENDROOT
TORSDOF 0
ENDMDL
MODEL 2
REMARK VINA RESULT:      -3.2      1.644      1.912
REMARK  Name = 6367
REMARK  0 active torsions:
REMARK  status: ('A' for Active; 'I' for Inactive)
REMARK                            x       y       z     vdW  Elec       q    Type
REMARK                         _______ _______ _______ _____ _____    ______ ____
ROOT
ATOM      1 CL   UNL     1      32.808 -20.097 -20.460  0.00  0.00    -0.043 Cl
ATOM      2  O   UNL     1      32.912 -22.379 -19.109  0.00  0.00    -0.279 OA
ATOM      3  C   UNL     1      35.022 -21.366 -19.597  0.00  0.00    +0.091 C 
ATOM      4  C   UNL     1      33.519 -21.447 -19.628  0.00  0.00    +0.231 C 
ENDROOT
TORSDOF 0
ENDMDL
MODEL 3
REMARK VINA RESULT:      -3.0      6.497      6.714
REMARK  Name = 6367
REMARK  0 active torsions:
REMARK  status: ('A' for Active; 'I' for Inactive)
REMARK                            x       y       z     vdW  Elec       q    Type
REMARK                         _______ _______ _______ _____ _____    ______ ____
ROOT
ATOM      1 CL   UNL     1      35.198 -16.613 -23.264  0.00  0.00    -0.043 Cl
ATOM      2  O   UNL     1      34.754 -16.729 -25.878  0.00  0.00    -0.279 OA
ATOM      3  C   UNL     1      34.466 -18.780 -24.686  0.00  0.00    +0.091 C 
ATOM      4  C   UNL     1      34.790 -17.315 -24.801  0.00  0.00    +0.231 C 
ENDROOT
TORSDOF 0
ENDMDL
MODEL 4
REMARK VINA RESULT:      -3.0      6.627      6.679
REMARK  Name = 6367
REMARK  0 active torsions:
REMARK  status: ('A' for Active; 'I' for Inactive)
REMARK                            x       y       z     vdW  Elec       q    Type
REMARK                         _______ _______ _______ _____ _____    ______ ____
ROOT
ATOM      1 CL   UNL     1      34.629 -18.949 -24.348  0.00  0.00    -0.043 Cl
ATOM      2  O   UNL     1      34.754 -16.778 -25.870  0.00  0.00    -0.279 OA
ATOM      3  C   UNL     1      34.998 -16.413 -23.521  0.00  0.00    +0.091 C 
ATOM      4  C   UNL     1      34.792 -17.265 -24.744  0.00  0.00    +0.231 C 
ENDROOT
TORSDOF 0
ENDMDL
MODEL 5
REMARK VINA RESULT:      -3.0      6.781      6.848
REMARK  Name = 6367
REMARK  0 active torsions:
REMARK  status: ('A' for Active; 'I' for Inactive)
REMARK                            x       y       z     vdW  Elec       q    Type
REMARK                         _______ _______ _______ _____ _____    ______ ____
ROOT
ATOM      1 CL   UNL     1      29.174 -24.567 -15.993  0.00  0.00    -0.043 Cl
ATOM      2  O   UNL     1      27.778 -23.430 -17.943  0.00  0.00    -0.279 OA
ATOM      3  C   UNL     1      27.574 -22.410 -15.792  0.00  0.00    +0.091 C 
ATOM      4  C   UNL     1      28.099 -23.436 -16.759  0.00  0.00    +0.231 C 
ENDROOT
TORSDOF 0
ENDMDL
MODEL 6
REMARK VINA RESULT:      -3.0      2.673      2.768
REMARK  Name = 6367
REMARK  0 active torsions:
REMARK  status: ('A' for Active; 'I' for Inactive)
REMARK                            x       y       z     vdW  Elec       q    Type
REMARK                         _______ _______ _______ _____ _____    ______ ____
ROOT
ATOM      1 CL   UNL     1      34.470 -19.260 -22.603  0.00  0.00    -0.043 Cl
ATOM      2  O   UNL     1      35.330 -19.982 -20.198  0.00  0.00    -0.279 OA
ATOM      3  C   UNL     1      32.967 -20.103 -20.534  0.00  0.00    +0.091 C 
ATOM      4  C   UNL     1      34.381 -19.819 -20.960  0.00  0.00    +0.231 C 
ENDROOT
TORSDOF 0
ENDMDL
MODEL 7
REMARK VINA RESULT:      -3.0      6.986      7.060
REMARK  Name = 6367
REMARK  0 active torsions:
REMARK  status: ('A' for Active; 'I' for Inactive)
REMARK                            x       y       z     vdW  Elec       q    Type
REMARK                         _______ _______ _______ _____ _____    ______ ____
ROOT
ATOM      1 CL   UNL     1      27.909 -22.323 -15.694  0.00  0.00    -0.043 Cl
ATOM      2  O   UNL     1      27.718 -24.172 -17.588  0.00  0.00    -0.279 OA
ATOM      3  C   UNL     1      29.360 -24.583 -15.901  0.00  0.00    +0.091 C 
ATOM      4  C   UNL     1      28.266 -23.788 -16.560  0.00  0.00    +0.231 C 
ENDROOT
TORSDOF 0
ENDMDL
MODEL 8
REMARK VINA RESULT:      -3.0      3.153      3.274
REMARK  Name = 6367
REMARK  0 active torsions:
REMARK  status: ('A' for Active; 'I' for Inactive)
REMARK                            x       y       z     vdW  Elec       q    Type
REMARK                         _______ _______ _______ _____ _____    ______ ____
ROOT
ATOM      1 CL   UNL     1      33.252 -20.095 -20.587  0.00  0.00    -0.043 Cl
ATOM      2  O   UNL     1      35.688 -19.044 -20.517  0.00  0.00    -0.279 OA
ATOM      3  C   UNL     1      34.729 -19.294 -22.692  0.00  0.00    +0.091 C 
ATOM      4  C   UNL     1      34.730 -19.409 -21.192  0.00  0.00    +0.231 C 
ENDROOT
TORSDOF 0
ENDMDL
MODEL 9
REMARK VINA RESULT:      -2.9     10.641     10.693
REMARK  Name = 6367
REMARK  0 active torsions:
REMARK  status: ('A' for Active; 'I' for Inactive)
REMARK                            x       y       z     vdW  Elec       q    Type
REMARK                         _______ _______ _______ _____ _____    ______ ____
ROOT
ATOM      1 CL   UNL     1      41.388 -14.673 -17.825  0.00  0.00    -0.043 Cl
ATOM      2  O   UNL     1      43.021 -16.186 -16.382  0.00  0.00    -0.279 OA
ATOM      3  C   UNL     1      40.988 -15.538 -15.306  0.00  0.00    +0.091 C 
ATOM      4  C   UNL     1      41.960 -15.574 -16.454  0.00  0.00    +0.231 C 
ENDROOT
TORSDOF 0
ENDMDL
