MODEL 1
REMARK VINA RESULT:      -8.0      0.000      0.000
REMARK  Name = 68827
REMARK  0 active torsions:
REMARK  status: ('A' for Active; 'I' for Inactive)
REMARK                            x       y       z     vdW  Elec       q    Type
REMARK                         _______ _______ _______ _____ _____    ______ ____
ROOT
ATOM      1  O   UNL     1      34.241 -25.394 -14.929  0.00  0.00    -0.217 OA
ATOM      2  O   UNL     1      33.125 -22.914 -13.912  0.00  0.00    -0.296 OA
ATOM      3  O   UNL     1      34.568 -23.840 -12.306  0.00  0.00    -0.422 OA
ATOM      4  O   UNL     1      32.962 -25.235 -14.246  0.00  0.00    -0.197 OA
ATOM      5  O   UNL     1      35.949 -24.566 -10.688  0.00  0.00    -0.250 OA
ATOM      6  C   UNL     1      35.053 -24.211 -14.732  0.00  0.00    +0.191 C 
ATOM      7  C   UNL     1      35.105 -23.530 -16.132  0.00  0.00    +0.034 C 
ATOM      8  C   UNL     1      36.441 -24.723 -14.301  0.00  0.00    +0.045 C 
ATOM      9  C   UNL     1      36.224 -22.455 -16.229  0.00  0.00    +0.003 C 
ATOM     10  C   UNL     1      34.484 -23.285 -13.638  0.00  0.00    +0.320 C 
ATOM     11  C   UNL     1      37.507 -23.622 -14.371  0.00  0.00    +0.003 C 
ATOM     12  C   UNL     1      33.743 -22.944 -16.577  0.00  0.00    +0.008 C 
ATOM     13  C   UNL     1      37.575 -23.014 -15.767  0.00  0.00    +0.000 C 
ATOM     14  C   UNL     1      36.333 -25.400 -12.922  0.00  0.00    +0.102 C 
ATOM     15  C   UNL     1      32.436 -23.956 -14.605  0.00  0.00    +0.222 C 
ATOM     16  C   UNL     1      32.494 -23.712 -16.127  0.00  0.00    +0.059 C 
ATOM     17  C   UNL     1      36.374 -21.893 -17.648  0.00  0.00    +0.000 C 
ATOM     18  C   UNL     1      35.647 -24.538 -11.878  0.00  0.00    +0.318 C 
ATOM     19  C   UNL     1      37.682 -25.906 -12.405  0.00  0.00    +0.012 C 
ATOM     20  C   UNL     1      30.986 -23.940 -14.123  0.00  0.00    +0.064 C 
ENDROOT
TORSDOF 0
ENDMDL
MODEL 2
REMARK VINA RESULT:      -8.0      2.127      5.178
REMARK  Name = 68827
REMARK  0 active torsions:
REMARK  status: ('A' for Active; 'I' for Inactive)
REMARK                            x       y       z     vdW  Elec       q    Type
REMARK                         _______ _______ _______ _____ _____    ______ ____
ROOT
ATOM      1  O   UNL     1      35.174 -24.960 -15.992  0.00  0.00    -0.217 OA
ATOM      2  O   UNL     1      36.054 -22.771 -14.299  0.00  0.00    -0.296 OA
ATOM      3  O   UNL     1      36.025 -22.066 -16.540  0.00  0.00    -0.422 OA
ATOM      4  O   UNL     1      36.536 -24.714 -15.532  0.00  0.00    -0.197 OA
ATOM      5  O   UNL     1      36.005 -21.222 -18.624  0.00  0.00    -0.250 OA
ATOM      6  C   UNL     1      34.364 -23.777 -15.784  0.00  0.00    +0.191 C 
ATOM      7  C   UNL     1      33.378 -24.167 -14.643  0.00  0.00    +0.034 C 
ATOM      8  C   UNL     1      33.623 -23.538 -17.114  0.00  0.00    +0.045 C 
ATOM      9  C   UNL     1      32.185 -23.179 -14.523  0.00  0.00    +0.003 C 
ATOM     10  C   UNL     1      35.214 -22.537 -15.440  0.00  0.00    +0.320 C 
ATOM     11  C   UNL     1      32.480 -22.525 -16.961  0.00  0.00    +0.003 C 
ATOM     12  C   UNL     1      34.074 -24.355 -13.273  0.00  0.00    +0.008 C 
ATOM     13  C   UNL     1      31.501 -22.963 -15.878  0.00  0.00    +0.000 C 
ATOM     14  C   UNL     1      34.640 -23.171 -18.210  0.00  0.00    +0.102 C 
ATOM     15  C   UNL     1      36.455 -24.140 -14.226  0.00  0.00    +0.222 C 
ATOM     16  C   UNL     1      35.497 -24.926 -13.307  0.00  0.00    +0.059 C 
ATOM     17  C   UNL     1      31.139 -23.645 -13.504  0.00  0.00    +0.000 C 
ATOM     18  C   UNL     1      35.571 -22.039 -17.816  0.00  0.00    +0.318 C 
ATOM     19  C   UNL     1      33.977 -22.882 -19.559  0.00  0.00    +0.012 C 
ATOM     20  C   UNL     1      37.873 -24.168 -13.659  0.00  0.00    +0.064 C 
ENDROOT
TORSDOF 0
ENDMDL
MODEL 3
REMARK VINA RESULT:      -7.9      1.634      4.309
REMARK  Name = 68827
REMARK  0 active torsions:
REMARK  status: ('A' for Active; 'I' for Inactive)
REMARK                            x       y       z     vdW  Elec       q    Type
REMARK                         _______ _______ _______ _____ _____    ______ ____
ROOT
ATOM      1  O   UNL     1      35.102 -22.236 -14.563  0.00  0.00    -0.217 OA
ATOM      2  O   UNL     1      36.202 -24.793 -15.388  0.00  0.00    -0.296 OA
ATOM      3  O   UNL     1      34.033 -25.109 -14.543  0.00  0.00    -0.422 OA
ATOM      4  O   UNL     1      35.954 -23.110 -13.765  0.00  0.00    -0.197 OA
ATOM      5  O   UNL     1      31.958 -25.574 -13.811  0.00  0.00    -0.250 OA
ATOM      6  C   UNL     1      34.583 -22.963 -15.704  0.00  0.00    +0.191 C 
ATOM      7  C   UNL     1      35.304 -22.337 -16.934  0.00  0.00    +0.034 C 
ATOM      8  C   UNL     1      33.069 -22.674 -15.729  0.00  0.00    +0.045 C 
ATOM      9  C   UNL     1      34.621 -22.712 -18.278  0.00  0.00    +0.003 C 
ATOM     10  C   UNL     1      34.815 -24.483 -15.585  0.00  0.00    +0.320 C 
ATOM     11  C   UNL     1      32.426 -23.097 -17.057  0.00  0.00    +0.003 C 
ATOM     12  C   UNL     1      36.819 -22.656 -16.981  0.00  0.00    +0.008 C 
ATOM     13  C   UNL     1      33.116 -22.425 -18.238  0.00  0.00    +0.000 C 
ATOM     14  C   UNL     1      32.406 -23.299 -14.488  0.00  0.00    +0.102 C 
ATOM     15  C   UNL     1      36.863 -23.760 -14.656  0.00  0.00    +0.222 C 
ATOM     16  C   UNL     1      37.532 -22.765 -15.627  0.00  0.00    +0.059 C 
ATOM     17  C   UNL     1      35.239 -21.976 -19.474  0.00  0.00    +0.000 C 
ATOM     18  C   UNL     1      32.747 -24.765 -14.294  0.00  0.00    +0.318 C 
ATOM     19  C   UNL     1      30.890 -23.086 -14.458  0.00  0.00    +0.012 C 
ATOM     20  C   UNL     1      37.918 -24.429 -13.777  0.00  0.00    +0.064 C 
ENDROOT
TORSDOF 0
ENDMDL
MODEL 4
REMARK VINA RESULT:      -7.9     11.673     14.412
REMARK  Name = 68827
REMARK  0 active torsions:
REMARK  status: ('A' for Active; 'I' for Inactive)
REMARK                            x       y       z     vdW  Elec       q    Type
REMARK                         _______ _______ _______ _____ _____    ______ ____
ROOT
ATOM      1  O   UNL     1      31.742 -14.113 -24.098  0.00  0.00    -0.217 OA
ATOM      2  O   UNL     1      34.341 -13.169 -24.981  0.00  0.00    -0.296 OA
ATOM      3  O   UNL     1      33.307 -11.512 -23.675  0.00  0.00    -0.422 OA
ATOM      4  O   UNL     1      32.042 -13.465 -25.370  0.00  0.00    -0.197 OA
ATOM      5  O   UNL     1      32.480  -9.848 -22.411  0.00  0.00    -0.250 OA
ATOM      6  C   UNL     1      32.841 -13.918 -23.176  0.00  0.00    +0.191 C 
ATOM      7  C   UNL     1      33.485 -15.328 -23.023  0.00  0.00    +0.034 C 
ATOM      8  C   UNL     1      32.201 -13.444 -21.856  0.00  0.00    +0.045 C 
ATOM      9  C   UNL     1      34.440 -15.417 -21.800  0.00  0.00    +0.003 C 
ATOM     10  C   UNL     1      33.842 -12.855 -23.673  0.00  0.00    +0.320 C 
ATOM     11  C   UNL     1      33.188 -13.508 -20.683  0.00  0.00    +0.003 C 
ATOM     12  C   UNL     1      34.196 -15.817 -24.309  0.00  0.00    +0.008 C 
ATOM     13  C   UNL     1      33.758 -14.913 -20.523  0.00  0.00    +0.000 C 
ATOM     14  C   UNL     1      31.566 -12.056 -22.063  0.00  0.00    +0.102 C 
ATOM     15  C   UNL     1      33.360 -13.859 -25.756  0.00  0.00    +0.222 C 
ATOM     16  C   UNL     1      33.565 -15.384 -25.639  0.00  0.00    +0.059 C 
ATOM     17  C   UNL     1      34.955 -16.842 -21.562  0.00  0.00    +0.000 C 
ATOM     18  C   UNL     1      32.514 -11.045 -22.682  0.00  0.00    +0.318 C 
ATOM     19  C   UNL     1      30.938 -11.497 -20.784  0.00  0.00    +0.012 C 
ATOM     20  C   UNL     1      33.530 -13.413 -27.207  0.00  0.00    +0.064 C 
ENDROOT
TORSDOF 0
ENDMDL
MODEL 5
REMARK VINA RESULT:      -7.8     16.639     18.985
REMARK  Name = 68827
REMARK  0 active torsions:
REMARK  status: ('A' for Active; 'I' for Inactive)
REMARK                            x       y       z     vdW  Elec       q    Type
REMARK                         _______ _______ _______ _____ _____    ______ ____
ROOT
ATOM      1  O   UNL     1      30.765  -7.370 -23.701  0.00  0.00    -0.217 OA
ATOM      2  O   UNL     1      32.067  -5.589 -21.813  0.00  0.00    -0.296 OA
ATOM      3  O   UNL     1      32.028  -7.769 -20.936  0.00  0.00    -0.422 OA
ATOM      4  O   UNL     1      30.108  -6.542 -22.696  0.00  0.00    -0.197 OA
ATOM      5  O   UNL     1      32.115  -9.801 -19.979  0.00  0.00    -0.250 OA
ATOM      6  C   UNL     1      32.182  -7.459 -23.414  0.00  0.00    +0.191 C 
ATOM      7  C   UNL     1      32.869  -6.641 -24.548  0.00  0.00    +0.034 C 
ATOM      8  C   UNL     1      32.533  -8.957 -23.505  0.00  0.00    +0.045 C 
ATOM      9  C   UNL     1      34.395  -6.919 -24.641  0.00  0.00    +0.003 C 
ATOM     10  C   UNL     1      32.529  -6.934 -22.005  0.00  0.00    +0.320 C 
ATOM     11  C   UNL     1      34.050  -9.190 -23.552  0.00  0.00    +0.003 C 
ATOM     12  C   UNL     1      32.593  -5.120 -24.456  0.00  0.00    +0.008 C 
ATOM     13  C   UNL     1      34.685  -8.423 -24.707  0.00  0.00    +0.000 C 
ATOM     14  C   UNL     1      31.820  -9.722 -22.375  0.00  0.00    +0.102 C 
ATOM     15  C   UNL     1      30.872  -5.343 -22.556  0.00  0.00    +0.222 C 
ATOM     16  C   UNL     1      31.215  -4.711 -23.921  0.00  0.00    +0.059 C 
ATOM     17  C   UNL     1      35.042  -6.232 -25.849  0.00  0.00    +0.000 C 
ATOM     18  C   UNL     1      32.050  -9.121 -21.000  0.00  0.00    +0.318 C 
ATOM     19  C   UNL     1      32.147 -11.217 -22.375  0.00  0.00    +0.012 C 
ATOM     20  C   UNL     1      30.015  -4.384 -21.731  0.00  0.00    +0.064 C 
ENDROOT
TORSDOF 0
ENDMDL
MODEL 6
REMARK VINA RESULT:      -7.8      2.249      5.424
REMARK  Name = 68827
REMARK  0 active torsions:
REMARK  status: ('A' for Active; 'I' for Inactive)
REMARK                            x       y       z     vdW  Elec       q    Type
REMARK                         _______ _______ _______ _____ _____    ______ ____
ROOT
ATOM      1  O   UNL     1      36.614 -25.874 -15.147  0.00  0.00    -0.217 OA
ATOM      2  O   UNL     1      38.603 -23.897 -14.395  0.00  0.00    -0.296 OA
ATOM      3  O   UNL     1      37.167 -22.987 -16.018  0.00  0.00    -0.422 OA
ATOM      4  O   UNL     1      37.955 -25.739 -15.704  0.00  0.00    -0.197 OA
ATOM      5  O   UNL     1      35.856 -21.955 -17.524  0.00  0.00    -0.250 OA
ATOM      6  C   UNL     1      36.266 -24.678 -14.409  0.00  0.00    +0.191 C 
ATOM      7  C   UNL     1      36.250 -25.123 -12.917  0.00  0.00    +0.034 C 
ATOM      8  C   UNL     1      34.858 -24.282 -14.896  0.00  0.00    +0.045 C 
ATOM      9  C   UNL     1      35.539 -24.093 -11.996  0.00  0.00    +0.003 C 
ATOM     10  C   UNL     1      37.247 -23.518 -14.675  0.00  0.00    +0.320 C 
ATOM     11  C   UNL     1      34.209 -23.232 -13.983  0.00  0.00    +0.003 C 
ATOM     12  C   UNL     1      37.656 -25.470 -12.368  0.00  0.00    +0.008 C 
ATOM     13  C   UNL     1      34.155 -23.720 -12.540  0.00  0.00    +0.000 C 
ATOM     14  C   UNL     1      34.925 -23.865 -16.377  0.00  0.00    +0.102 C 
ATOM     15  C   UNL     1      38.815 -25.284 -14.658  0.00  0.00    +0.222 C 
ATOM     16  C   UNL     1      38.635 -26.105 -13.364  0.00  0.00    +0.059 C 
ATOM     17  C   UNL     1      35.390 -24.599 -10.556  0.00  0.00    +0.000 C 
ATOM     18  C   UNL     1      35.988 -22.821 -16.663  0.00  0.00    +0.318 C 
ATOM     19  C   UNL     1      33.567 -23.421 -16.927  0.00  0.00    +0.012 C 
ATOM     20  C   UNL     1      40.242 -25.434 -15.183  0.00  0.00    +0.064 C 
ENDROOT
TORSDOF 0
ENDMDL
MODEL 7
REMARK VINA RESULT:      -7.1     16.396     18.923
REMARK  Name = 68827
REMARK  0 active torsions:
REMARK  status: ('A' for Active; 'I' for Inactive)
REMARK                            x       y       z     vdW  Elec       q    Type
REMARK                         _______ _______ _______ _____ _____    ______ ____
ROOT
ATOM      1  O   UNL     1      34.501  -7.461 -22.595  0.00  0.00    -0.217 OA
ATOM      2  O   UNL     1      33.141  -9.019 -24.632  0.00  0.00    -0.296 OA
ATOM      3  O   UNL     1      32.326  -9.620 -22.512  0.00  0.00    -0.422 OA
ATOM      4  O   UNL     1      34.971  -8.706 -23.190  0.00  0.00    -0.197 OA
ATOM      5  O   UNL     1      31.408 -10.273 -20.567  0.00  0.00    -0.250 OA
ATOM      6  C   UNL     1      33.097  -7.272 -22.897  0.00  0.00    +0.191 C 
ATOM      7  C   UNL     1      33.063  -6.074 -23.892  0.00  0.00    +0.034 C 
ATOM      8  C   UNL     1      32.427  -6.911 -21.556  0.00  0.00    +0.045 C 
ATOM      9  C   UNL     1      31.639  -5.471 -24.050  0.00  0.00    +0.003 C 
ATOM     10  C   UNL     1      32.444  -8.545 -23.471  0.00  0.00    +0.320 C 
ATOM     11  C   UNL     1      31.008  -6.359 -21.753  0.00  0.00    +0.003 C 
ATOM     12  C   UNL     1      33.671  -6.414 -25.275  0.00  0.00    +0.008 C 
ATOM     13  C   UNL     1      31.015  -5.153 -22.686  0.00  0.00    +0.000 C 
ATOM     14  C   UNL     1      32.499  -8.119 -20.604  0.00  0.00    +0.102 C 
ATOM     15  C   UNL     1      34.537  -8.727 -24.551  0.00  0.00    +0.222 C 
ATOM     16  C   UNL     1      34.845  -7.401 -25.277  0.00  0.00    +0.059 C 
ATOM     17  C   UNL     1      31.633  -4.202 -24.910  0.00  0.00    +0.000 C 
ATOM     18  C   UNL     1      31.983  -9.405 -21.220  0.00  0.00    +0.318 C 
ATOM     19  C   UNL     1      31.821  -7.852 -19.258  0.00  0.00    +0.012 C 
ATOM     20  C   UNL     1      35.282  -9.880 -25.220  0.00  0.00    +0.064 C 
ENDROOT
TORSDOF 0
ENDMDL
MODEL 8
REMARK VINA RESULT:      -6.9      1.788      3.933
REMARK  Name = 68827
REMARK  0 active torsions:
REMARK  status: ('A' for Active; 'I' for Inactive)
REMARK                            x       y       z     vdW  Elec       q    Type
REMARK                         _______ _______ _______ _____ _____    ______ ____
ROOT
ATOM      1  O   UNL     1      36.390 -22.425 -13.862  0.00  0.00    -0.217 OA
ATOM      2  O   UNL     1      36.952 -24.538 -15.772  0.00  0.00    -0.296 OA
ATOM      3  O   UNL     1      37.008 -25.415 -13.593  0.00  0.00    -0.422 OA
ATOM      4  O   UNL     1      37.690 -22.748 -14.438  0.00  0.00    -0.197 OA
ATOM      5  O   UNL     1      37.050 -26.419 -11.583  0.00  0.00    -0.250 OA
ATOM      6  C   UNL     1      35.464 -23.513 -14.098  0.00  0.00    +0.191 C 
ATOM      7  C   UNL     1      34.444 -22.949 -15.131  0.00  0.00    +0.034 C 
ATOM      8  C   UNL     1      34.794 -23.793 -12.738  0.00  0.00    +0.045 C 
ATOM      9  C   UNL     1      33.160 -23.819 -15.236  0.00  0.00    +0.003 C 
ATOM     10  C   UNL     1      36.173 -24.789 -14.594  0.00  0.00    +0.320 C 
ATOM     11  C   UNL     1      33.556 -24.689 -12.881  0.00  0.00    +0.003 C 
ATOM     12  C   UNL     1      35.061 -22.712 -16.531  0.00  0.00    +0.008 C 
ATOM     13  C   UNL     1      32.551 -24.083 -13.854  0.00  0.00    +0.000 C 
ATOM     14  C   UNL     1      35.844 -24.333 -11.749  0.00  0.00    +0.102 C 
ATOM     15  C   UNL     1      37.471 -23.207 -15.773  0.00  0.00    +0.222 C 
ATOM     16  C   UNL     1      36.530 -22.270 -16.559  0.00  0.00    +0.059 C 
ATOM     17  C   UNL     1      32.095 -23.184 -16.138  0.00  0.00    +0.000 C 
ATOM     18  C   UNL     1      36.639 -25.505 -12.294  0.00  0.00    +0.318 C 
ATOM     19  C   UNL     1      35.248 -24.671 -10.381  0.00  0.00    +0.012 C 
ATOM     20  C   UNL     1      38.844 -23.255 -16.440  0.00  0.00    +0.064 C 
ENDROOT
TORSDOF 0
ENDMDL
MODEL 9
REMARK VINA RESULT:      -6.8     16.247     18.922
REMARK  Name = 68827
REMARK  0 active torsions:
REMARK  status: ('A' for Active; 'I' for Inactive)
REMARK                            x       y       z     vdW  Elec       q    Type
REMARK                         _______ _______ _______ _____ _____    ______ ____
ROOT
ATOM      1  O   UNL     1      31.656  -8.892 -24.185  0.00  0.00    -0.217 OA
ATOM      2  O   UNL     1      34.352  -9.601 -23.375  0.00  0.00    -0.296 OA
ATOM      3  O   UNL     1      34.403  -7.599 -24.604  0.00  0.00    -0.422 OA
ATOM      4  O   UNL     1      32.562  -9.795 -24.887  0.00  0.00    -0.197 OA
ATOM      5  O   UNL     1      34.618  -5.657 -25.715  0.00  0.00    -0.250 OA
ATOM      6  C   UNL     1      32.392  -8.117 -23.209  0.00  0.00    +0.191 C 
ATOM      7  C   UNL     1      31.913  -8.658 -21.830  0.00  0.00    +0.034 C 
ATOM      8  C   UNL     1      31.958  -6.653 -23.424  0.00  0.00    +0.045 C 
ATOM      9  C   UNL     1      32.296  -7.715 -20.655  0.00  0.00    +0.003 C 
ATOM     10  C   UNL     1      33.918  -8.233 -23.398  0.00  0.00    +0.320 C 
ATOM     11  C   UNL     1      32.392  -5.749 -22.263  0.00  0.00    +0.003 C 
ATOM     12  C   UNL     1      32.382 -10.106 -21.545  0.00  0.00    +0.008 C 
ATOM     13  C   UNL     1      31.860  -6.272 -20.933  0.00  0.00    +0.000 C 
ATOM     14  C   UNL     1      32.441  -6.172 -24.804  0.00  0.00    +0.102 C 
ATOM     15  C   UNL     1      33.348 -10.469 -23.903  0.00  0.00    +0.222 C 
ATOM     16  C   UNL     1      32.482 -11.038 -22.760  0.00  0.00    +0.059 C 
ATOM     17  C   UNL     1      31.695  -8.170 -19.319  0.00  0.00    +0.000 C 
ATOM     18  C   UNL     1      33.920  -6.413 -25.044  0.00  0.00    +0.318 C 
ATOM     19  C   UNL     1      32.079  -4.710 -25.080  0.00  0.00    +0.012 C 
ATOM     20  C   UNL     1      34.066 -11.602 -24.634  0.00  0.00    +0.064 C 
ENDROOT
TORSDOF 0
ENDMDL
