MODEL 1
REMARK VINA RESULT:      -8.6      0.000      0.000
REMARK  Name = 11243969
REMARK  5 active torsions:
REMARK  status: ('A' for Active; 'I' for Inactive)
REMARK    1  A    between atoms: C_1  and  C_2
REMARK    2  A    between atoms: C_1  and  C_20
REMARK    3  A    between atoms: C_1  and  N_24
REMARK    4  A    between atoms: C_3  and  O_12
REMARK    5  A    between atoms: C_21  and  C_23
REMARK                            x       y       z     vdW  Elec       q    Type
REMARK                         _______ _______ _______ _____ _____    ______ ____
ROOT
ATOM      1  C   UNL     1      34.011 -23.438 -15.014  0.00  0.00    +0.013 C 
ENDROOT
BRANCH   1   2
ATOM      2  C   UNL     1      32.498 -23.623 -14.874  0.00  0.00    -0.008 C 
ATOM      3  C   UNL     1      30.263 -23.394 -16.043  0.00  0.00    +0.088 C 
ATOM      4  C   UNL     1      30.642 -25.294 -14.435  0.00  0.00    +0.002 C 
ATOM      5  C   UNL     1      30.433 -22.933 -13.574  0.00  0.00    +0.002 C 
ATOM      6  C   UNL     1      31.784 -23.209 -16.181  0.00  0.00    +0.025 C 
ATOM      7  C   UNL     1      32.163 -25.104 -14.576  0.00  0.00    -0.001 C 
ATOM      8  C   UNL     1      31.956 -22.750 -13.717  0.00  0.00    -0.001 C 
ATOM      9  C   UNL     1      29.957 -24.871 -15.743  0.00  0.00    +0.027 C 
ATOM     10  C   UNL     1      29.749 -22.520 -14.886  0.00  0.00    +0.027 C 
ATOM     11  C   UNL     1      30.125 -24.412 -13.286  0.00  0.00    +0.000 C 
BRANCH   3  12
ATOM     12  O   UNL     1      29.615 -22.998 -17.243  0.00  0.00    -0.387 OA
ATOM     13  H   UNL     1      30.102 -23.349 -18.005  0.00  0.00    +0.210 HD
ENDBRANCH   3  12
ENDBRANCH   1   2
BRANCH   1  20
ATOM     14  O   UNL     1      34.096 -24.006 -12.703  0.00  0.00    -0.277 OA
ATOM     15  N   UNL     1      36.046 -24.254 -13.924  0.00  0.00    -0.272 N 
ATOM     16  C   UNL     1      36.797 -24.212 -15.151  0.00  0.00    +0.076 C 
ATOM     17  C   UNL     1      38.146 -24.827 -14.915  0.00  0.00    +0.023 C 
ATOM     18  C   UNL     1      38.040 -23.378 -15.300  0.00  0.00    +0.022 C 
ATOM     19  C   UNL     1      38.175 -25.300 -13.488  0.00  0.00    +0.037 C 
ATOM     20  C   UNL     1      34.709 -23.923 -13.768  0.00  0.00    +0.206 C 
ATOM     21  C   UNL     1      36.893 -24.750 -12.821  0.00  0.00    +0.167 C 
BRANCH  21  23
ATOM     22  N   UNL     1      37.458 -22.808 -11.137  0.00  0.00    -0.194 NA
ATOM     23  C   UNL     1      37.209 -23.664 -11.879  0.00  0.00    +0.093 C 
ENDBRANCH  21  23
ENDBRANCH   1  20
BRANCH   1  24
ATOM     24  N   UNL     1      34.512 -24.216 -16.134  0.00  0.00    +0.387 N 
ATOM     25  H   UNL     1      33.728 -24.562 -16.686  0.00  0.00    -0.089 HD
ATOM     26  H   UNL     1      35.055 -25.005 -15.783  0.00  0.00    -0.089 HD
ATOM     27  H   UNL     1      35.107 -23.627 -16.718  0.00  0.00    -0.089 HD
ENDBRANCH   1  24
TORSDOF 5
ENDMDL
MODEL 2
REMARK VINA RESULT:      -8.3      1.043      1.904
REMARK  Name = 11243969
REMARK  5 active torsions:
REMARK  status: ('A' for Active; 'I' for Inactive)
REMARK    1  A    between atoms: C_1  and  C_2
REMARK    2  A    between atoms: C_1  and  C_20
REMARK    3  A    between atoms: C_1  and  N_24
REMARK    4  A    between atoms: C_3  and  O_12
REMARK    5  A    between atoms: C_21  and  C_23
REMARK                            x       y       z     vdW  Elec       q    Type
REMARK                         _______ _______ _______ _____ _____    ______ ____
ROOT
ATOM      1  C   UNL     1      33.990 -23.494 -15.009  0.00  0.00    +0.013 C 
ENDROOT
BRANCH   1   2
ATOM      2  C   UNL     1      32.460 -23.548 -15.035  0.00  0.00    -0.008 C 
ATOM      3  C   UNL     1      30.431 -25.034 -14.735  0.00  0.00    +0.088 C 
ATOM      4  C   UNL     1      30.331 -22.622 -14.016  0.00  0.00    +0.002 C 
ATOM      5  C   UNL     1      30.396 -23.208 -16.468  0.00  0.00    +0.002 C 
ATOM      6  C   UNL     1      31.968 -24.977 -14.708  0.00  0.00    +0.025 C 
ATOM      7  C   UNL     1      31.869 -22.570 -13.992  0.00  0.00    -0.001 C 
ATOM      8  C   UNL     1      31.934 -23.154 -16.437  0.00  0.00    -0.001 C 
ATOM      9  C   UNL     1      29.869 -24.051 -13.693  0.00  0.00    +0.027 C 
ATOM     10  C   UNL     1      29.933 -24.635 -16.135  0.00  0.00    +0.027 C 
ATOM     11  C   UNL     1      29.832 -22.235 -15.418  0.00  0.00    +0.000 C 
BRANCH   3  12
ATOM     12  O   UNL     1      29.989 -26.352 -14.447  0.00  0.00    -0.387 OA
ATOM     13  H   UNL     1      29.433 -26.673 -15.173  0.00  0.00    +0.210 HD
ENDBRANCH   3  12
ENDBRANCH   1   2
BRANCH   1  20
ATOM     14  O   UNL     1      33.801 -23.968 -12.683  0.00  0.00    -0.277 OA
ATOM     15  N   UNL     1      35.782 -24.557 -13.724  0.00  0.00    -0.272 N 
ATOM     16  C   UNL     1      36.626 -24.682 -14.883  0.00  0.00    +0.076 C 
ATOM     17  C   UNL     1      37.843 -25.481 -14.514  0.00  0.00    +0.023 C 
ATOM     18  C   UNL     1      37.990 -24.050 -14.951  0.00  0.00    +0.022 C 
ATOM     19  C   UNL     1      37.685 -25.890 -13.075  0.00  0.00    +0.037 C 
ATOM     20  C   UNL     1      34.504 -24.023 -13.694  0.00  0.00    +0.206 C 
ATOM     21  C   UNL     1      36.452 -25.126 -12.537  0.00  0.00    +0.167 C 
BRANCH  21  23
ATOM     22  N   UNL     1      37.170 -23.220 -10.872  0.00  0.00    -0.194 NA
ATOM     23  C   UNL     1      36.854 -24.060 -11.606  0.00  0.00    +0.093 C 
ENDBRANCH  21  23
ENDBRANCH   1  20
BRANCH   1  24
ATOM     24  N   UNL     1      34.541 -24.325 -16.066  0.00  0.00    +0.387 N 
ATOM     25  H   UNL     1      33.982 -25.173 -16.158  0.00  0.00    -0.089 HD
ATOM     26  H   UNL     1      35.503 -24.573 -15.837  0.00  0.00    -0.089 HD
ATOM     27  H   UNL     1      34.524 -23.809 -16.947  0.00  0.00    -0.089 HD
ENDBRANCH   1  24
TORSDOF 5
ENDMDL
MODEL 3
REMARK VINA RESULT:      -8.3      2.206      6.609
REMARK  Name = 11243969
REMARK  5 active torsions:
REMARK  status: ('A' for Active; 'I' for Inactive)
REMARK    1  A    between atoms: C_1  and  C_2
REMARK    2  A    between atoms: C_1  and  C_20
REMARK    3  A    between atoms: C_1  and  N_24
REMARK    4  A    between atoms: C_3  and  O_12
REMARK    5  A    between atoms: C_21  and  C_23
REMARK                            x       y       z     vdW  Elec       q    Type
REMARK                         _______ _______ _______ _____ _____    ______ ____
ROOT
ATOM      1  C   UNL     1      36.232 -23.231 -15.304  0.00  0.00    +0.013 C 
ENDROOT
BRANCH   1   2
ATOM      2  C   UNL     1      37.093 -24.326 -14.669  0.00  0.00    -0.008 C 
ATOM      3  C   UNL     1      39.246 -25.646 -14.862  0.00  0.00    +0.088 C 
ATOM      4  C   UNL     1      38.361 -25.025 -12.587  0.00  0.00    +0.002 C 
ATOM      5  C   UNL     1      37.172 -26.764 -13.975  0.00  0.00    +0.002 C 
ATOM      6  C   UNL     1      38.380 -24.545 -15.498  0.00  0.00    +0.025 C 
ATOM      7  C   UNL     1      37.495 -23.927 -13.229  0.00  0.00    -0.001 C 
ATOM      8  C   UNL     1      36.309 -25.659 -14.612  0.00  0.00    -0.001 C 
ATOM      9  C   UNL     1      39.628 -25.227 -13.432  0.00  0.00    +0.027 C 
ATOM     10  C   UNL     1      38.444 -26.958 -14.813  0.00  0.00    +0.027 C 
ATOM     11  C   UNL     1      37.564 -26.341 -12.549  0.00  0.00    +0.000 C 
BRANCH   3  12
ATOM     12  O   UNL     1      40.418 -25.849 -15.637  0.00  0.00    -0.387 OA
ATOM     13  H   UNL     1      40.538 -26.798 -15.799  0.00  0.00    +0.210 HD
ENDBRANCH   3  12
ENDBRANCH   1   2
BRANCH   1  20
ATOM     14  O   UNL     1      34.775 -23.209 -13.420  0.00  0.00    -0.277 OA
ATOM     15  N   UNL     1      33.795 -23.142 -15.515  0.00  0.00    -0.272 N 
ATOM     16  C   UNL     1      33.857 -23.082 -16.952  0.00  0.00    +0.076 C 
ATOM     17  C   UNL     1      32.475 -22.848 -17.489  0.00  0.00    +0.023 C 
ATOM     18  C   UNL     1      33.203 -24.119 -17.825  0.00  0.00    +0.022 C 
ATOM     19  C   UNL     1      31.556 -22.713 -16.305  0.00  0.00    +0.037 C 
ATOM     20  C   UNL     1      34.875 -23.194 -14.649  0.00  0.00    +0.206 C 
ATOM     21  C   UNL     1      32.391 -23.096 -15.060  0.00  0.00    +0.167 C 
BRANCH  21  23
ATOM     22  N   UNL     1      31.647 -25.432 -14.102  0.00  0.00    -0.194 NA
ATOM     23  C   UNL     1      31.975 -24.403 -14.525  0.00  0.00    +0.093 C 
ENDBRANCH  21  23
ENDBRANCH   1  20
BRANCH   1  24
ATOM     24  N   UNL     1      36.851 -21.930 -15.113  0.00  0.00    +0.387 N 
ATOM     25  H   UNL     1      36.345 -21.415 -14.394  0.00  0.00    -0.089 HD
ATOM     26  H   UNL     1      36.824 -21.409 -15.990  0.00  0.00    -0.089 HD
ATOM     27  H   UNL     1      37.822 -22.056 -14.823  0.00  0.00    -0.089 HD
ENDBRANCH   1  24
TORSDOF 5
ENDMDL
MODEL 4
REMARK VINA RESULT:      -8.3      4.064      6.798
REMARK  Name = 11243969
REMARK  5 active torsions:
REMARK  status: ('A' for Active; 'I' for Inactive)
REMARK    1  A    between atoms: C_1  and  C_2
REMARK    2  A    between atoms: C_1  and  C_20
REMARK    3  A    between atoms: C_1  and  N_24
REMARK    4  A    between atoms: C_3  and  O_12
REMARK    5  A    between atoms: C_21  and  C_23
REMARK                            x       y       z     vdW  Elec       q    Type
REMARK                         _______ _______ _______ _____ _____    ______ ____
ROOT
ATOM      1  C   UNL     1      37.135 -22.676 -16.261  0.00  0.00    +0.013 C 
ENDROOT
BRANCH   1   2
ATOM      2  C   UNL     1      37.358 -23.748 -15.191  0.00  0.00    -0.008 C 
ATOM      3  C   UNL     1      37.427 -24.213 -12.703  0.00  0.00    +0.088 C 
ATOM      4  C   UNL     1      36.546 -25.970 -14.277  0.00  0.00    +0.002 C 
ATOM      5  C   UNL     1      39.008 -25.424 -14.243  0.00  0.00    +0.002 C 
ATOM      6  C   UNL     1      37.203 -23.138 -13.779  0.00  0.00    +0.025 C 
ATOM      7  C   UNL     1      36.325 -24.890 -15.351  0.00  0.00    -0.001 C 
ATOM      8  C   UNL     1      38.780 -24.345 -15.318  0.00  0.00    -0.001 C 
ATOM      9  C   UNL     1      36.393 -25.337 -12.886  0.00  0.00    +0.027 C 
ATOM     10  C   UNL     1      38.844 -24.793 -12.852  0.00  0.00    +0.027 C 
ATOM     11  C   UNL     1      37.967 -26.542 -14.419  0.00  0.00    +0.000 C 
BRANCH   3  12
ATOM     12  O   UNL     1      37.297 -23.640 -11.410  0.00  0.00    -0.387 OA
ATOM     13  H   UNL     1      36.410 -23.824 -11.063  0.00  0.00    +0.210 HD
ENDBRANCH   3  12
ENDBRANCH   1   2
BRANCH   1  20
ATOM     14  O   UNL     1      34.894 -23.482 -16.280  0.00  0.00    -0.277 OA
ATOM     15  N   UNL     1      35.552 -22.151 -18.053  0.00  0.00    -0.272 N 
ATOM     16  C   UNL     1      36.510 -21.327 -18.745  0.00  0.00    +0.076 C 
ATOM     17  C   UNL     1      35.826 -20.650 -19.897  0.00  0.00    +0.023 C 
ATOM     18  C   UNL     1      36.945 -21.619 -20.155  0.00  0.00    +0.022 C 
ATOM     19  C   UNL     1      34.378 -21.057 -19.854  0.00  0.00    +0.037 C 
ATOM     20  C   UNL     1      35.756 -22.815 -16.855  0.00  0.00    +0.206 C 
ATOM     21  C   UNL     1      34.269 -22.167 -18.783  0.00  0.00    +0.167 C 
BRANCH  21  23
ATOM     22  N   UNL     1      33.859 -24.518 -19.891  0.00  0.00    -0.194 NA
ATOM     23  C   UNL     1      34.039 -23.482 -19.403  0.00  0.00    +0.093 C 
ENDBRANCH  21  23
ENDBRANCH   1  20
BRANCH   1  24
ATOM     24  N   UNL     1      37.232 -21.351 -15.673  0.00  0.00    +0.387 N 
ATOM     25  H   UNL     1      36.340 -20.868 -15.772  0.00  0.00    -0.089 HD
ATOM     26  H   UNL     1      37.962 -20.820 -16.149  0.00  0.00    -0.089 HD
ATOM     27  H   UNL     1      37.465 -21.436 -14.682  0.00  0.00    -0.089 HD
ENDBRANCH   1  24
TORSDOF 5
ENDMDL
MODEL 5
REMARK VINA RESULT:      -8.2     14.172     15.910
REMARK  Name = 11243969
REMARK  5 active torsions:
REMARK  status: ('A' for Active; 'I' for Inactive)
REMARK    1  A    between atoms: C_1  and  C_2
REMARK    2  A    between atoms: C_1  and  C_20
REMARK    3  A    between atoms: C_1  and  N_24
REMARK    4  A    between atoms: C_3  and  O_12
REMARK    5  A    between atoms: C_21  and  C_23
REMARK                            x       y       z     vdW  Elec       q    Type
REMARK                         _______ _______ _______ _____ _____    ______ ____
ROOT
ATOM      1  C   UNL     1      31.792 -11.344 -22.479  0.00  0.00    +0.013 C 
ENDROOT
BRANCH   1   2
ATOM      2  C   UNL     1      32.152  -9.856 -22.491  0.00  0.00    -0.008 C 
ATOM      3  C   UNL     1      32.741  -7.853 -21.057  0.00  0.00    +0.088 C 
ATOM      4  C   UNL     1      33.809  -8.126 -23.321  0.00  0.00    +0.002 C 
ATOM      5  C   UNL     1      31.363  -7.535 -23.141  0.00  0.00    +0.002 C 
ATOM      6  C   UNL     1      32.380  -9.348 -21.048  0.00  0.00    +0.025 C 
ATOM      7  C   UNL     1      33.444  -9.621 -23.308  0.00  0.00    -0.001 C 
ATOM      8  C   UNL     1      31.006  -9.032 -23.128  0.00  0.00    -0.001 C 
ATOM      9  C   UNL     1      34.025  -7.646 -21.878  0.00  0.00    +0.027 C 
ATOM     10  C   UNL     1      31.590  -7.057 -21.698  0.00  0.00    +0.027 C 
ATOM     11  C   UNL     1      32.654  -7.328 -23.952  0.00  0.00    +0.000 C 
BRANCH   3  12
ATOM     12  O   UNL     1      32.935  -7.393 -19.728  0.00  0.00    -0.387 OA
ATOM     13  H   UNL     1      32.141  -7.578 -19.202  0.00  0.00    +0.210 HD
ENDBRANCH   3  12
ENDBRANCH   1   2
BRANCH   1  20
ATOM     14  O   UNL     1      33.357 -11.769 -24.224  0.00  0.00    -0.277 OA
ATOM     15  N   UNL     1      33.277 -13.290 -22.482  0.00  0.00    -0.272 N 
ATOM     16  C   UNL     1      32.780 -13.751 -21.212  0.00  0.00    +0.076 C 
ATOM     17  C   UNL     1      33.608 -14.921 -20.763  0.00  0.00    +0.023 C 
ATOM     18  C   UNL     1      32.143 -15.103 -21.045  0.00  0.00    +0.022 C 
ATOM     19  C   UNL     1      34.679 -15.131 -21.799  0.00  0.00    +0.037 C 
ATOM     20  C   UNL     1      32.879 -12.144 -23.152  0.00  0.00    +0.206 C 
ATOM     21  C   UNL     1      34.329 -14.198 -22.982  0.00  0.00    +0.167 C 
BRANCH  21  23
ATOM     22  N   UNL     1      33.463 -15.576 -25.050  0.00  0.00    -0.194 NA
ATOM     23  C   UNL     1      33.844 -14.969 -24.139  0.00  0.00    +0.093 C 
ENDBRANCH  21  23
ENDBRANCH   1  20
BRANCH   1  24
ATOM     24  N   UNL     1      31.672 -11.822 -21.113  0.00  0.00    +0.387 N 
ATOM     25  H   UNL     1      30.714 -12.126 -20.941  0.00  0.00    -0.089 HD
ATOM     26  H   UNL     1      31.911 -11.069 -20.467  0.00  0.00    -0.089 HD
ATOM     27  H   UNL     1      32.308 -12.606 -20.970  0.00  0.00    -0.089 HD
ENDBRANCH   1  24
TORSDOF 5
ENDMDL
MODEL 6
REMARK VINA RESULT:      -8.2      2.082      6.476
REMARK  Name = 11243969
REMARK  5 active torsions:
REMARK  status: ('A' for Active; 'I' for Inactive)
REMARK    1  A    between atoms: C_1  and  C_2
REMARK    2  A    between atoms: C_1  and  C_20
REMARK    3  A    between atoms: C_1  and  N_24
REMARK    4  A    between atoms: C_3  and  O_12
REMARK    5  A    between atoms: C_21  and  C_23
REMARK                            x       y       z     vdW  Elec       q    Type
REMARK                         _______ _______ _______ _____ _____    ______ ____
ROOT
ATOM      1  C   UNL     1      34.673 -23.279 -14.024  0.00  0.00    +0.013 C 
ENDROOT
BRANCH   1   2
ATOM      2  C   UNL     1      35.867 -24.237 -14.008  0.00  0.00    -0.008 C 
ATOM      3  C   UNL     1      36.924 -26.253 -15.117  0.00  0.00    +0.088 C 
ATOM      4  C   UNL     1      38.388 -24.417 -14.208  0.00  0.00    +0.002 C 
ATOM      5  C   UNL     1      37.143 -25.939 -12.628  0.00  0.00    +0.002 C 
ATOM      6  C   UNL     1      35.726 -25.289 -15.132  0.00  0.00    +0.025 C 
ATOM      7  C   UNL     1      37.186 -23.457 -14.224  0.00  0.00    -0.001 C 
ATOM      8  C   UNL     1      35.944 -24.973 -12.649  0.00  0.00    -0.001 C 
ATOM      9  C   UNL     1      38.221 -25.454 -15.329  0.00  0.00    +0.027 C 
ATOM     10  C   UNL     1      36.981 -26.970 -13.756  0.00  0.00    +0.027 C 
ATOM     11  C   UNL     1      38.440 -25.142 -12.852  0.00  0.00    +0.000 C 
BRANCH   3  12
ATOM     12  O   UNL     1      36.779 -27.224 -16.143  0.00  0.00    -0.387 OA
ATOM     13  H   UNL     1      37.379 -27.012 -16.875  0.00  0.00    +0.210 HD
ENDBRANCH   3  12
ENDBRANCH   1   2
BRANCH   1  20
ATOM     14  O   UNL     1      34.211 -23.361 -16.359  0.00  0.00    -0.277 OA
ATOM     15  N   UNL     1      32.535 -24.059 -14.926  0.00  0.00    -0.272 N 
ATOM     16  C   UNL     1      32.016 -24.352 -13.615  0.00  0.00    +0.076 C 
ATOM     17  C   UNL     1      30.691 -25.043 -13.761  0.00  0.00    +0.023 C 
ATOM     18  C   UNL     1      30.767 -23.702 -13.086  0.00  0.00    +0.022 C 
ATOM     19  C   UNL     1      30.437 -25.210 -15.234  0.00  0.00    +0.037 C 
ATOM     20  C   UNL     1      33.796 -23.565 -15.217  0.00  0.00    +0.206 C 
ATOM     21  C   UNL     1      31.538 -24.402 -15.960  0.00  0.00    +0.167 C 
BRANCH  21  23
ATOM     22  N   UNL     1      30.549 -22.224 -17.056  0.00  0.00    -0.194 NA
ATOM     23  C   UNL     1      30.985 -23.183 -16.573  0.00  0.00    +0.093 C 
ENDBRANCH  21  23
ENDBRANCH   1  20
BRANCH   1  24
ATOM     24  N   UNL     1      33.867 -23.459 -12.829  0.00  0.00    +0.387 N 
ATOM     25  H   UNL     1      33.030 -23.993 -13.060  0.00  0.00    -0.089 HD
ATOM     26  H   UNL     1      33.598 -22.547 -12.459  0.00  0.00    -0.089 HD
ATOM     27  H   UNL     1      34.409 -23.964 -12.127  0.00  0.00    -0.089 HD
ENDBRANCH   1  24
TORSDOF 5
ENDMDL
MODEL 7
REMARK VINA RESULT:      -8.0      2.143      6.566
REMARK  Name = 11243969
REMARK  5 active torsions:
REMARK  status: ('A' for Active; 'I' for Inactive)
REMARK    1  A    between atoms: C_1  and  C_2
REMARK    2  A    between atoms: C_1  and  C_20
REMARK    3  A    between atoms: C_1  and  N_24
REMARK    4  A    between atoms: C_3  and  O_12
REMARK    5  A    between atoms: C_21  and  C_23
REMARK                            x       y       z     vdW  Elec       q    Type
REMARK                         _______ _______ _______ _____ _____    ______ ____
ROOT
ATOM      1  C   UNL     1      36.117 -23.241 -15.408  0.00  0.00    +0.013 C 
ENDROOT
BRANCH   1   2
ATOM      2  C   UNL     1      36.997 -24.282 -14.712  0.00  0.00    -0.008 C 
ATOM      3  C   UNL     1      38.017 -24.997 -12.506  0.00  0.00    +0.088 C 
ATOM      4  C   UNL     1      37.261 -26.742 -14.156  0.00  0.00    +0.002 C 
ATOM      5  C   UNL     1      39.301 -25.341 -14.645  0.00  0.00    +0.002 C 
ATOM      6  C   UNL     1      37.131 -23.952 -13.207  0.00  0.00    +0.025 C 
ATOM      7  C   UNL     1      36.378 -25.693 -14.855  0.00  0.00    -0.001 C 
ATOM      8  C   UNL     1      38.411 -24.296 -15.342  0.00  0.00    -0.001 C 
ATOM      9  C   UNL     1      37.382 -26.389 -12.666  0.00  0.00    +0.027 C 
ATOM     10  C   UNL     1      39.413 -24.994 -13.152  0.00  0.00    +0.027 C 
ATOM     11  C   UNL     1      38.661 -26.732 -14.794  0.00  0.00    +0.000 C 
BRANCH   3  12
ATOM     12  O   UNL     1      38.145 -24.677 -11.128  0.00  0.00    -0.387 OA
ATOM     13  H   UNL     1      39.085 -24.615 -10.897  0.00  0.00    +0.210 HD
ENDBRANCH   3  12
ENDBRANCH   1   2
BRANCH   1  20
ATOM     14  O   UNL     1      34.650 -23.216 -13.531  0.00  0.00    -0.277 OA
ATOM     15  N   UNL     1      33.681 -23.134 -15.631  0.00  0.00    -0.272 N 
ATOM     16  C   UNL     1      33.751 -23.069 -17.067  0.00  0.00    +0.076 C 
ATOM     17  C   UNL     1      32.373 -22.823 -17.610  0.00  0.00    +0.023 C 
ATOM     18  C   UNL     1      33.095 -24.098 -17.947  0.00  0.00    +0.022 C 
ATOM     19  C   UNL     1      31.449 -22.686 -16.430  0.00  0.00    +0.037 C 
ATOM     20  C   UNL     1      34.756 -23.197 -14.759  0.00  0.00    +0.206 C 
ATOM     21  C   UNL     1      32.275 -23.080 -15.183  0.00  0.00    +0.167 C 
BRANCH  21  23
ATOM     22  N   UNL     1      31.510 -25.414 -14.238  0.00  0.00    -0.194 NA
ATOM     23  C   UNL     1      31.847 -24.386 -14.655  0.00  0.00    +0.093 C 
ENDBRANCH  21  23
ENDBRANCH   1  20
BRANCH   1  24
ATOM     24  N   UNL     1      36.708 -21.920 -15.285  0.00  0.00    +0.387 N 
ATOM     25  H   UNL     1      36.857 -21.526 -16.214  0.00  0.00    -0.089 HD
ATOM     26  H   UNL     1      37.601 -21.991 -14.798  0.00  0.00    -0.089 HD
ATOM     27  H   UNL     1      36.079 -21.314 -14.756  0.00  0.00    -0.089 HD
ENDBRANCH   1  24
TORSDOF 5
ENDMDL
MODEL 8
REMARK VINA RESULT:      -7.9      4.016      6.938
REMARK  Name = 11243969
REMARK  5 active torsions:
REMARK  status: ('A' for Active; 'I' for Inactive)
REMARK    1  A    between atoms: C_1  and  C_2
REMARK    2  A    between atoms: C_1  and  C_20
REMARK    3  A    between atoms: C_1  and  N_24
REMARK    4  A    between atoms: C_3  and  O_12
REMARK    5  A    between atoms: C_21  and  C_23
REMARK                            x       y       z     vdW  Elec       q    Type
REMARK                         _______ _______ _______ _____ _____    ______ ____
ROOT
ATOM      1  C   UNL     1      37.091 -22.534 -16.016  0.00  0.00    +0.013 C 
ENDROOT
BRANCH   1   2
ATOM      2  C   UNL     1      37.421 -23.777 -15.185  0.00  0.00    -0.008 C 
ATOM      3  C   UNL     1      39.146 -25.576 -14.738  0.00  0.00    +0.088 C 
ATOM      4  C   UNL     1      37.758 -24.678 -12.839  0.00  0.00    +0.002 C 
ATOM      5  C   UNL     1      36.696 -26.136 -14.602  0.00  0.00    +0.002 C 
ATOM      6  C   UNL     1      38.813 -24.326 -15.572  0.00  0.00    +0.025 C 
ATOM      7  C   UNL     1      37.426 -23.430 -13.677  0.00  0.00    -0.001 C 
ATOM      8  C   UNL     1      36.367 -24.884 -15.435  0.00  0.00    -0.001 C 
ATOM      9  C   UNL     1      39.142 -25.206 -13.245  0.00  0.00    +0.027 C 
ATOM     10  C   UNL     1      38.085 -26.658 -15.000  0.00  0.00    +0.027 C 
ATOM     11  C   UNL     1      36.703 -25.764 -13.109  0.00  0.00    +0.000 C 
BRANCH   3  12
ATOM     12  O   UNL     1      40.421 -26.080 -15.109  0.00  0.00    -0.387 OA
ATOM     13  H   UNL     1      40.559 -26.946 -14.696  0.00  0.00    +0.210 HD
ENDBRANCH   3  12
ENDBRANCH   1   2
BRANCH   1  20
ATOM     14  O   UNL     1      34.822 -23.259 -16.024  0.00  0.00    -0.277 OA
ATOM     15  N   UNL     1      35.566 -22.096 -17.880  0.00  0.00    -0.272 N 
ATOM     16  C   UNL     1      36.568 -21.364 -18.612  0.00  0.00    +0.076 C 
ATOM     17  C   UNL     1      35.932 -20.756 -19.829  0.00  0.00    +0.023 C 
ATOM     18  C   UNL     1      37.020 -21.782 -19.984  0.00  0.00    +0.022 C 
ATOM     19  C   UNL     1      34.470 -21.106 -19.788  0.00  0.00    +0.037 C 
ATOM     20  C   UNL     1      35.720 -22.670 -16.629  0.00  0.00    +0.206 C 
ATOM     21  C   UNL     1      34.297 -22.123 -18.636  0.00  0.00    +0.167 C 
BRANCH  21  23
ATOM     22  N   UNL     1      33.822 -24.538 -19.567  0.00  0.00    -0.194 NA
ATOM     23  C   UNL     1      34.031 -23.474 -19.157  0.00  0.00    +0.093 C 
ENDBRANCH  21  23
ENDBRANCH   1  20
BRANCH   1  24
ATOM     24  N   UNL     1      37.082 -21.352 -15.171  0.00  0.00    +0.387 N 
ATOM     25  H   UNL     1      36.264 -21.374 -14.563  0.00  0.00    -0.089 HD
ATOM     26  H   UNL     1      37.051 -20.517 -15.756  0.00  0.00    -0.089 HD
ATOM     27  H   UNL     1      37.929 -21.336 -14.602  0.00  0.00    -0.089 HD
ENDBRANCH   1  24
TORSDOF 5
ENDMDL
MODEL 9
REMARK VINA RESULT:      -7.7      2.151      6.601
REMARK  Name = 11243969
REMARK  5 active torsions:
REMARK  status: ('A' for Active; 'I' for Inactive)
REMARK    1  A    between atoms: C_1  and  C_2
REMARK    2  A    between atoms: C_1  and  C_20
REMARK    3  A    between atoms: C_1  and  N_24
REMARK    4  A    between atoms: C_3  and  O_12
REMARK    5  A    between atoms: C_21  and  C_23
REMARK                            x       y       z     vdW  Elec       q    Type
REMARK                         _______ _______ _______ _____ _____    ______ ____
ROOT
ATOM      1  C   UNL     1      34.726 -23.297 -14.083  0.00  0.00    +0.013 C 
ENDROOT
BRANCH   1   2
ATOM      2  C   UNL     1      35.908 -24.270 -14.067  0.00  0.00    -0.008 C 
ATOM      3  C   UNL     1      38.318 -24.618 -14.764  0.00  0.00    +0.088 C 
ATOM      4  C   UNL     1      37.492 -25.589 -12.592  0.00  0.00    +0.002 C 
ATOM      5  C   UNL     1      36.719 -26.562 -14.787  0.00  0.00    +0.002 C 
ATOM      6  C   UNL     1      37.129 -23.641 -14.777  0.00  0.00    +0.025 C 
ATOM      7  C   UNL     1      36.304 -24.612 -12.611  0.00  0.00    -0.001 C 
ATOM      8  C   UNL     1      35.532 -25.582 -14.799  0.00  0.00    -0.001 C 
ATOM      9  C   UNL     1      38.689 -24.944 -13.307  0.00  0.00    +0.027 C 
ATOM     10  C   UNL     1      37.919 -25.912 -15.493  0.00  0.00    +0.027 C 
ATOM     11  C   UNL     1      37.099 -26.880 -13.330  0.00  0.00    +0.000 C 
BRANCH   3  12
ATOM     12  O   UNL     1      39.430 -24.037 -15.430  0.00  0.00    -0.387 OA
ATOM     13  H   UNL     1      39.989 -24.738 -15.798  0.00  0.00    +0.210 HD
ENDBRANCH   3  12
ENDBRANCH   1   2
BRANCH   1  20
ATOM     14  O   UNL     1      34.235 -23.411 -16.411  0.00  0.00    -0.277 OA
ATOM     15  N   UNL     1      32.565 -24.060 -14.947  0.00  0.00    -0.272 N 
ATOM     16  C   UNL     1      32.058 -24.323 -13.625  0.00  0.00    +0.076 C 
ATOM     17  C   UNL     1      30.720 -24.995 -13.744  0.00  0.00    +0.023 C 
ATOM     18  C   UNL     1      30.825 -23.645 -13.092  0.00  0.00    +0.022 C 
ATOM     19  C   UNL     1      30.446 -25.182 -15.212  0.00  0.00    +0.037 C 
ATOM     20  C   UNL     1      33.830 -23.590 -15.261  0.00  0.00    +0.206 C 
ATOM     21  C   UNL     1      31.551 -24.404 -15.963  0.00  0.00    +0.167 C 
BRANCH  21  23
ATOM     22  N   UNL     1      30.582 -22.228 -17.084  0.00  0.00    -0.194 NA
ATOM     23  C   UNL     1      31.010 -23.187 -16.590  0.00  0.00    +0.093 C 
ENDBRANCH  21  23
ENDBRANCH   1  20
BRANCH   1  24
ATOM     24  N   UNL     1      33.932 -23.451 -12.875  0.00  0.00    +0.387 N 
ATOM     25  H   UNL     1      33.560 -24.399 -12.830  0.00  0.00    -0.089 HD
ATOM     26  H   UNL     1      33.162 -22.782 -12.887  0.00  0.00    -0.089 HD
ATOM     27  H   UNL     1      34.520 -23.277 -12.059  0.00  0.00    -0.089 HD
ENDBRANCH   1  24
TORSDOF 5
ENDMDL
