MODEL 1
REMARK VINA RESULT:     -10.8      0.000      0.000
REMARK  Name = 3342298
REMARK  7 active torsions:
REMARK  status: ('A' for Active; 'I' for Inactive)
REMARK    1  A    between atoms: S_1  and  C_4
REMARK    2  A    between atoms: S_1  and  C_18
REMARK    3  A    between atoms: C_9  and  O_10
REMARK    4  A    between atoms: O_10  and  C_12
REMARK    5  A    between atoms: C_18  and  C_20
REMARK    6  A    between atoms: C_20  and  C_27
REMARK    7  A    between atoms: N_26  and  O_29
REMARK                            x       y       z     vdW  Elec       q    Type
REMARK                         _______ _______ _______ _____ _____    ______ ____
ROOT
ATOM      1  S   UNL     1      35.118 -23.569 -15.519  0.00  0.00    +0.009 S 
ATOM      2  O   UNL     1      33.908 -23.048 -14.898  0.00  0.00    -0.169 OA
ATOM      3  O   UNL     1      35.262 -25.003 -15.729  0.00  0.00    -0.169 OA
ENDROOT
BRANCH   1   4
ATOM      4  C   UNL     1      35.261 -22.778 -17.096  0.00  0.00    +0.106 C 
ATOM      5  C   UNL     1      36.406 -22.061 -17.389  0.00  0.00    +0.021 C 
ATOM      6  C   UNL     1      34.225 -22.896 -18.004  0.00  0.00    +0.021 C 
ATOM      7  C   UNL     1      36.519 -21.439 -18.632  0.00  0.00    +0.039 C 
ATOM      8  C   UNL     1      34.337 -22.274 -19.248  0.00  0.00    +0.039 C 
ATOM      9  C   UNL     1      35.485 -21.546 -19.562  0.00  0.00    +0.145 C 
BRANCH   9  10
ATOM     10  O   UNL     1      35.594 -20.939 -20.774  0.00  0.00    -0.453 OA
BRANCH  10  12
ATOM     11 CL   UNL     1      33.284 -15.570 -21.349  0.00  0.00    -0.082 Cl
ATOM     12  C   UNL     1      35.048 -19.673 -20.912  0.00  0.00    +0.145 C 
ATOM     13  C   UNL     1      35.894 -18.588 -21.057  0.00  0.00    +0.038 C 
ATOM     14  C   UNL     1      33.673 -19.526 -20.898  0.00  0.00    +0.038 C 
ATOM     15  C   UNL     1      35.345 -17.312 -21.194  0.00  0.00    +0.015 C 
ATOM     16  C   UNL     1      33.125 -18.250 -21.034  0.00  0.00    +0.015 C 
ATOM     17  C   UNL     1      33.961 -17.144 -21.183  0.00  0.00    +0.058 C 
ENDBRANCH  10  12
ENDBRANCH   9  10
ENDBRANCH   1   4
BRANCH   1  18
ATOM     18  C   UNL     1      36.515 -23.004 -14.619  0.00  0.00    +0.165 C 
BRANCH  18  20
ATOM     19  O   UNL     1      38.193 -26.904 -14.468  0.00  0.00    -0.354 OA
ATOM     20  C   UNL     1      37.298 -24.181 -14.028  0.00  0.00    +0.098 C 
ATOM     21  C   UNL     1      36.381 -25.403 -13.858  0.00  0.00    +0.043 C 
ATOM     22  C   UNL     1      38.492 -24.536 -14.929  0.00  0.00    +0.043 C 
ATOM     23  C   UNL     1      37.170 -26.662 -13.505  0.00  0.00    +0.143 C 
ATOM     24  C   UNL     1      39.150 -25.848 -14.510  0.00  0.00    +0.143 C 
BRANCH  20  27
ATOM     25  O   UNL     1      38.972 -23.864 -12.348  0.00  0.00    -0.273 OA
ATOM     26  N   UNL     1      36.815 -23.153 -11.910  0.00  0.00    -0.197 N 
ATOM     27  C   UNL     1      37.796 -23.725 -12.678  0.00  0.00    +0.245 C 
ATOM     28  H   UNL     1      35.887 -23.067 -12.225  0.00  0.00    +0.182 HD
BRANCH  26  29
ATOM     29  O   UNL     1      37.219 -22.696 -10.647  0.00  0.00    -0.295 OA
ATOM     30  H   UNL     1      37.045 -23.383  -9.985  0.00  0.00    +0.241 HD
ENDBRANCH  26  29
ENDBRANCH  20  27
ENDBRANCH  18  20
ENDBRANCH   1  18
TORSDOF 7
ENDMDL
MODEL 2
REMARK VINA RESULT:     -10.8      1.460      2.495
REMARK  Name = 3342298
REMARK  7 active torsions:
REMARK  status: ('A' for Active; 'I' for Inactive)
REMARK    1  A    between atoms: S_1  and  C_4
REMARK    2  A    between atoms: S_1  and  C_18
REMARK    3  A    between atoms: C_9  and  O_10
REMARK    4  A    between atoms: O_10  and  C_12
REMARK    5  A    between atoms: C_18  and  C_20
REMARK    6  A    between atoms: C_20  and  C_27
REMARK    7  A    between atoms: N_26  and  O_29
REMARK                            x       y       z     vdW  Elec       q    Type
REMARK                         _______ _______ _______ _____ _____    ______ ____
ROOT
ATOM      1  S   UNL     1      35.754 -23.318 -15.703  0.00  0.00    +0.009 S 
ATOM      2  O   UNL     1      35.204 -22.384 -14.730  0.00  0.00    -0.169 OA
ATOM      3  O   UNL     1      35.194 -24.657 -15.816  0.00  0.00    -0.169 OA
ENDROOT
BRANCH   1   4
ATOM      4  C   UNL     1      35.614 -22.541 -17.287  0.00  0.00    +0.106 C 
ATOM      5  C   UNL     1      34.450 -22.702 -18.017  0.00  0.00    +0.021 C 
ATOM      6  C   UNL     1      36.670 -21.785 -17.762  0.00  0.00    +0.021 C 
ATOM      7  C   UNL     1      34.340 -22.089 -19.265  0.00  0.00    +0.039 C 
ATOM      8  C   UNL     1      36.560 -21.172 -19.010  0.00  0.00    +0.039 C 
ATOM      9  C   UNL     1      35.394 -21.323 -19.761  0.00  0.00    +0.145 C 
BRANCH   9  10
ATOM     10  O   UNL     1      35.288 -20.726 -20.978  0.00  0.00    -0.453 OA
BRANCH  10  12
ATOM     11 CL   UNL     1      33.056 -15.298 -21.173  0.00  0.00    -0.082 Cl
ATOM     12  C   UNL     1      34.762 -19.445 -21.023  0.00  0.00    +0.145 C 
ATOM     13  C   UNL     1      33.394 -19.275 -20.914  0.00  0.00    +0.038 C 
ATOM     14  C   UNL     1      35.618 -18.369 -21.177  0.00  0.00    +0.038 C 
ATOM     15  C   UNL     1      32.863 -17.986 -20.959  0.00  0.00    +0.015 C 
ATOM     16  C   UNL     1      35.087 -17.080 -21.224  0.00  0.00    +0.015 C 
ATOM     17  C   UNL     1      33.710 -16.888 -21.114  0.00  0.00    +0.058 C 
ENDBRANCH  10  12
ENDBRANCH   9  10
ENDBRANCH   1   4
BRANCH   1  18
ATOM     18  C   UNL     1      37.483 -23.467 -15.442  0.00  0.00    +0.165 C 
BRANCH  18  20
ATOM     19  O   UNL     1      36.700 -25.734 -11.935  0.00  0.00    -0.354 OA
ATOM     20  C   UNL     1      37.781 -24.434 -14.291  0.00  0.00    +0.098 C 
ATOM     21  C   UNL     1      37.624 -23.722 -12.938  0.00  0.00    +0.043 C 
ATOM     22  C   UNL     1      36.846 -25.652 -14.361  0.00  0.00    +0.043 C 
ATOM     23  C   UNL     1      37.672 -24.704 -11.770  0.00  0.00    +0.143 C 
ATOM     24  C   UNL     1      36.941 -26.514 -13.104  0.00  0.00    +0.143 C 
BRANCH  20  27
ATOM     25  O   UNL     1      40.083 -24.587 -13.655  0.00  0.00    -0.273 OA
ATOM     26  N   UNL     1      39.402 -25.630 -15.603  0.00  0.00    -0.197 N 
ATOM     27  C   UNL     1      39.212 -24.880 -14.471  0.00  0.00    +0.245 C 
ATOM     28  H   UNL     1      38.667 -25.835 -16.224  0.00  0.00    +0.182 HD
BRANCH  26  29
ATOM     29  O   UNL     1      40.710 -26.086 -15.819  0.00  0.00    -0.295 OA
ATOM     30  H   UNL     1      41.219 -25.400 -16.277  0.00  0.00    +0.241 HD
ENDBRANCH  26  29
ENDBRANCH  20  27
ENDBRANCH  18  20
ENDBRANCH   1  18
TORSDOF 7
ENDMDL
MODEL 3
REMARK VINA RESULT:     -10.4      4.100      5.568
REMARK  Name = 3342298
REMARK  7 active torsions:
REMARK  status: ('A' for Active; 'I' for Inactive)
REMARK    1  A    between atoms: S_1  and  C_4
REMARK    2  A    between atoms: S_1  and  C_18
REMARK    3  A    between atoms: C_9  and  O_10
REMARK    4  A    between atoms: O_10  and  C_12
REMARK    5  A    between atoms: C_18  and  C_20
REMARK    6  A    between atoms: C_20  and  C_27
REMARK    7  A    between atoms: N_26  and  O_29
REMARK                            x       y       z     vdW  Elec       q    Type
REMARK                         _______ _______ _______ _____ _____    ______ ____
ROOT
ATOM      1  S   UNL     1      33.335 -23.259 -17.425  0.00  0.00    +0.009 S 
ATOM      2  O   UNL     1      33.206 -24.528 -18.128  0.00  0.00    -0.169 OA
ATOM      3  O   UNL     1      33.969 -23.219 -16.115  0.00  0.00    -0.169 OA
ENDROOT
BRANCH   1   4
ATOM      4  C   UNL     1      34.242 -22.178 -18.494  0.00  0.00    +0.106 C 
ATOM      5  C   UNL     1      33.565 -21.472 -19.472  0.00  0.00    +0.021 C 
ATOM      6  C   UNL     1      35.610 -22.058 -18.327  0.00  0.00    +0.021 C 
ATOM      7  C   UNL     1      34.280 -20.620 -20.313  0.00  0.00    +0.039 C 
ATOM      8  C   UNL     1      36.325 -21.205 -19.167  0.00  0.00    +0.039 C 
ATOM      9  C   UNL     1      35.659 -20.485 -20.160  0.00  0.00    +0.145 C 
BRANCH   9  10
ATOM     10  O   UNL     1      36.358 -19.654 -20.981  0.00  0.00    -0.453 OA
BRANCH  10  12
ATOM     11 CL   UNL     1      33.438 -15.221 -23.491  0.00  0.00    -0.082 Cl
ATOM     12  C   UNL     1      35.670 -18.609 -21.573  0.00  0.00    +0.145 C 
ATOM     13  C   UNL     1      35.254 -17.547 -20.790  0.00  0.00    +0.038 C 
ATOM     14  C   UNL     1      35.416 -18.652 -22.932  0.00  0.00    +0.038 C 
ATOM     15  C   UNL     1      34.561 -16.493 -21.387  0.00  0.00    +0.015 C 
ATOM     16  C   UNL     1      34.722 -17.600 -23.528  0.00  0.00    +0.015 C 
ATOM     17  C   UNL     1      34.295 -16.520 -22.756  0.00  0.00    +0.058 C 
ENDBRANCH  10  12
ENDBRANCH   9  10
ENDBRANCH   1   4
BRANCH   1  18
ATOM     18  C   UNL     1      31.752 -22.513 -17.291  0.00  0.00    +0.165 C 
BRANCH  18  20
ATOM     19  O   UNL     1      31.095 -24.745 -13.736  0.00  0.00    -0.354 OA
ATOM     20  C   UNL     1      30.948 -23.137 -16.146  0.00  0.00    +0.098 C 
ATOM     21  C   UNL     1      31.087 -24.668 -16.166  0.00  0.00    +0.043 C 
ATOM     22  C   UNL     1      31.424 -22.580 -14.794  0.00  0.00    +0.043 C 
ATOM     23  C   UNL     1      30.507 -25.308 -14.907  0.00  0.00    +0.143 C 
ATOM     24  C   UNL     1      30.824 -23.350 -13.619  0.00  0.00    +0.143 C 
BRANCH  20  27
ATOM     25  O   UNL     1      28.969 -21.861 -15.724  0.00  0.00    -0.273 OA
ATOM     26  N   UNL     1      28.911 -23.483 -17.372  0.00  0.00    -0.197 N 
ATOM     27  C   UNL     1      29.508 -22.752 -16.377  0.00  0.00    +0.245 C 
ATOM     28  H   UNL     1      29.390 -24.187 -17.864  0.00  0.00    +0.182 HD
BRANCH  26  29
ATOM     29  O   UNL     1      27.573 -23.162 -17.643  0.00  0.00    -0.295 OA
ATOM     30  H   UNL     1      27.005 -23.535 -16.952  0.00  0.00    +0.241 HD
ENDBRANCH  26  29
ENDBRANCH  20  27
ENDBRANCH  18  20
ENDBRANCH   1  18
TORSDOF 7
ENDMDL
MODEL 4
REMARK VINA RESULT:     -10.4      2.760      4.121
REMARK  Name = 3342298
REMARK  7 active torsions:
REMARK  status: ('A' for Active; 'I' for Inactive)
REMARK    1  A    between atoms: S_1  and  C_4
REMARK    2  A    between atoms: S_1  and  C_18
REMARK    3  A    between atoms: C_9  and  O_10
REMARK    4  A    between atoms: O_10  and  C_12
REMARK    5  A    between atoms: C_18  and  C_20
REMARK    6  A    between atoms: C_20  and  C_27
REMARK    7  A    between atoms: N_26  and  O_29
REMARK                            x       y       z     vdW  Elec       q    Type
REMARK                         _______ _______ _______ _____ _____    ______ ____
ROOT
ATOM      1  S   UNL     1      33.285 -23.097 -17.839  0.00  0.00    +0.009 S 
ATOM      2  O   UNL     1      31.947 -22.535 -17.725  0.00  0.00    -0.169 OA
ATOM      3  O   UNL     1      33.466 -24.424 -18.411  0.00  0.00    -0.169 OA
ENDROOT
BRANCH   1   4
ATOM      4  C   UNL     1      34.233 -21.960 -18.810  0.00  0.00    +0.106 C 
ATOM      5  C   UNL     1      33.585 -21.158 -19.732  0.00  0.00    +0.021 C 
ATOM      6  C   UNL     1      35.601 -21.895 -18.625  0.00  0.00    +0.021 C 
ATOM      7  C   UNL     1      34.332 -20.262 -20.496  0.00  0.00    +0.039 C 
ATOM      8  C   UNL     1      36.349 -20.999 -19.388  0.00  0.00    +0.039 C 
ATOM      9  C   UNL     1      35.713 -20.181 -20.324  0.00  0.00    +0.145 C 
BRANCH   9  10
ATOM     10  O   UNL     1      36.443 -19.307 -21.069  0.00  0.00    -0.453 OA
BRANCH  10  12
ATOM     11 CL   UNL     1      33.547 -15.093 -23.956  0.00  0.00    -0.082 Cl
ATOM     12  C   UNL     1      35.759 -18.314 -21.749  0.00  0.00    +0.145 C 
ATOM     13  C   UNL     1      35.641 -18.398 -23.125  0.00  0.00    +0.038 C 
ATOM     14  C   UNL     1      35.211 -17.263 -21.037  0.00  0.00    +0.038 C 
ATOM     15  C   UNL     1      34.953 -17.397 -23.811  0.00  0.00    +0.015 C 
ATOM     16  C   UNL     1      34.524 -16.262 -21.723  0.00  0.00    +0.015 C 
ATOM     17  C   UNL     1      34.394 -16.329 -23.110  0.00  0.00    +0.058 C 
ENDBRANCH  10  12
ENDBRANCH   9  10
ENDBRANCH   1   4
BRANCH   1  18
ATOM     18  C   UNL     1      34.056 -23.071 -16.262  0.00  0.00    +0.165 C 
BRANCH  18  20
ATOM     19  O   UNL     1      30.339 -23.890 -14.373  0.00  0.00    -0.354 OA
ATOM     20  C   UNL     1      33.109 -23.607 -15.182  0.00  0.00    +0.098 C 
ATOM     21  C   UNL     1      32.294 -22.458 -14.566  0.00  0.00    +0.043 C 
ATOM     22  C   UNL     1      32.167 -24.667 -15.775  0.00  0.00    +0.043 C 
ATOM     23  C   UNL     1      31.174 -22.975 -13.666  0.00  0.00    +0.143 C 
ATOM     24  C   UNL     1      31.054 -25.047 -14.801  0.00  0.00    +0.143 C 
BRANCH  20  27
ATOM     25  O   UNL     1      33.807 -24.014 -12.930  0.00  0.00    -0.273 OA
ATOM     26  N   UNL     1      34.947 -25.061 -14.648  0.00  0.00    -0.197 N 
ATOM     27  C   UNL     1      33.984 -24.237 -14.125  0.00  0.00    +0.245 C 
ATOM     28  H   UNL     1      35.044 -25.204 -15.616  0.00  0.00    +0.182 HD
BRANCH  26  29
ATOM     29  O   UNL     1      35.784 -25.687 -13.714  0.00  0.00    -0.295 OA
ATOM     30  H   UNL     1      36.373 -25.028 -13.315  0.00  0.00    +0.241 HD
ENDBRANCH  26  29
ENDBRANCH  20  27
ENDBRANCH  18  20
ENDBRANCH   1  18
TORSDOF 7
ENDMDL
MODEL 5
REMARK VINA RESULT:     -10.3      1.799      2.257
REMARK  Name = 3342298
REMARK  7 active torsions:
REMARK  status: ('A' for Active; 'I' for Inactive)
REMARK    1  A    between atoms: S_1  and  C_4
REMARK    2  A    between atoms: S_1  and  C_18
REMARK    3  A    between atoms: C_9  and  O_10
REMARK    4  A    between atoms: O_10  and  C_12
REMARK    5  A    between atoms: C_18  and  C_20
REMARK    6  A    between atoms: C_20  and  C_27
REMARK    7  A    between atoms: N_26  and  O_29
REMARK                            x       y       z     vdW  Elec       q    Type
REMARK                         _______ _______ _______ _____ _____    ______ ____
ROOT
ATOM      1  S   UNL     1      34.233 -23.989 -13.900  0.00  0.00    +0.009 S 
ATOM      2  O   UNL     1      33.390 -23.252 -12.969  0.00  0.00    -0.169 OA
ATOM      3  O   UNL     1      34.214 -25.445 -13.896  0.00  0.00    -0.169 OA
ENDROOT
BRANCH   1   4
ATOM      4  C   UNL     1      33.784 -23.450 -15.526  0.00  0.00    +0.106 C 
ATOM      5  C   UNL     1      34.781 -23.173 -16.443  0.00  0.00    +0.021 C 
ATOM      6  C   UNL     1      32.446 -23.320 -15.846  0.00  0.00    +0.021 C 
ATOM      7  C   UNL     1      34.428 -22.749 -17.724  0.00  0.00    +0.039 C 
ATOM      8  C   UNL     1      32.091 -22.896 -17.127  0.00  0.00    +0.039 C 
ATOM      9  C   UNL     1      33.083 -22.612 -18.067  0.00  0.00    +0.145 C 
BRANCH   9  10
ATOM     10  O   UNL     1      32.737 -22.198 -19.315  0.00  0.00    -0.453 OA
BRANCH  10  12
ATOM     11 CL   UNL     1      35.982 -17.971 -21.781  0.00  0.00    -0.082 Cl
ATOM     12  C   UNL     1      33.502 -21.202 -19.898  0.00  0.00    +0.145 C 
ATOM     13  C   UNL     1      34.877 -21.342 -19.932  0.00  0.00    +0.038 C 
ATOM     14  C   UNL     1      32.871 -20.092 -20.431  0.00  0.00    +0.038 C 
ATOM     15  C   UNL     1      35.649 -20.338 -20.519  0.00  0.00    +0.015 C 
ATOM     16  C   UNL     1      33.642 -19.087 -21.016  0.00  0.00    +0.015 C 
ATOM     17  C   UNL     1      35.031 -19.211 -21.060  0.00  0.00    +0.058 C 
ENDBRANCH  10  12
ENDBRANCH   9  10
ENDBRANCH   1   4
BRANCH   1  18
ATOM     18  C   UNL     1      35.896 -23.462 -13.710  0.00  0.00    +0.165 C 
BRANCH  18  20
ATOM     19  O   UNL     1      38.832 -26.415 -14.555  0.00  0.00    -0.354 OA
ATOM     20  C   UNL     1      36.819 -24.653 -13.433  0.00  0.00    +0.098 C 
ATOM     21  C   UNL     1      36.481 -25.823 -14.372  0.00  0.00    +0.043 C 
ATOM     22  C   UNL     1      38.290 -24.242 -13.608  0.00  0.00    +0.043 C 
ATOM     23  C   UNL     1      37.527 -26.932 -14.299  0.00  0.00    +0.143 C 
ATOM     24  C   UNL     1      39.225 -25.450 -13.582  0.00  0.00    +0.143 C 
BRANCH  20  27
ATOM     25  O   UNL     1      36.698 -26.226 -11.634  0.00  0.00    -0.273 OA
ATOM     26  N   UNL     1      36.213 -24.007 -11.199  0.00  0.00    -0.197 N 
ATOM     27  C   UNL     1      36.571 -25.061 -12.001  0.00  0.00    +0.245 C 
ATOM     28  H   UNL     1      36.126 -23.091 -11.546  0.00  0.00    +0.182 HD
BRANCH  26  29
ATOM     29  O   UNL     1      35.981 -24.320  -9.852  0.00  0.00    -0.295 OA
ATOM     30  H   UNL     1      36.676 -23.925  -9.305  0.00  0.00    +0.241 HD
ENDBRANCH  26  29
ENDBRANCH  20  27
ENDBRANCH  18  20
ENDBRANCH   1  18
TORSDOF 7
ENDMDL
MODEL 6
REMARK VINA RESULT:     -10.0      1.872      2.601
REMARK  Name = 3342298
REMARK  7 active torsions:
REMARK  status: ('A' for Active; 'I' for Inactive)
REMARK    1  A    between atoms: S_1  and  C_4
REMARK    2  A    between atoms: S_1  and  C_18
REMARK    3  A    between atoms: C_9  and  O_10
REMARK    4  A    between atoms: O_10  and  C_12
REMARK    5  A    between atoms: C_18  and  C_20
REMARK    6  A    between atoms: C_20  and  C_27
REMARK    7  A    between atoms: N_26  and  O_29
REMARK                            x       y       z     vdW  Elec       q    Type
REMARK                         _______ _______ _______ _____ _____    ______ ____
ROOT
ATOM      1  S   UNL     1      36.833 -22.567 -16.068  0.00  0.00    +0.009 S 
ATOM      2  O   UNL     1      37.493 -23.835 -16.342  0.00  0.00    -0.169 OA
ATOM      3  O   UNL     1      37.617 -21.428 -15.609  0.00  0.00    -0.169 OA
ENDROOT
BRANCH   1   4
ATOM      4  C   UNL     1      36.013 -22.087 -17.562  0.00  0.00    +0.106 C 
ATOM      5  C   UNL     1      34.697 -22.461 -17.758  0.00  0.00    +0.021 C 
ATOM      6  C   UNL     1      36.706 -21.345 -18.501  0.00  0.00    +0.021 C 
ATOM      7  C   UNL     1      34.051 -22.082 -18.935  0.00  0.00    +0.039 C 
ATOM      8  C   UNL     1      36.061 -20.965 -19.677  0.00  0.00    +0.039 C 
ATOM      9  C   UNL     1      34.733 -21.333 -19.894  0.00  0.00    +0.145 C 
BRANCH   9  10
ATOM     10  O   UNL     1      34.104 -20.963 -21.043  0.00  0.00    -0.453 OA
BRANCH  10  12
ATOM     11 CL   UNL     1      34.914 -15.467 -22.943  0.00  0.00    -0.082 Cl
ATOM     12  C   UNL     1      34.294 -19.667 -21.491  0.00  0.00    +0.145 C 
ATOM     13  C   UNL     1      35.032 -19.454 -22.641  0.00  0.00    +0.038 C 
ATOM     14  C   UNL     1      33.741 -18.619 -20.778  0.00  0.00    +0.038 C 
ATOM     15  C   UNL     1      35.224 -18.148 -23.093  0.00  0.00    +0.015 C 
ATOM     16  C   UNL     1      33.934 -17.313 -21.229  0.00  0.00    +0.015 C 
ATOM     17  C   UNL     1      34.675 -17.078 -22.387  0.00  0.00    +0.058 C 
ENDBRANCH  10  12
ENDBRANCH   9  10
ENDBRANCH   1   4
BRANCH   1  18
ATOM     18  C   UNL     1      35.530 -22.833 -14.922  0.00  0.00    +0.165 C 
BRANCH  18  20
ATOM     19  O   UNL     1      38.063 -25.580 -12.898  0.00  0.00    -0.354 OA
ATOM     20  C   UNL     1      35.918 -23.899 -13.891  0.00  0.00    +0.098 C 
ATOM     21  C   UNL     1      36.369 -25.188 -14.597  0.00  0.00    +0.043 C 
ATOM     22  C   UNL     1      37.038 -23.376 -12.977  0.00  0.00    +0.043 C 
ATOM     23  C   UNL     1      36.991 -26.183 -13.620  0.00  0.00    +0.143 C 
ATOM     24  C   UNL     1      37.620 -24.483 -12.101  0.00  0.00    +0.143 C 
BRANCH  20  27
ATOM     25  O   UNL     1      34.578 -23.782 -11.912  0.00  0.00    -0.273 OA
ATOM     26  N   UNL     1      33.720 -24.864 -13.767  0.00  0.00    -0.197 N 
ATOM     27  C   UNL     1      34.678 -24.170 -13.074  0.00  0.00    +0.245 C 
ATOM     28  H   UNL     1      33.854 -25.152 -14.699  0.00  0.00    +0.182 HD
BRANCH  26  29
ATOM     29  O   UNL     1      32.538 -25.136 -13.065  0.00  0.00    -0.295 OA
ATOM     30  H   UNL     1      32.663 -24.923 -12.127  0.00  0.00    +0.241 HD
ENDBRANCH  26  29
ENDBRANCH  20  27
ENDBRANCH  18  20
ENDBRANCH   1  18
TORSDOF 7
ENDMDL
MODEL 7
REMARK VINA RESULT:      -9.9      5.234      9.957
REMARK  Name = 3342298
REMARK  7 active torsions:
REMARK  status: ('A' for Active; 'I' for Inactive)
REMARK    1  A    between atoms: S_1  and  C_4
REMARK    2  A    between atoms: S_1  and  C_18
REMARK    3  A    between atoms: C_9  and  O_10
REMARK    4  A    between atoms: O_10  and  C_12
REMARK    5  A    between atoms: C_18  and  C_20
REMARK    6  A    between atoms: C_20  and  C_27
REMARK    7  A    between atoms: N_26  and  O_29
REMARK                            x       y       z     vdW  Elec       q    Type
REMARK                         _______ _______ _______ _____ _____    ______ ____
ROOT
ATOM      1  S   UNL     1      35.127 -18.632 -21.443  0.00  0.00    +0.009 S 
ATOM      2  O   UNL     1      35.977 -17.848 -20.557  0.00  0.00    -0.169 OA
ATOM      3  O   UNL     1      35.617 -19.019 -22.759  0.00  0.00    -0.169 OA
ENDROOT
BRANCH   1   4
ATOM      4  C   UNL     1      34.710 -20.113 -20.568  0.00  0.00    +0.106 C 
ATOM      5  C   UNL     1      35.724 -20.940 -20.121  0.00  0.00    +0.021 C 
ATOM      6  C   UNL     1      33.378 -20.410 -20.345  0.00  0.00    +0.021 C 
ATOM      7  C   UNL     1      35.395 -22.107 -19.431  0.00  0.00    +0.039 C 
ATOM      8  C   UNL     1      33.048 -21.576 -19.655  0.00  0.00    +0.039 C 
ATOM      9  C   UNL     1      34.057 -22.424 -19.197  0.00  0.00    +0.145 C 
BRANCH   9  10
ATOM     10  O   UNL     1      33.735 -23.562 -18.524  0.00  0.00    -0.453 OA
BRANCH  10  12
ATOM     11 CL   UNL     1      31.703 -23.015 -13.042  0.00  0.00    -0.082 Cl
ATOM     12  C   UNL     1      33.255 -23.431 -17.232  0.00  0.00    +0.145 C 
ATOM     13  C   UNL     1      34.143 -23.504 -16.173  0.00  0.00    +0.038 C 
ATOM     14  C   UNL     1      31.901 -23.233 -17.031  0.00  0.00    +0.038 C 
ATOM     15  C   UNL     1      33.661 -23.373 -14.871  0.00  0.00    +0.015 C 
ATOM     16  C   UNL     1      31.419 -23.104 -15.729  0.00  0.00    +0.015 C 
ATOM     17  C   UNL     1      32.298 -23.173 -14.649  0.00  0.00    +0.058 C 
ENDBRANCH  10  12
ENDBRANCH   9  10
ENDBRANCH   1   4
BRANCH   1  18
ATOM     18  C   UNL     1      33.594 -17.802 -21.651  0.00  0.00    +0.165 C 
BRANCH  18  20
ATOM     19  O   UNL     1      33.388 -13.654 -20.753  0.00  0.00    -0.354 OA
ATOM     20  C   UNL     1      33.810 -16.300 -21.864  0.00  0.00    +0.098 C 
ATOM     21  C   UNL     1      32.460 -15.568 -21.930  0.00  0.00    +0.043 C 
ATOM     22  C   UNL     1      34.673 -15.718 -20.731  0.00  0.00    +0.043 C 
ATOM     23  C   UNL     1      32.632 -14.051 -21.896  0.00  0.00    +0.143 C 
ATOM     24  C   UNL     1      34.708 -14.192 -20.770  0.00  0.00    +0.143 C 
BRANCH  20  27
ATOM     25  O   UNL     1      35.563 -15.492 -23.277  0.00  0.00    -0.273 OA
ATOM     26  N   UNL     1      33.929 -16.841 -24.202  0.00  0.00    -0.197 N 
ATOM     27  C   UNL     1      34.535 -16.156 -23.180  0.00  0.00    +0.245 C 
ATOM     28  H   UNL     1      33.103 -17.359 -24.068  0.00  0.00    +0.182 HD
BRANCH  26  29
ATOM     29  O   UNL     1      34.563 -16.758 -25.450  0.00  0.00    -0.295 OA
ATOM     30  H   UNL     1      33.970 -17.101 -26.136  0.00  0.00    +0.241 HD
ENDBRANCH  26  29
ENDBRANCH  20  27
ENDBRANCH  18  20
ENDBRANCH   1  18
TORSDOF 7
ENDMDL
MODEL 8
REMARK VINA RESULT:      -9.7      2.042      3.254
REMARK  Name = 3342298
REMARK  7 active torsions:
REMARK  status: ('A' for Active; 'I' for Inactive)
REMARK    1  A    between atoms: S_1  and  C_4
REMARK    2  A    between atoms: S_1  and  C_18
REMARK    3  A    between atoms: C_9  and  O_10
REMARK    4  A    between atoms: O_10  and  C_12
REMARK    5  A    between atoms: C_18  and  C_20
REMARK    6  A    between atoms: C_20  and  C_27
REMARK    7  A    between atoms: N_26  and  O_29
REMARK                            x       y       z     vdW  Elec       q    Type
REMARK                         _______ _______ _______ _____ _____    ______ ____
ROOT
ATOM      1  S   UNL     1      34.042 -22.999 -17.497  0.00  0.00    +0.009 S 
ATOM      2  O   UNL     1      32.889 -22.424 -16.818  0.00  0.00    -0.169 OA
ATOM      3  O   UNL     1      33.969 -24.353 -18.028  0.00  0.00    -0.169 OA
ENDROOT
BRANCH   1   4
ATOM      4  C   UNL     1      34.431 -21.915 -18.842  0.00  0.00    +0.106 C 
ATOM      5  C   UNL     1      35.755 -21.614 -19.104  0.00  0.00    +0.021 C 
ATOM      6  C   UNL     1      33.403 -21.394 -19.605  0.00  0.00    +0.021 C 
ATOM      7  C   UNL     1      36.061 -20.761 -20.164  0.00  0.00    +0.039 C 
ATOM      8  C   UNL     1      33.708 -20.541 -20.665  0.00  0.00    +0.039 C 
ATOM      9  C   UNL     1      35.038 -20.225 -20.945  0.00  0.00    +0.145 C 
BRANCH   9  10
ATOM     10  O   UNL     1      35.335 -19.392 -21.979  0.00  0.00    -0.453 OA
BRANCH  10  12
ATOM     11 CL   UNL     1      33.239 -13.912 -21.758  0.00  0.00    -0.082 Cl
ATOM     12  C   UNL     1      34.842 -18.099 -21.926  0.00  0.00    +0.145 C 
ATOM     13  C   UNL     1      33.888 -17.781 -20.977  0.00  0.00    +0.038 C 
ATOM     14  C   UNL     1      35.315 -17.159 -22.824  0.00  0.00    +0.038 C 
ATOM     15  C   UNL     1      33.390 -16.479 -20.924  0.00  0.00    +0.015 C 
ATOM     16  C   UNL     1      34.817 -15.858 -22.772  0.00  0.00    +0.015 C 
ATOM     17  C   UNL     1      33.854 -15.517 -21.821  0.00  0.00    +0.058 C 
ENDBRANCH  10  12
ENDBRANCH   9  10
ENDBRANCH   1   4
BRANCH   1  18
ATOM     18  C   UNL     1      35.440 -22.899 -16.439  0.00  0.00    +0.165 C 
BRANCH  18  20
ATOM     19  O   UNL     1      33.979 -23.924 -12.583  0.00  0.00    -0.354 OA
ATOM     20  C   UNL     1      35.242 -23.763 -15.189  0.00  0.00    +0.098 C 
ATOM     21  C   UNL     1      35.788 -23.042 -13.946  0.00  0.00    +0.043 C 
ATOM     22  C   UNL     1      33.752 -24.093 -14.998  0.00  0.00    +0.043 C 
ATOM     23  C   UNL     1      35.393 -23.755 -12.655  0.00  0.00    +0.143 C 
ATOM     24  C   UNL     1      33.483 -24.741 -13.641  0.00  0.00    +0.143 C 
BRANCH  20  27
ATOM     25  O   UNL     1      35.457 -26.083 -15.734  0.00  0.00    -0.273 OA
ATOM     26  N   UNL     1      37.371 -24.874 -15.265  0.00  0.00    -0.197 N 
ATOM     27  C   UNL     1      36.019 -25.036 -15.424  0.00  0.00    +0.245 C 
ATOM     28  H   UNL     1      37.770 -24.010 -15.014  0.00  0.00    +0.182 HD
BRANCH  26  29
ATOM     29  O   UNL     1      38.151 -26.019 -15.482  0.00  0.00    -0.295 OA
ATOM     30  H   UNL     1      37.587 -26.807 -15.436  0.00  0.00    +0.241 HD
ENDBRANCH  26  29
ENDBRANCH  20  27
ENDBRANCH  18  20
ENDBRANCH   1  18
TORSDOF 7
ENDMDL
MODEL 9
REMARK VINA RESULT:      -9.6      7.213     10.986
REMARK  Name = 3342298
REMARK  7 active torsions:
REMARK  status: ('A' for Active; 'I' for Inactive)
REMARK    1  A    between atoms: S_1  and  C_4
REMARK    2  A    between atoms: S_1  and  C_18
REMARK    3  A    between atoms: C_9  and  O_10
REMARK    4  A    between atoms: O_10  and  C_12
REMARK    5  A    between atoms: C_18  and  C_20
REMARK    6  A    between atoms: C_20  and  C_27
REMARK    7  A    between atoms: N_26  and  O_29
REMARK                            x       y       z     vdW  Elec       q    Type
REMARK                         _______ _______ _______ _____ _____    ______ ____
ROOT
ATOM      1  S   UNL     1      33.506 -15.627 -20.897  0.00  0.00    +0.009 S 
ATOM      2  O   UNL     1      34.607 -15.316 -19.997  0.00  0.00    -0.169 OA
ATOM      3  O   UNL     1      32.431 -16.502 -20.450  0.00  0.00    -0.169 OA
ENDROOT
BRANCH   1   4
ATOM      4  C   UNL     1      32.780 -14.081 -21.365  0.00  0.00    +0.106 C 
ATOM      5  C   UNL     1      32.682 -13.761 -22.706  0.00  0.00    +0.021 C 
ATOM      6  C   UNL     1      32.324 -13.226 -20.378  0.00  0.00    +0.021 C 
ATOM      7  C   UNL     1      32.110 -12.544 -23.074  0.00  0.00    +0.039 C 
ATOM      8  C   UNL     1      31.751 -12.009 -20.746  0.00  0.00    +0.039 C 
ATOM      9  C   UNL     1      31.644 -11.668 -22.095  0.00  0.00    +0.145 C 
BRANCH   9  10
ATOM     10  O   UNL     1      31.086 -10.480 -22.453  0.00  0.00    -0.453 OA
BRANCH  10  12
ATOM     11 CL   UNL     1      34.605  -6.408 -24.802  0.00  0.00    -0.082 Cl
ATOM     12  C   UNL     1      31.917  -9.519 -23.005  0.00  0.00    +0.145 C 
ATOM     13  C   UNL     1      31.397  -8.273 -23.308  0.00  0.00    +0.038 C 
ATOM     14  C   UNL     1      33.244  -9.830 -23.242  0.00  0.00    +0.038 C 
ATOM     15  C   UNL     1      32.233  -7.306 -23.865  0.00  0.00    +0.015 C 
ATOM     16  C   UNL     1      34.079  -8.863 -23.801  0.00  0.00    +0.015 C 
ATOM     17  C   UNL     1      33.574  -7.601 -24.112  0.00  0.00    +0.058 C 
ENDBRANCH  10  12
ENDBRANCH   9  10
ENDBRANCH   1   4
BRANCH   1  18
ATOM     18  C   UNL     1      34.153 -16.275 -22.394  0.00  0.00    +0.165 C 
BRANCH  18  20
ATOM     19  O   UNL     1      35.440 -19.719 -20.263  0.00  0.00    -0.354 OA
ATOM     20  C   UNL     1      34.636 -17.717 -22.202  0.00  0.00    +0.098 C 
ATOM     21  C   UNL     1      36.024 -17.734 -21.540  0.00  0.00    +0.043 C 
ATOM     22  C   UNL     1      33.632 -18.508 -21.348  0.00  0.00    +0.043 C 
ATOM     23  C   UNL     1      36.432 -19.141 -21.110  0.00  0.00    +0.143 C 
ATOM     24  C   UNL     1      34.188 -19.867 -20.929  0.00  0.00    +0.143 C 
BRANCH  20  27
ATOM     25  O   UNL     1      34.943 -19.523 -23.741  0.00  0.00    -0.273 OA
ATOM     26  N   UNL     1      34.517 -17.411 -24.583  0.00  0.00    -0.197 N 
ATOM     27  C   UNL     1      34.721 -18.325 -23.581  0.00  0.00    +0.245 C 
ATOM     28  H   UNL     1      34.344 -16.460 -24.397  0.00  0.00    +0.182 HD
BRANCH  26  29
ATOM     29  O   UNL     1      34.571 -17.917 -25.889  0.00  0.00    -0.295 OA
ATOM     30  H   UNL     1      34.092 -17.323 -26.486  0.00  0.00    +0.241 HD
ENDBRANCH  26  29
ENDBRANCH  20  27
ENDBRANCH  18  20
ENDBRANCH   1  18
TORSDOF 7
ENDMDL
