MODEL 1
REMARK VINA RESULT:      -9.4      0.000      0.000
REMARK  Name = 5489013
REMARK  9 active torsions:
REMARK  status: ('A' for Active; 'I' for Inactive)
REMARK    1  A    between atoms: N_1  and  C_4
REMARK    2  A    between atoms: N_1  and  C_15
REMARK    3  A    between atoms: C_4  and  C_6
REMARK    4  A    between atoms: C_6  and  C_7
REMARK    5  A    between atoms: C_6  and  O_13
REMARK    6  A    between atoms: C_15  and  C_16
REMARK    7  A    between atoms: C_16  and  C_18
REMARK    8  A    between atoms: C_18  and  C_19
REMARK    9  A    between atoms: C_22  and  O_25
REMARK                            x       y       z     vdW  Elec       q    Type
REMARK                         _______ _______ _______ _____ _____    ______ ____
ROOT
ATOM      1  N   UNL     1      34.711 -15.593 -22.442  0.00  0.00    +0.387 N 
ATOM      2  H   UNL     1      34.206 -15.079 -23.165  0.00  0.00    -0.084 HD
ATOM      3  H   UNL     1      35.703 -15.356 -22.471  0.00  0.00    -0.084 HD
ENDROOT
BRANCH   1   4
ATOM      4  C   UNL     1      34.561 -17.034 -22.680  0.00  0.00    -0.030 C 
ATOM      5  C   UNL     1      34.747 -17.287 -24.178  0.00  0.00    -0.021 C 
BRANCH   4   6
ATOM      6  C   UNL     1      35.578 -17.811 -21.816  0.00  0.00    +0.113 C 
BRANCH   6   7
ATOM      7  C   UNL     1      34.988 -19.023 -21.126  0.00  0.00    +0.002 C 
ATOM      8  C   UNL     1      33.613 -19.130 -21.007  0.00  0.00    -0.002 C 
ATOM      9  C   UNL     1      35.837 -19.997 -20.628  0.00  0.00    -0.002 C 
ATOM     10  C   UNL     1      33.070 -20.247 -20.371  0.00  0.00    -0.000 C 
ATOM     11  C   UNL     1      35.293 -21.113 -19.993  0.00  0.00    -0.000 C 
ATOM     12  C   UNL     1      33.910 -21.238 -19.864  0.00  0.00    -0.000 C 
ENDBRANCH   6   7
BRANCH   6  13
ATOM     13  O   UNL     1      36.654 -18.284 -22.631  0.00  0.00    -0.382 OA
ATOM     14  H   UNL     1      37.490 -18.189 -22.149  0.00  0.00    +0.211 HD
ENDBRANCH   6  13
ENDBRANCH   4   6
ENDBRANCH   1   4
BRANCH   1  15
ATOM     15  C   UNL     1      34.179 -15.233 -21.140  0.00  0.00    -0.073 C 
BRANCH  15  16
ATOM     16  C   UNL     1      32.679 -14.948 -21.218  0.00  0.00    +0.046 C 
BRANCH  16  18
ATOM     17  O   UNL     1      32.356 -13.828 -23.328  0.00  0.00    -0.291 OA
ATOM     18  C   UNL     1      32.371 -13.748 -22.102  0.00  0.00    +0.171 C 
BRANCH  18  19
ATOM     19  C   UNL     1      32.078 -12.436 -21.453  0.00  0.00    +0.038 C 
ATOM     20  C   UNL     1      31.961 -11.319 -22.248  0.00  0.00    +0.040 C 
ATOM     21  C   UNL     1      31.934 -12.395 -20.085  0.00  0.00    +0.003 C 
ATOM     22  C   UNL     1      31.687 -10.093 -21.642  0.00  0.00    +0.139 C 
ATOM     23  C   UNL     1      31.659 -11.169 -19.479  0.00  0.00    +0.003 C 
ATOM     24  C   UNL     1      31.536 -10.018 -20.257  0.00  0.00    +0.037 C 
BRANCH  22  25
ATOM     25  O   UNL     1      31.568  -8.970 -22.401  0.00  0.00    -0.471 OA
ATOM     26  C   UNL     1      32.300  -8.933 -23.625  0.00  0.00    +0.252 C 
ENDBRANCH  22  25
ENDBRANCH  18  19
ENDBRANCH  16  18
ENDBRANCH  15  16
ENDBRANCH   1  15
TORSDOF 9
ENDMDL
MODEL 2
REMARK VINA RESULT:      -9.4      2.422      8.497
REMARK  Name = 5489013
REMARK  9 active torsions:
REMARK  status: ('A' for Active; 'I' for Inactive)
REMARK    1  A    between atoms: N_1  and  C_4
REMARK    2  A    between atoms: N_1  and  C_15
REMARK    3  A    between atoms: C_4  and  C_6
REMARK    4  A    between atoms: C_6  and  C_7
REMARK    5  A    between atoms: C_6  and  O_13
REMARK    6  A    between atoms: C_15  and  C_16
REMARK    7  A    between atoms: C_16  and  C_18
REMARK    8  A    between atoms: C_18  and  C_19
REMARK    9  A    between atoms: C_22  and  O_25
REMARK                            x       y       z     vdW  Elec       q    Type
REMARK                         _______ _______ _______ _____ _____    ______ ____
ROOT
ATOM      1  N   UNL     1      34.874 -15.715 -22.417  0.00  0.00    +0.387 N 
ATOM      2  H   UNL     1      35.097 -16.162 -21.527  0.00  0.00    -0.084 HD
ATOM      3  H   UNL     1      35.401 -14.847 -22.516  0.00  0.00    -0.084 HD
ENDROOT
BRANCH   1   4
ATOM      4  C   UNL     1      33.439 -15.405 -22.454  0.00  0.00    -0.030 C 
ATOM      5  C   UNL     1      32.829 -15.832 -21.118  0.00  0.00    -0.021 C 
BRANCH   4   6
ATOM      6  C   UNL     1      33.241 -13.901 -22.744  0.00  0.00    +0.113 C 
BRANCH   6   7
ATOM      7  C   UNL     1      33.310 -13.551 -24.215  0.00  0.00    +0.002 C 
ATOM      8  C   UNL     1      32.909 -14.488 -25.152  0.00  0.00    -0.002 C 
ATOM      9  C   UNL     1      33.774 -12.301 -24.591  0.00  0.00    -0.002 C 
ATOM     10  C   UNL     1      32.974 -14.165 -26.508  0.00  0.00    -0.000 C 
ATOM     11  C   UNL     1      33.837 -11.979 -25.947  0.00  0.00    -0.000 C 
ATOM     12  C   UNL     1      33.437 -12.911 -26.904  0.00  0.00    -0.000 C 
ENDBRANCH   6   7
BRANCH   6  13
ATOM     13  O   UNL     1      31.956 -13.477 -22.279  0.00  0.00    -0.382 OA
ATOM     14  H   UNL     1      31.524 -14.209 -21.812  0.00  0.00    +0.211 HD
ENDBRANCH   6  13
ENDBRANCH   4   6
ENDBRANCH   1   4
BRANCH   1  15
ATOM     15  C   UNL     1      35.231 -16.608 -23.504  0.00  0.00    -0.073 C 
BRANCH  15  16
ATOM     16  C   UNL     1      34.781 -18.039 -23.212  0.00  0.00    +0.046 C 
BRANCH  16  18
ATOM     17  O   UNL     1      36.711 -18.377 -21.808  0.00  0.00    -0.291 OA
ATOM     18  C   UNL     1      35.535 -18.647 -22.038  0.00  0.00    +0.171 C 
BRANCH  18  19
ATOM     19  C   UNL     1      34.817 -19.601 -21.142  0.00  0.00    +0.038 C 
ATOM     20  C   UNL     1      35.559 -20.473 -20.378  0.00  0.00    +0.040 C 
ATOM     21  C   UNL     1      33.442 -19.570 -21.112  0.00  0.00    +0.003 C 
ATOM     22  C   UNL     1      34.888 -21.363 -19.539  0.00  0.00    +0.139 C 
ATOM     23  C   UNL     1      32.771 -20.460 -20.274  0.00  0.00    +0.003 C 
ATOM     24  C   UNL     1      33.494 -21.358 -19.488  0.00  0.00    +0.037 C 
BRANCH  22  25
ATOM     25  O   UNL     1      35.594 -22.239 -18.773  0.00  0.00    -0.471 OA
ATOM     26  C   UNL     1      36.705 -21.717 -18.046  0.00  0.00    +0.252 C 
ENDBRANCH  22  25
ENDBRANCH  18  19
ENDBRANCH  16  18
ENDBRANCH  15  16
ENDBRANCH   1  15
TORSDOF 9
ENDMDL
MODEL 3
REMARK VINA RESULT:      -9.2      2.645      8.724
REMARK  Name = 5489013
REMARK  9 active torsions:
REMARK  status: ('A' for Active; 'I' for Inactive)
REMARK    1  A    between atoms: N_1  and  C_4
REMARK    2  A    between atoms: N_1  and  C_15
REMARK    3  A    between atoms: C_4  and  C_6
REMARK    4  A    between atoms: C_6  and  C_7
REMARK    5  A    between atoms: C_6  and  O_13
REMARK    6  A    between atoms: C_15  and  C_16
REMARK    7  A    between atoms: C_16  and  C_18
REMARK    8  A    between atoms: C_18  and  C_19
REMARK    9  A    between atoms: C_22  and  O_25
REMARK                            x       y       z     vdW  Elec       q    Type
REMARK                         _______ _______ _______ _____ _____    ______ ____
ROOT
ATOM      1  N   UNL     1      34.718 -15.505 -21.969  0.00  0.00    +0.387 N 
ATOM      2  H   UNL     1      35.165 -14.680 -21.567  0.00  0.00    -0.084 HD
ATOM      3  H   UNL     1      35.188 -15.773 -22.833  0.00  0.00    -0.084 HD
ENDROOT
BRANCH   1   4
ATOM      4  C   UNL     1      33.314 -15.195 -22.269  0.00  0.00    -0.030 C 
ATOM      5  C   UNL     1      32.483 -15.522 -21.026  0.00  0.00    -0.021 C 
BRANCH   4   6
ATOM      6  C   UNL     1      33.189 -13.716 -22.695  0.00  0.00    +0.113 C 
BRANCH   6   7
ATOM      7  C   UNL     1      33.279 -13.504 -24.192  0.00  0.00    +0.002 C 
ATOM      8  C   UNL     1      32.950 -14.546 -25.041  0.00  0.00    -0.002 C 
ATOM      9  C   UNL     1      33.689 -12.274 -24.677  0.00  0.00    -0.002 C 
ATOM     10  C   UNL     1      33.033 -14.351 -26.420  0.00  0.00    -0.000 C 
ATOM     11  C   UNL     1      33.771 -12.080 -26.056  0.00  0.00    -0.000 C 
ATOM     12  C   UNL     1      33.443 -13.119 -26.927  0.00  0.00    -0.000 C 
ENDBRANCH   6   7
BRANCH   6  13
ATOM     13  O   UNL     1      31.925 -13.191 -22.279  0.00  0.00    -0.382 OA
ATOM     14  H   UNL     1      31.990 -12.880 -21.363  0.00  0.00    +0.211 HD
ENDBRANCH   6  13
ENDBRANCH   4   6
ENDBRANCH   1   4
BRANCH   1  15
ATOM     15  C   UNL     1      34.807 -16.605 -21.025  0.00  0.00    -0.073 C 
BRANCH  15  16
ATOM     16  C   UNL     1      35.635 -17.755 -21.597  0.00  0.00    +0.046 C 
BRANCH  16  18
ATOM     17  O   UNL     1      34.070 -19.205 -22.718  0.00  0.00    -0.291 OA
ATOM     18  C   UNL     1      34.814 -19.027 -21.757  0.00  0.00    +0.171 C 
BRANCH  18  19
ATOM     19  C   UNL     1      34.921 -20.085 -20.710  0.00  0.00    +0.038 C 
ATOM     20  C   UNL     1      33.765 -20.662 -20.236  0.00  0.00    +0.040 C 
ATOM     21  C   UNL     1      36.172 -20.445 -20.262  0.00  0.00    +0.003 C 
ATOM     22  C   UNL     1      33.865 -21.652 -19.258  0.00  0.00    +0.139 C 
ATOM     23  C   UNL     1      36.271 -21.435 -19.284  0.00  0.00    +0.003 C 
ATOM     24  C   UNL     1      35.118 -22.038 -18.782  0.00  0.00    +0.037 C 
BRANCH  22  25
ATOM     25  O   UNL     1      32.740 -22.239 -18.768  0.00  0.00    -0.471 OA
ATOM     26  C   UNL     1      32.879 -23.022 -17.583  0.00  0.00    +0.252 C 
ENDBRANCH  22  25
ENDBRANCH  18  19
ENDBRANCH  16  18
ENDBRANCH  15  16
ENDBRANCH   1  15
TORSDOF 9
ENDMDL
MODEL 4
REMARK VINA RESULT:      -9.1      4.672      9.546
REMARK  Name = 5489013
REMARK  9 active torsions:
REMARK  status: ('A' for Active; 'I' for Inactive)
REMARK    1  A    between atoms: N_1  and  C_4
REMARK    2  A    between atoms: N_1  and  C_15
REMARK    3  A    between atoms: C_4  and  C_6
REMARK    4  A    between atoms: C_6  and  C_7
REMARK    5  A    between atoms: C_6  and  O_13
REMARK    6  A    between atoms: C_15  and  C_16
REMARK    7  A    between atoms: C_16  and  C_18
REMARK    8  A    between atoms: C_18  and  C_19
REMARK    9  A    between atoms: C_22  and  O_25
REMARK                            x       y       z     vdW  Elec       q    Type
REMARK                         _______ _______ _______ _____ _____    ______ ____
ROOT
ATOM      1  N   UNL     1      35.991 -20.206 -19.961  0.00  0.00    +0.387 N 
ATOM      2  H   UNL     1      35.641 -19.750 -19.118  0.00  0.00    -0.084 HD
ATOM      3  H   UNL     1      36.983 -20.001 -20.085  0.00  0.00    -0.084 HD
ENDROOT
BRANCH   1   4
ATOM      4  C   UNL     1      35.253 -19.700 -21.125  0.00  0.00    -0.030 C 
ATOM      5  C   UNL     1      33.764 -19.694 -20.774  0.00  0.00    -0.021 C 
BRANCH   4   6
ATOM      6  C   UNL     1      35.779 -18.298 -21.504  0.00  0.00    +0.113 C 
BRANCH   6   7
ATOM      7  C   UNL     1      35.259 -17.792 -22.833  0.00  0.00    +0.002 C 
ATOM      8  C   UNL     1      35.024 -16.438 -22.995  0.00  0.00    -0.002 C 
ATOM      9  C   UNL     1      35.030 -18.696 -23.857  0.00  0.00    -0.002 C 
ATOM     10  C   UNL     1      34.544 -15.972 -24.220  0.00  0.00    -0.000 C 
ATOM     11  C   UNL     1      34.551 -18.229 -25.081  0.00  0.00    -0.000 C 
ATOM     12  C   UNL     1      34.308 -16.868 -25.262  0.00  0.00    -0.000 C 
ENDBRANCH   6   7
BRANCH   6  13
ATOM     13  O   UNL     1      35.384 -17.343 -20.516  0.00  0.00    -0.382 OA
ATOM     14  H   UNL     1      36.050 -16.641 -20.460  0.00  0.00    +0.211 HD
ENDBRANCH   6  13
ENDBRANCH   4   6
ENDBRANCH   1   4
BRANCH   1  15
ATOM     15  C   UNL     1      35.820 -21.642 -19.833  0.00  0.00    -0.073 C 
BRANCH  15  16
ATOM     16  C   UNL     1      35.410 -22.023 -18.411  0.00  0.00    +0.046 C 
BRANCH  16  18
ATOM     17  O   UNL     1      33.422 -22.967 -19.395  0.00  0.00    -0.291 OA
ATOM     18  C   UNL     1      34.052 -22.709 -18.372  0.00  0.00    +0.171 C 
BRANCH  18  19
ATOM     19  C   UNL     1      33.472 -23.074 -17.046  0.00  0.00    +0.038 C 
ATOM     20  C   UNL     1      32.103 -23.083 -16.905  0.00  0.00    +0.040 C 
ATOM     21  C   UNL     1      34.329 -23.391 -16.017  0.00  0.00    +0.003 C 
ATOM     22  C   UNL     1      31.561 -23.426 -15.666  0.00  0.00    +0.139 C 
ATOM     23  C   UNL     1      33.786 -23.734 -14.778  0.00  0.00    +0.003 C 
ATOM     24  C   UNL     1      32.402 -23.751 -14.602  0.00  0.00    +0.037 C 
BRANCH  22  25
ATOM     25  O   UNL     1      30.211 -23.442 -15.496  0.00  0.00    -0.471 OA
ATOM     26  C   UNL     1      29.422 -22.798 -16.495  0.00  0.00    +0.252 C 
ENDBRANCH  22  25
ENDBRANCH  18  19
ENDBRANCH  16  18
ENDBRANCH  15  16
ENDBRANCH   1  15
TORSDOF 9
ENDMDL
MODEL 5
REMARK VINA RESULT:      -9.1      1.755      2.719
REMARK  Name = 5489013
REMARK  9 active torsions:
REMARK  status: ('A' for Active; 'I' for Inactive)
REMARK    1  A    between atoms: N_1  and  C_4
REMARK    2  A    between atoms: N_1  and  C_15
REMARK    3  A    between atoms: C_4  and  C_6
REMARK    4  A    between atoms: C_6  and  C_7
REMARK    5  A    between atoms: C_6  and  O_13
REMARK    6  A    between atoms: C_15  and  C_16
REMARK    7  A    between atoms: C_16  and  C_18
REMARK    8  A    between atoms: C_18  and  C_19
REMARK    9  A    between atoms: C_22  and  O_25
REMARK                            x       y       z     vdW  Elec       q    Type
REMARK                         _______ _______ _______ _____ _____    ______ ____
ROOT
ATOM      1  N   UNL     1      34.922 -15.825 -23.559  0.00  0.00    +0.387 N 
ATOM      2  H   UNL     1      35.556 -15.795 -24.358  0.00  0.00    -0.084 HD
ATOM      3  H   UNL     1      35.373 -15.421 -22.738  0.00  0.00    -0.084 HD
ENDROOT
BRANCH   1   4
ATOM      4  C   UNL     1      34.575 -17.223 -23.270  0.00  0.00    -0.030 C 
ATOM      5  C   UNL     1      34.708 -18.020 -24.570  0.00  0.00    -0.021 C 
BRANCH   4   6
ATOM      6  C   UNL     1      35.487 -17.762 -22.147  0.00  0.00    +0.113 C 
BRANCH   6   7
ATOM      7  C   UNL     1      34.869 -18.894 -21.353  0.00  0.00    +0.002 C 
ATOM      8  C   UNL     1      35.695 -19.838 -20.768  0.00  0.00    -0.002 C 
ATOM      9  C   UNL     1      33.492 -18.960 -21.231  0.00  0.00    -0.002 C 
ATOM     10  C   UNL     1      35.125 -20.881 -20.037  0.00  0.00    -0.000 C 
ATOM     11  C   UNL     1      32.923 -20.002 -20.499  0.00  0.00    -0.000 C 
ATOM     12  C   UNL     1      33.740 -20.962 -19.903  0.00  0.00    -0.000 C 
ENDBRANCH   6   7
BRANCH   6  13
ATOM     13  O   UNL     1      36.705 -18.265 -22.703  0.00  0.00    -0.382 OA
ATOM     14  H   UNL     1      37.408 -18.218 -22.037  0.00  0.00    +0.211 HD
ENDBRANCH   6  13
ENDBRANCH   4   6
ENDBRANCH   1   4
BRANCH   1  15
ATOM     15  C   UNL     1      33.729 -15.056 -23.865  0.00  0.00    -0.073 C 
BRANCH  15  16
ATOM     16  C   UNL     1      33.837 -13.632 -23.322  0.00  0.00    +0.046 C 
BRANCH  16  18
ATOM     17  O   UNL     1      33.470 -12.898 -25.588  0.00  0.00    -0.291 OA
ATOM     18  C   UNL     1      33.664 -12.588 -24.415  0.00  0.00    +0.171 C 
BRANCH  18  19
ATOM     19  C   UNL     1      33.734 -11.144 -24.045  0.00  0.00    +0.038 C 
ATOM     20  C   UNL     1      32.808 -10.646 -23.156  0.00  0.00    +0.040 C 
ATOM     21  C   UNL     1      34.722 -10.367 -24.604  0.00  0.00    +0.003 C 
ATOM     22  C   UNL     1      32.874  -9.296 -22.808  0.00  0.00    +0.139 C 
ATOM     23  C   UNL     1      34.788  -9.017 -24.256  0.00  0.00    +0.003 C 
ATOM     24  C   UNL     1      33.863  -8.482 -23.359  0.00  0.00    +0.037 C 
BRANCH  22  25
ATOM     25  O   UNL     1      31.971  -8.775 -21.934  0.00  0.00    -0.471 OA
ATOM     26  C   UNL     1      32.484  -8.231 -20.718  0.00  0.00    +0.252 C 
ENDBRANCH  22  25
ENDBRANCH  18  19
ENDBRANCH  16  18
ENDBRANCH  15  16
ENDBRANCH   1  15
TORSDOF 9
ENDMDL
MODEL 6
REMARK VINA RESULT:      -9.1      4.547     10.504
REMARK  Name = 5489013
REMARK  9 active torsions:
REMARK  status: ('A' for Active; 'I' for Inactive)
REMARK    1  A    between atoms: N_1  and  C_4
REMARK    2  A    between atoms: N_1  and  C_15
REMARK    3  A    between atoms: C_4  and  C_6
REMARK    4  A    between atoms: C_6  and  C_7
REMARK    5  A    between atoms: C_6  and  O_13
REMARK    6  A    between atoms: C_15  and  C_16
REMARK    7  A    between atoms: C_16  and  C_18
REMARK    8  A    between atoms: C_18  and  C_19
REMARK    9  A    between atoms: C_22  and  O_25
REMARK                            x       y       z     vdW  Elec       q    Type
REMARK                         _______ _______ _______ _____ _____    ______ ____
ROOT
ATOM      1  N   UNL     1      36.069 -20.050 -20.065  0.00  0.00    +0.387 N 
ATOM      2  H   UNL     1      35.649 -19.680 -19.211  0.00  0.00    -0.084 HD
ATOM      3  H   UNL     1      37.034 -19.729 -20.148  0.00  0.00    -0.084 HD
ENDROOT
BRANCH   1   4
ATOM      4  C   UNL     1      35.308 -19.569 -21.225  0.00  0.00    -0.030 C 
ATOM      5  C   UNL     1      33.819 -19.669 -20.886  0.00  0.00    -0.021 C 
BRANCH   4   6
ATOM      6  C   UNL     1      35.743 -18.127 -21.569  0.00  0.00    +0.113 C 
BRANCH   6   7
ATOM      7  C   UNL     1      35.183 -17.620 -22.882  0.00  0.00    +0.002 C 
ATOM      8  C   UNL     1      34.869 -16.278 -23.008  0.00  0.00    -0.002 C 
ATOM      9  C   UNL     1      34.997 -18.511 -23.925  0.00  0.00    -0.002 C 
ATOM     10  C   UNL     1      34.352 -15.812 -24.217  0.00  0.00    -0.000 C 
ATOM     11  C   UNL     1      34.481 -18.043 -25.134  0.00  0.00    -0.000 C 
ATOM     12  C   UNL     1      34.159 -16.694 -25.279  0.00  0.00    -0.000 C 
ENDBRANCH   6   7
BRANCH   6  13
ATOM     13  O   UNL     1      35.296 -17.224 -20.554  0.00  0.00    -0.382 OA
ATOM     14  H   UNL     1      35.826 -17.351 -19.752  0.00  0.00    +0.211 HD
ENDBRANCH   6  13
ENDBRANCH   4   6
ENDBRANCH   1   4
BRANCH   1  15
ATOM     15  C   UNL     1      36.059 -21.501 -20.014  0.00  0.00    -0.073 C 
BRANCH  15  16
ATOM     16  C   UNL     1      35.467 -22.001 -18.696  0.00  0.00    +0.046 C 
BRANCH  16  18
ATOM     17  O   UNL     1      37.195 -20.812 -17.510  0.00  0.00    -0.291 OA
ATOM     18  C   UNL     1      36.396 -21.745 -17.518  0.00  0.00    +0.171 C 
BRANCH  18  19
ATOM     19  C   UNL     1      36.328 -22.658 -16.341  0.00  0.00    +0.038 C 
ATOM     20  C   UNL     1      37.499 -22.992 -15.697  0.00  0.00    +0.040 C 
ATOM     21  C   UNL     1      35.099 -23.130 -15.942  0.00  0.00    +0.003 C 
ATOM     22  C   UNL     1      37.436 -23.845 -14.595  0.00  0.00    +0.139 C 
ATOM     23  C   UNL     1      35.036 -23.984 -14.840  0.00  0.00    +0.003 C 
ATOM     24  C   UNL     1      36.204 -24.342 -14.167  0.00  0.00    +0.037 C 
BRANCH  22  25
ATOM     25  O   UNL     1      38.576 -24.195 -13.940  0.00  0.00    -0.471 OA
ATOM     26  C   UNL     1      38.591 -25.468 -13.296  0.00  0.00    +0.252 C 
ENDBRANCH  22  25
ENDBRANCH  18  19
ENDBRANCH  16  18
ENDBRANCH  15  16
ENDBRANCH   1  15
TORSDOF 9
ENDMDL
MODEL 7
REMARK VINA RESULT:      -9.0      1.330      2.301
REMARK  Name = 5489013
REMARK  9 active torsions:
REMARK  status: ('A' for Active; 'I' for Inactive)
REMARK    1  A    between atoms: N_1  and  C_4
REMARK    2  A    between atoms: N_1  and  C_15
REMARK    3  A    between atoms: C_4  and  C_6
REMARK    4  A    between atoms: C_6  and  C_7
REMARK    5  A    between atoms: C_6  and  O_13
REMARK    6  A    between atoms: C_15  and  C_16
REMARK    7  A    between atoms: C_16  and  C_18
REMARK    8  A    between atoms: C_18  and  C_19
REMARK    9  A    between atoms: C_22  and  O_25
REMARK                            x       y       z     vdW  Elec       q    Type
REMARK                         _______ _______ _______ _____ _____    ______ ____
ROOT
ATOM      1  N   UNL     1      35.060 -16.597 -23.810  0.00  0.00    +0.387 N 
ATOM      2  H   UNL     1      34.441 -16.389 -24.594  0.00  0.00    -0.084 HD
ATOM      3  H   UNL     1      36.029 -16.623 -24.125  0.00  0.00    -0.084 HD
ENDROOT
BRANCH   1   4
ATOM      4  C   UNL     1      34.707 -17.908 -23.250  0.00  0.00    -0.030 C 
ATOM      5  C   UNL     1      34.967 -18.965 -24.325  0.00  0.00    -0.021 C 
BRANCH   4   6
ATOM      6  C   UNL     1      35.522 -18.158 -21.962  0.00  0.00    +0.113 C 
BRANCH   6   7
ATOM      7  C   UNL     1      34.997 -19.305 -21.124  0.00  0.00    +0.002 C 
ATOM      8  C   UNL     1      35.895 -20.184 -20.545  0.00  0.00    -0.002 C 
ATOM      9  C   UNL     1      33.630 -19.449 -20.957  0.00  0.00    -0.002 C 
ATOM     10  C   UNL     1      35.411 -21.241 -19.773  0.00  0.00    -0.000 C 
ATOM     11  C   UNL     1      33.147 -20.506 -20.185  0.00  0.00    -0.000 C 
ATOM     12  C   UNL     1      34.038 -21.401 -19.593  0.00  0.00    -0.000 C 
ENDBRANCH   6   7
BRANCH   6  13
ATOM     13  O   UNL     1      36.877 -18.475 -22.293  0.00  0.00    -0.382 OA
ATOM     14  H   UNL     1      37.149 -19.272 -21.812  0.00  0.00    +0.211 HD
ENDBRANCH   6  13
ENDBRANCH   4   6
ENDBRANCH   1   4
BRANCH   1  15
ATOM     15  C   UNL     1      34.921 -15.559 -22.804  0.00  0.00    -0.073 C 
BRANCH  15  16
ATOM     16  C   UNL     1      33.487 -15.031 -22.752  0.00  0.00    +0.046 C 
BRANCH  16  18
ATOM     17  O   UNL     1      33.409 -14.070 -24.962  0.00  0.00    -0.291 OA
ATOM     18  C   UNL     1      33.255 -13.908 -23.753  0.00  0.00    +0.171 C 
BRANCH  18  19
ATOM     19  C   UNL     1      32.827 -12.572 -23.245  0.00  0.00    +0.038 C 
ATOM     20  C   UNL     1      31.939 -12.520 -22.194  0.00  0.00    +0.040 C 
ATOM     21  C   UNL     1      33.338 -11.444 -23.845  0.00  0.00    +0.003 C 
ATOM     22  C   UNL     1      31.540 -11.271 -21.718  0.00  0.00    +0.139 C 
ATOM     23  C   UNL     1      32.938 -10.195 -23.369  0.00  0.00    +0.003 C 
ATOM     24  C   UNL     1      32.039 -10.108 -22.306  0.00  0.00    +0.037 C 
BRANCH  22  25
ATOM     25  O   UNL     1      30.662 -11.187 -20.682  0.00  0.00    -0.471 OA
ATOM     26  C   UNL     1      31.181 -10.755 -19.425  0.00  0.00    +0.252 C 
ENDBRANCH  22  25
ENDBRANCH  18  19
ENDBRANCH  16  18
ENDBRANCH  15  16
ENDBRANCH   1  15
TORSDOF 9
ENDMDL
MODEL 8
REMARK VINA RESULT:      -9.0      4.616      9.874
REMARK  Name = 5489013
REMARK  9 active torsions:
REMARK  status: ('A' for Active; 'I' for Inactive)
REMARK    1  A    between atoms: N_1  and  C_4
REMARK    2  A    between atoms: N_1  and  C_15
REMARK    3  A    between atoms: C_4  and  C_6
REMARK    4  A    between atoms: C_6  and  C_7
REMARK    5  A    between atoms: C_6  and  O_13
REMARK    6  A    between atoms: C_15  and  C_16
REMARK    7  A    between atoms: C_16  and  C_18
REMARK    8  A    between atoms: C_18  and  C_19
REMARK    9  A    between atoms: C_22  and  O_25
REMARK                            x       y       z     vdW  Elec       q    Type
REMARK                         _______ _______ _______ _____ _____    ______ ____
ROOT
ATOM      1  N   UNL     1      36.018 -20.205 -20.013  0.00  0.00    +0.387 N 
ATOM      2  H   UNL     1      35.703 -19.739 -19.161  0.00  0.00    -0.084 HD
ATOM      3  H   UNL     1      37.008 -20.020 -20.169  0.00  0.00    -0.084 HD
ENDROOT
BRANCH   1   4
ATOM      4  C   UNL     1      35.254 -19.687 -21.156  0.00  0.00    -0.030 C 
ATOM      5  C   UNL     1      33.772 -19.692 -20.774  0.00  0.00    -0.021 C 
BRANCH   4   6
ATOM      6  C   UNL     1      35.766 -18.279 -21.527  0.00  0.00    +0.113 C 
BRANCH   6   7
ATOM      7  C   UNL     1      35.215 -17.757 -22.838  0.00  0.00    +0.002 C 
ATOM      8  C   UNL     1      35.030 -18.637 -23.890  0.00  0.00    -0.002 C 
ATOM      9  C   UNL     1      34.910 -16.412 -22.955  0.00  0.00    -0.002 C 
ATOM     10  C   UNL     1      34.522 -18.156 -25.097  0.00  0.00    -0.000 C 
ATOM     11  C   UNL     1      34.402 -15.932 -24.162  0.00  0.00    -0.000 C 
ATOM     12  C   UNL     1      34.209 -16.804 -25.233  0.00  0.00    -0.000 C 
ENDBRANCH   6   7
BRANCH   6  13
ATOM     13  O   UNL     1      35.390 -17.338 -20.518  0.00  0.00    -0.382 OA
ATOM     14  H   UNL     1      34.453 -17.109 -20.623  0.00  0.00    +0.211 HD
ENDBRANCH   6  13
ENDBRANCH   4   6
ENDBRANCH   1   4
BRANCH   1  15
ATOM     15  C   UNL     1      35.823 -21.637 -19.876  0.00  0.00    -0.073 C 
BRANCH  15  16
ATOM     16  C   UNL     1      35.425 -22.004 -18.446  0.00  0.00    +0.046 C 
BRANCH  16  18
ATOM     17  O   UNL     1      33.828 -23.534 -19.404  0.00  0.00    -0.291 OA
ATOM     18  C   UNL     1      34.218 -22.929 -18.408  0.00  0.00    +0.171 C 
BRANCH  18  19
ATOM     19  C   UNL     1      33.488 -23.102 -17.118  0.00  0.00    +0.038 C 
ATOM     20  C   UNL     1      34.212 -23.404 -15.986  0.00  0.00    +0.040 C 
ATOM     21  C   UNL     1      32.120 -22.951 -17.108  0.00  0.00    +0.003 C 
ATOM     22  C   UNL     1      33.531 -23.564 -14.779  0.00  0.00    +0.139 C 
ATOM     23  C   UNL     1      31.439 -23.112 -15.901  0.00  0.00    +0.003 C 
ATOM     24  C   UNL     1      32.144 -23.419 -14.737  0.00  0.00    +0.037 C 
BRANCH  22  25
ATOM     25  O   UNL     1      34.219 -23.865 -13.645  0.00  0.00    -0.471 OA
ATOM     26  C   UNL     1      35.483 -24.506 -13.802  0.00  0.00    +0.252 C 
ENDBRANCH  22  25
ENDBRANCH  18  19
ENDBRANCH  16  18
ENDBRANCH  15  16
ENDBRANCH   1  15
TORSDOF 9
ENDMDL
MODEL 9
REMARK VINA RESULT:      -8.9      5.528      9.276
REMARK  Name = 5489013
REMARK  9 active torsions:
REMARK  status: ('A' for Active; 'I' for Inactive)
REMARK    1  A    between atoms: N_1  and  C_4
REMARK    2  A    between atoms: N_1  and  C_15
REMARK    3  A    between atoms: C_4  and  C_6
REMARK    4  A    between atoms: C_6  and  C_7
REMARK    5  A    between atoms: C_6  and  O_13
REMARK    6  A    between atoms: C_15  and  C_16
REMARK    7  A    between atoms: C_16  and  C_18
REMARK    8  A    between atoms: C_18  and  C_19
REMARK    9  A    between atoms: C_22  and  O_25
REMARK                            x       y       z     vdW  Elec       q    Type
REMARK                         _______ _______ _______ _____ _____    ______ ____
ROOT
ATOM      1  N   UNL     1      34.167 -23.096 -16.574  0.00  0.00    +0.387 N 
ATOM      2  H   UNL     1      33.558 -22.281 -16.661  0.00  0.00    -0.084 HD
ATOM      3  H   UNL     1      34.044 -23.713 -17.377  0.00  0.00    -0.084 HD
ENDROOT
BRANCH   1   4
ATOM      4  C   UNL     1      33.817 -23.833 -15.353  0.00  0.00    -0.030 C 
ATOM      5  C   UNL     1      35.084 -23.975 -14.507  0.00  0.00    -0.021 C 
BRANCH   4   6
ATOM      6  C   UNL     1      32.685 -23.092 -14.607  0.00  0.00    +0.113 C 
BRANCH   6   7
ATOM      7  C   UNL     1      31.296 -23.556 -14.993  0.00  0.00    +0.002 C 
ATOM      8  C   UNL     1      30.616 -22.890 -15.997  0.00  0.00    -0.002 C 
ATOM      9  C   UNL     1      30.738 -24.637 -14.332  0.00  0.00    -0.002 C 
ATOM     10  C   UNL     1      29.337 -23.318 -16.352  0.00  0.00    -0.000 C 
ATOM     11  C   UNL     1      29.459 -25.065 -14.688  0.00  0.00    -0.000 C 
ATOM     12  C   UNL     1      28.759 -24.405 -15.697  0.00  0.00    -0.000 C 
ENDBRANCH   6   7
BRANCH   6  13
ATOM     13  O   UNL     1      32.811 -23.296 -13.197  0.00  0.00    -0.382 OA
ATOM     14  H   UNL     1      31.953 -23.148 -12.771  0.00  0.00    +0.211 HD
ENDBRANCH   6  13
ENDBRANCH   4   6
ENDBRANCH   1   4
BRANCH   1  15
ATOM     15  C   UNL     1      35.550 -22.657 -16.526  0.00  0.00    -0.073 C 
BRANCH  15  16
ATOM     16  C   UNL     1      35.976 -22.032 -17.854  0.00  0.00    +0.046 C 
BRANCH  16  18
ATOM     17  O   UNL     1      34.444 -23.354 -19.165  0.00  0.00    -0.291 OA
ATOM     18  C   UNL     1      34.939 -22.251 -18.947  0.00  0.00    +0.171 C 
BRANCH  18  19
ATOM     19  C   UNL     1      34.515 -21.085 -19.776  0.00  0.00    +0.038 C 
ATOM     20  C   UNL     1      35.485 -20.321 -20.384  0.00  0.00    +0.040 C 
ATOM     21  C   UNL     1      33.171 -20.820 -19.903  0.00  0.00    +0.003 C 
ATOM     22  C   UNL     1      35.089 -19.231 -21.160  0.00  0.00    +0.139 C 
ATOM     23  C   UNL     1      32.774 -19.730 -20.679  0.00  0.00    +0.003 C 
ATOM     24  C   UNL     1      33.733 -18.936 -21.307  0.00  0.00    +0.037 C 
BRANCH  22  25
ATOM     25  O   UNL     1      36.025 -18.456 -21.772  0.00  0.00    -0.471 OA
ATOM     26  C   UNL     1      35.566 -17.265 -22.410  0.00  0.00    +0.252 C 
ENDBRANCH  22  25
ENDBRANCH  18  19
ENDBRANCH  16  18
ENDBRANCH  15  16
ENDBRANCH   1  15
TORSDOF 9
ENDMDL
