MODEL 1
REMARK VINA RESULT:      -8.8      0.000      0.000
REMARK  Name = 20055036
REMARK  6 active torsions:
REMARK  status: ('A' for Active; 'I' for Inactive)
REMARK    1  A    between atoms: N_2  and  CA_11
REMARK    2  A    between atoms: C_3  and  C_19
REMARK    3  A    between atoms: CA_10  and  C_16
REMARK    4  A    between atoms: C_16  and  O_17
REMARK    5  A    between atoms: C_19  and  C_20
REMARK    6  A    between atoms: C_19  and  S_26
REMARK                            x       y       z     vdW  Elec       q    Type
REMARK                         _______ _______ _______ _____ _____    ______ ____
ROOT
ATOM      1  O   UNL     1      32.514 -23.118 -16.492  0.00  0.00    -0.273 OA
ATOM      2  N   UNL     1      33.681 -23.001 -14.491  0.00  0.00    -0.295 N 
ATOM      3  C   UNL     1      32.524 -23.128 -15.263  0.00  0.00    +0.249 C 
ATOM      4  H   UNL     1      33.597 -23.020 -13.510  0.00  0.00    +0.150 HD
ENDROOT
BRANCH   2  11
ATOM      5  S   UNL     1      35.917 -23.550 -12.444  0.00  0.00    -0.118 S 
ATOM      6  O   UNL     1      35.199 -24.893 -16.578  0.00  0.00    -0.273 OA
ATOM      7  N   UNL     1      36.634 -24.122 -14.870  0.00  0.00    -0.260 N 
ATOM      8  C   UNL     1      36.224 -22.922 -14.135  0.00  0.00    +0.151 C 
ATOM      9  C   UNL     1      37.230 -24.855 -12.650  0.00  0.00    +0.068 C 
ATOM     10  CA  UNL     1      37.096 -25.276 -14.128  0.00  0.00    +0.184 C 
ATOM     11  CA  UNL     1      35.011 -22.840 -15.073  0.00  0.00    +0.178 C 
ATOM     12  C   UNL     1      35.577 -24.112 -15.734  0.00  0.00    +0.247 C 
ATOM     13  C   UNL     1      36.924 -26.020 -11.707  0.00  0.00    +0.013 C 
ATOM     14  C   UNL     1      38.582 -24.226 -12.286  0.00  0.00    +0.013 C 
BRANCH  10  16
ATOM     15  OXT UNL     1      38.843 -26.858 -14.654  0.00  0.00    -0.248 OA
ATOM     16  C   UNL     1      38.361 -25.741 -14.778  0.00  0.00    +0.333 C 
BRANCH  16  17
ATOM     17  O   UNL     1      38.906 -24.753 -15.528  0.00  0.00    -0.479 OA
ATOM     18  H   UNL     1      38.796 -24.756 -16.459  0.00  0.00    +0.295 HD
ENDBRANCH  16  17
ENDBRANCH  10  16
ENDBRANCH   2  11
BRANCH   3  19
ATOM     19  C   UNL     1      31.272 -23.277 -14.420  0.00  0.00    +0.233 C 
BRANCH  19  20
ATOM     20  C   UNL     1      29.997 -23.183 -15.222  0.00  0.00    +0.009 C 
ATOM     21  C   UNL     1      29.721 -24.132 -16.206  0.00  0.00    -0.002 C 
ATOM     22  C   UNL     1      29.094 -22.147 -14.978  0.00  0.00    -0.002 C 
ATOM     23  C   UNL     1      28.543 -24.046 -16.947  0.00  0.00    -0.000 C 
ATOM     24  C   UNL     1      27.916 -22.062 -15.719  0.00  0.00    -0.000 C 
ATOM     25  C   UNL     1      27.639 -23.010 -16.704  0.00  0.00    -0.000 C 
ENDBRANCH  19  20
BRANCH  19  26
ATOM     26  S   UNL     1      31.240 -24.827 -13.568  0.00  0.00    +0.033 S 
ATOM     27  O   UNL     1      30.221 -24.387 -12.373  0.00  0.00    -0.069 OA
ATOM     28  O   UNL     1      32.551 -25.073 -12.998  0.00  0.00    -0.069 OA
ATOM     29  O   UNL     1      30.579 -25.806 -14.409  0.00  0.00    -0.069 OA
ENDBRANCH  19  26
ENDBRANCH   3  19
TORSDOF 6
ENDMDL
MODEL 2
REMARK VINA RESULT:      -7.3      8.959     10.276
REMARK  Name = 20055036
REMARK  6 active torsions:
REMARK  status: ('A' for Active; 'I' for Inactive)
REMARK    1  A    between atoms: N_2  and  CA_11
REMARK    2  A    between atoms: C_3  and  C_19
REMARK    3  A    between atoms: CA_10  and  C_16
REMARK    4  A    between atoms: C_16  and  O_17
REMARK    5  A    between atoms: C_19  and  C_20
REMARK    6  A    between atoms: C_19  and  S_26
REMARK                            x       y       z     vdW  Elec       q    Type
REMARK                         _______ _______ _______ _____ _____    ______ ____
ROOT
ATOM      1  O   UNL     1      35.332 -17.765 -23.940  0.00  0.00    -0.273 OA
ATOM      2  N   UNL     1      34.217 -18.027 -21.923  0.00  0.00    -0.295 N 
ATOM      3  C   UNL     1      34.886 -17.286 -22.899  0.00  0.00    +0.249 C 
ATOM      4  H   UNL     1      33.892 -17.561 -21.118  0.00  0.00    +0.150 HD
ENDROOT
BRANCH   2  11
ATOM      5  S   UNL     1      36.590 -19.688 -20.874  0.00  0.00    -0.118 S 
ATOM      6  O   UNL     1      32.237 -19.877 -20.220  0.00  0.00    -0.273 OA
ATOM      7  N   UNL     1      34.323 -20.917 -20.596  0.00  0.00    -0.260 N 
ATOM      8  C   UNL     1      35.135 -20.417 -21.709  0.00  0.00    +0.151 C 
ATOM      9  C   UNL     1      36.470 -20.935 -19.495  0.00  0.00    +0.068 C 
ATOM     10  CA  UNL     1      34.950 -21.126 -19.308  0.00  0.00    +0.184 C 
ATOM     11  CA  UNL     1      33.978 -19.464 -22.040  0.00  0.00    +0.178 C 
ATOM     12  C   UNL     1      33.260 -20.093 -20.831  0.00  0.00    +0.247 C 
ATOM     13  C   UNL     1      37.118 -20.350 -18.239  0.00  0.00    +0.013 C 
ATOM     14  C   UNL     1      37.221 -22.199 -19.934  0.00  0.00    +0.013 C 
BRANCH  10  16
ATOM     15  OXT UNL     1      33.945 -23.312 -19.501  0.00  0.00    -0.248 OA
ATOM     16  C   UNL     1      34.529 -22.477 -18.825  0.00  0.00    +0.333 C 
BRANCH  16  17
ATOM     17  O   UNL     1      34.883 -22.655 -17.529  0.00  0.00    -0.479 OA
ATOM     18  H   UNL     1      35.411 -23.390 -17.285  0.00  0.00    +0.295 HD
ENDBRANCH  16  17
ENDBRANCH  10  16
ENDBRANCH   2  11
BRANCH   3  19
ATOM     19  C   UNL     1      35.010 -15.818 -22.537  0.00  0.00    +0.233 C 
BRANCH  19  20
ATOM     20  C   UNL     1      34.289 -14.903 -23.496  0.00  0.00    +0.009 C 
ATOM     21  C   UNL     1      34.220 -13.534 -23.235  0.00  0.00    -0.002 C 
ATOM     22  C   UNL     1      33.695 -15.426 -24.646  0.00  0.00    -0.002 C 
ATOM     23  C   UNL     1      33.554 -12.688 -24.122  0.00  0.00    -0.000 C 
ATOM     24  C   UNL     1      33.030 -14.579 -25.533  0.00  0.00    -0.000 C 
ATOM     25  C   UNL     1      32.959 -13.211 -25.272  0.00  0.00    -0.000 C 
ENDBRANCH  19  20
BRANCH  19  26
ATOM     26  S   UNL     1      34.369 -15.489 -20.921  0.00  0.00    +0.033 S 
ATOM     27  O   UNL     1      35.153 -16.685 -20.138  0.00  0.00    -0.069 OA
ATOM     28  O   UNL     1      32.947 -15.779 -20.915  0.00  0.00    -0.069 OA
ATOM     29  O   UNL     1      34.888 -14.214 -20.467  0.00  0.00    -0.069 OA
ENDBRANCH  19  26
ENDBRANCH   3  19
TORSDOF 6
ENDMDL
MODEL 3
REMARK VINA RESULT:      -7.2      2.161      3.292
REMARK  Name = 20055036
REMARK  6 active torsions:
REMARK  status: ('A' for Active; 'I' for Inactive)
REMARK    1  A    between atoms: N_2  and  CA_11
REMARK    2  A    between atoms: C_3  and  C_19
REMARK    3  A    between atoms: CA_10  and  C_16
REMARK    4  A    between atoms: C_16  and  O_17
REMARK    5  A    between atoms: C_19  and  C_20
REMARK    6  A    between atoms: C_19  and  S_26
REMARK                            x       y       z     vdW  Elec       q    Type
REMARK                         _______ _______ _______ _____ _____    ______ ____
ROOT
ATOM      1  O   UNL     1      31.240 -24.943 -13.658  0.00  0.00    -0.273 OA
ATOM      2  N   UNL     1      33.323 -24.910 -14.680  0.00  0.00    -0.295 N 
ATOM      3  C   UNL     1      31.935 -24.754 -14.655  0.00  0.00    +0.249 C 
ATOM      4  H   UNL     1      33.801 -24.736 -15.524  0.00  0.00    +0.150 HD
ENDROOT
BRANCH   2  11
ATOM      5  S   UNL     1      36.330 -25.141 -15.306  0.00  0.00    -0.118 S 
ATOM      6  O   UNL     1      34.051 -23.215 -12.065  0.00  0.00    -0.273 OA
ATOM      7  N   UNL     1      35.881 -24.491 -12.836  0.00  0.00    -0.260 N 
ATOM      8  C   UNL     1      35.588 -25.632 -13.708  0.00  0.00    +0.151 C 
ATOM      9  C   UNL     1      37.660 -24.172 -14.433  0.00  0.00    +0.068 C 
ATOM     10  CA  UNL     1      36.932 -23.570 -13.213  0.00  0.00    +0.184 C 
ATOM     11  CA  UNL     1      34.098 -25.318 -13.511  0.00  0.00    +0.178 C 
ATOM     12  C   UNL     1      34.576 -24.152 -12.623  0.00  0.00    +0.247 C 
ATOM     13  C   UNL     1      38.176 -23.080 -15.372  0.00  0.00    +0.013 C 
ATOM     14  C   UNL     1      38.797 -25.142 -14.081  0.00  0.00    +0.013 C 
BRANCH  10  16
ATOM     15  OXT UNL     1      38.031 -24.198 -11.158  0.00  0.00    -0.248 OA
ATOM     16  C   UNL     1      37.783 -23.351 -12.003  0.00  0.00    +0.333 C 
BRANCH  16  17
ATOM     17  O   UNL     1      38.247 -22.078 -11.968  0.00  0.00    -0.479 OA
ATOM     18  H   UNL     1      37.672 -21.377 -11.730  0.00  0.00    +0.295 HD
ENDBRANCH  16  17
ENDBRANCH  10  16
ENDBRANCH   2  11
BRANCH   3  19
ATOM     19  C   UNL     1      31.370 -24.330 -15.997  0.00  0.00    +0.233 C 
BRANCH  19  20
ATOM     20  C   UNL     1      30.029 -23.646 -15.891  0.00  0.00    +0.009 C 
ATOM     21  C   UNL     1      29.831 -22.643 -14.941  0.00  0.00    -0.002 C 
ATOM     22  C   UNL     1      28.988 -24.015 -16.744  0.00  0.00    -0.002 C 
ATOM     23  C   UNL     1      28.591 -22.011 -14.843  0.00  0.00    -0.000 C 
ATOM     24  C   UNL     1      27.749 -23.381 -16.646  0.00  0.00    -0.000 C 
ATOM     25  C   UNL     1      27.550 -22.380 -15.696  0.00  0.00    -0.000 C 
ENDBRANCH  19  20
BRANCH  19  26
ATOM     26  S   UNL     1      32.457 -23.219 -16.841  0.00  0.00    +0.033 S 
ATOM     27  O   UNL     1      33.036 -22.452 -15.523  0.00  0.00    -0.069 OA
ATOM     28  O   UNL     1      31.662 -22.285 -17.614  0.00  0.00    -0.069 OA
ATOM     29  O   UNL     1      33.529 -23.987 -17.444  0.00  0.00    -0.069 OA
ENDBRANCH  19  26
ENDBRANCH   3  19
TORSDOF 6
ENDMDL
MODEL 4
REMARK VINA RESULT:      -6.9      3.814      5.512
REMARK  Name = 20055036
REMARK  6 active torsions:
REMARK  status: ('A' for Active; 'I' for Inactive)
REMARK    1  A    between atoms: N_2  and  CA_11
REMARK    2  A    between atoms: C_3  and  C_19
REMARK    3  A    between atoms: CA_10  and  C_16
REMARK    4  A    between atoms: C_16  and  O_17
REMARK    5  A    between atoms: C_19  and  C_20
REMARK    6  A    between atoms: C_19  and  S_26
REMARK                            x       y       z     vdW  Elec       q    Type
REMARK                         _______ _______ _______ _____ _____    ______ ____
ROOT
ATOM      1  O   UNL     1      33.264 -22.978 -17.762  0.00  0.00    -0.273 OA
ATOM      2  N   UNL     1      35.205 -23.638 -16.677  0.00  0.00    -0.295 N 
ATOM      3  C   UNL     1      34.490 -22.977 -17.678  0.00  0.00    +0.249 C 
ATOM      4  H   UNL     1      36.188 -23.583 -16.685  0.00  0.00    +0.150 HD
ENDROOT
BRANCH   2  11
ATOM      5  S   UNL     1      37.239 -25.225 -14.993  0.00  0.00    -0.118 S 
ATOM      6  O   UNL     1      33.862 -22.586 -13.969  0.00  0.00    -0.273 OA
ATOM      7  N   UNL     1      35.143 -24.539 -13.626  0.00  0.00    -0.260 N 
ATOM      8  C   UNL     1      35.425 -25.375 -14.797  0.00  0.00    +0.151 C 
ATOM      9  C   UNL     1      37.459 -25.027 -13.154  0.00  0.00    +0.068 C 
ATOM     10  CA  UNL     1      36.227 -24.203 -12.726  0.00  0.00    +0.184 C 
ATOM     11  CA  UNL     1      34.559 -24.408 -15.615  0.00  0.00    +0.178 C 
ATOM     12  C   UNL     1      34.367 -23.637 -14.295  0.00  0.00    +0.247 C 
ATOM     13  C   UNL     1      38.759 -24.267 -12.888  0.00  0.00    +0.013 C 
ATOM     14  C   UNL     1      37.534 -26.429 -12.534  0.00  0.00    +0.013 C 
BRANCH  10  16
ATOM     15  OXT UNL     1      36.275 -24.042 -10.317  0.00  0.00    -0.248 OA
ATOM     16  C   UNL     1      35.739 -24.456 -11.334  0.00  0.00    +0.333 C 
BRANCH  16  17
ATOM     17  O   UNL     1      34.614 -25.212 -11.351  0.00  0.00    -0.479 OA
ATOM     18  H   UNL     1      34.368 -25.703 -10.591  0.00  0.00    +0.295 HD
ENDBRANCH  16  17
ENDBRANCH  10  16
ENDBRANCH   2  11
BRANCH   3  19
ATOM     19  C   UNL     1      35.392 -22.256 -18.661  0.00  0.00    +0.233 C 
BRANCH  19  20
ATOM     20  C   UNL     1      34.654 -21.281 -19.545  0.00  0.00    +0.009 C 
ATOM     21  C   UNL     1      35.351 -20.543 -20.503  0.00  0.00    -0.002 C 
ATOM     22  C   UNL     1      33.275 -21.117 -19.405  0.00  0.00    -0.002 C 
ATOM     23  C   UNL     1      34.669 -19.641 -21.319  0.00  0.00    -0.000 C 
ATOM     24  C   UNL     1      32.594 -20.216 -20.222  0.00  0.00    -0.000 C 
ATOM     25  C   UNL     1      33.290 -19.478 -21.179  0.00  0.00    -0.000 C 
ENDBRANCH  19  20
BRANCH  19  26
ATOM     26  S   UNL     1      36.667 -21.351 -17.834  0.00  0.00    +0.033 S 
ATOM     27  O   UNL     1      37.763 -22.555 -17.758  0.00  0.00    -0.069 OA
ATOM     28  O   UNL     1      36.220 -21.039 -16.489  0.00  0.00    -0.069 OA
ATOM     29  O   UNL     1      37.162 -20.323 -18.729  0.00  0.00    -0.069 OA
ENDBRANCH  19  26
ENDBRANCH   3  19
TORSDOF 6
ENDMDL
MODEL 5
REMARK VINA RESULT:      -6.8     13.647     15.206
REMARK  Name = 20055036
REMARK  6 active torsions:
REMARK  status: ('A' for Active; 'I' for Inactive)
REMARK    1  A    between atoms: N_2  and  CA_11
REMARK    2  A    between atoms: C_3  and  C_19
REMARK    3  A    between atoms: CA_10  and  C_16
REMARK    4  A    between atoms: C_16  and  O_17
REMARK    5  A    between atoms: C_19  and  C_20
REMARK    6  A    between atoms: C_19  and  S_26
REMARK                            x       y       z     vdW  Elec       q    Type
REMARK                         _______ _______ _______ _____ _____    ______ ____
ROOT
ATOM      1  O   UNL     1      34.060  -9.558 -24.036  0.00  0.00    -0.273 OA
ATOM      2  N   UNL     1      32.960 -11.564 -23.656  0.00  0.00    -0.295 N 
ATOM      3  C   UNL     1      33.079 -10.173 -23.624  0.00  0.00    +0.249 C 
ATOM      4  H   UNL     1      32.137 -11.975 -23.305  0.00  0.00    +0.150 HD
ENDROOT
BRANCH   2  11
ATOM      5  S   UNL     1      33.792 -13.737 -21.636  0.00  0.00    -0.118 S 
ATOM      6  O   UNL     1      32.728 -13.823 -25.911  0.00  0.00    -0.273 OA
ATOM      7  N   UNL     1      34.070 -14.514 -24.095  0.00  0.00    -0.260 N 
ATOM      8  C   UNL     1      34.634 -13.468 -23.238  0.00  0.00    +0.151 C 
ATOM      9  C   UNL     1      33.680 -15.568 -21.960  0.00  0.00    +0.068 C 
ATOM     10  CA  UNL     1      33.425 -15.655 -23.480  0.00  0.00    +0.184 C 
ATOM     11  CA  UNL     1      34.003 -12.439 -24.187  0.00  0.00    +0.178 C 
ATOM     12  C   UNL     1      33.478 -13.654 -24.976  0.00  0.00    +0.247 C 
ATOM     13  C   UNL     1      32.509 -16.143 -21.163  0.00  0.00    +0.013 C 
ATOM     14  C   UNL     1      34.996 -16.210 -21.499  0.00  0.00    +0.013 C 
BRANCH  10  16
ATOM     15  OXT UNL     1      34.413 -17.855 -23.570  0.00  0.00    -0.248 OA
ATOM     16  C   UNL     1      33.960 -16.880 -24.150  0.00  0.00    +0.333 C 
BRANCH  16  17
ATOM     17  O   UNL     1      33.875 -16.763 -25.498  0.00  0.00    -0.479 OA
ATOM     18  H   UNL     1      33.748 -15.921 -25.888  0.00  0.00    +0.295 HD
ENDBRANCH  16  17
ENDBRANCH  10  16
ENDBRANCH   2  11
BRANCH   3  19
ATOM     19  C   UNL     1      31.863  -9.496 -23.020  0.00  0.00    +0.233 C 
BRANCH  19  20
ATOM     20  C   UNL     1      31.662  -9.821 -21.561  0.00  0.00    +0.009 C 
ATOM     21  C   UNL     1      30.833 -10.879 -21.189  0.00  0.00    -0.002 C 
ATOM     22  C   UNL     1      32.307  -9.063 -20.582  0.00  0.00    -0.002 C 
ATOM     23  C   UNL     1      30.646 -11.179 -19.840  0.00  0.00    -0.000 C 
ATOM     24  C   UNL     1      32.121  -9.364 -19.233  0.00  0.00    -0.000 C 
ATOM     25  C   UNL     1      31.291 -10.422 -18.861  0.00  0.00    -0.000 C 
ENDBRANCH  19  20
BRANCH  19  26
ATOM     26  S   UNL     1      31.963  -7.736 -23.155  0.00  0.00    +0.033 S 
ATOM     27  O   UNL     1      31.650  -7.630 -24.752  0.00  0.00    -0.069 OA
ATOM     28  O   UNL     1      33.335  -7.327 -22.919  0.00  0.00    -0.069 OA
ATOM     29  O   UNL     1      30.857  -7.150 -22.422  0.00  0.00    -0.069 OA
ENDBRANCH  19  26
ENDBRANCH   3  19
TORSDOF 6
ENDMDL
MODEL 6
REMARK VINA RESULT:      -6.8      3.833      4.760
REMARK  Name = 20055036
REMARK  6 active torsions:
REMARK  status: ('A' for Active; 'I' for Inactive)
REMARK    1  A    between atoms: N_2  and  CA_11
REMARK    2  A    between atoms: C_3  and  C_19
REMARK    3  A    between atoms: CA_10  and  C_16
REMARK    4  A    between atoms: C_16  and  O_17
REMARK    5  A    between atoms: C_19  and  C_20
REMARK    6  A    between atoms: C_19  and  S_26
REMARK                            x       y       z     vdW  Elec       q    Type
REMARK                         _______ _______ _______ _____ _____    ______ ____
ROOT
ATOM      1  O   UNL     1      36.756 -21.557 -17.796  0.00  0.00    -0.273 OA
ATOM      2  N   UNL     1      35.669 -22.230 -15.860  0.00  0.00    -0.295 N 
ATOM      3  C   UNL     1      35.722 -21.870 -17.208  0.00  0.00    +0.249 C 
ATOM      4  H   UNL     1      34.796 -22.468 -15.470  0.00  0.00    +0.150 HD
ENDROOT
BRANCH   2  11
ATOM      5  S   UNL     1      35.664 -24.685 -13.999  0.00  0.00    -0.118 S 
ATOM      6  O   UNL     1      38.699 -22.896 -16.646  0.00  0.00    -0.273 OA
ATOM      7  N   UNL     1      38.063 -23.912 -14.612  0.00  0.00    -0.260 N 
ATOM      8  C   UNL     1      36.909 -23.347 -13.907  0.00  0.00    +0.151 C 
ATOM      9  C   UNL     1      37.001 -25.981 -13.970  0.00  0.00    +0.068 C 
ATOM     10  CA  UNL     1      38.142 -25.347 -14.792  0.00  0.00    +0.184 C 
ATOM     11  CA  UNL     1      36.850 -22.271 -15.001  0.00  0.00    +0.178 C 
ATOM     12  C   UNL     1      38.065 -22.991 -15.619  0.00  0.00    +0.247 C 
ATOM     13  C   UNL     1      36.473 -27.254 -14.636  0.00  0.00    +0.013 C 
ATOM     14  C   UNL     1      37.354 -26.264 -12.503  0.00  0.00    +0.013 C 
BRANCH  10  16
ATOM     15  OXT UNL     1      40.024 -26.852 -14.649  0.00  0.00    -0.248 OA
ATOM     16  C   UNL     1      39.524 -25.765 -14.400  0.00  0.00    +0.333 C 
BRANCH  16  17
ATOM     17  O   UNL     1      40.152 -24.772 -13.724  0.00  0.00    -0.479 OA
ATOM     18  H   UNL     1      39.751 -24.396 -12.965  0.00  0.00    +0.295 HD
ENDBRANCH  16  17
ENDBRANCH  10  16
ENDBRANCH   2  11
BRANCH   3  19
ATOM     19  C   UNL     1      34.360 -21.901 -17.876  0.00  0.00    +0.233 C 
BRANCH  19  20
ATOM     20  C   UNL     1      34.324 -21.167 -19.194  0.00  0.00    +0.009 C 
ATOM     21  C   UNL     1      35.509 -20.927 -19.891  0.00  0.00    -0.002 C 
ATOM     22  C   UNL     1      33.106 -20.730 -19.716  0.00  0.00    -0.002 C 
ATOM     23  C   UNL     1      35.476 -20.248 -21.109  0.00  0.00    -0.000 C 
ATOM     24  C   UNL     1      33.074 -20.052 -20.934  0.00  0.00    -0.000 C 
ATOM     25  C   UNL     1      34.258 -19.811 -21.631  0.00  0.00    -0.000 C 
ENDBRANCH  19  20
BRANCH  19  26
ATOM     26  S   UNL     1      33.825 -23.558 -18.187  0.00  0.00    +0.033 S 
ATOM     27  O   UNL     1      32.226 -23.300 -17.993  0.00  0.00    -0.069 OA
ATOM     28  O   UNL     1      34.296 -24.410 -17.111  0.00  0.00    -0.069 OA
ATOM     29  O   UNL     1      34.081 -23.876 -19.578  0.00  0.00    -0.069 OA
ENDBRANCH  19  26
ENDBRANCH   3  19
TORSDOF 6
ENDMDL
MODEL 7
REMARK VINA RESULT:      -6.7     13.876     15.901
REMARK  Name = 20055036
REMARK  6 active torsions:
REMARK  status: ('A' for Active; 'I' for Inactive)
REMARK    1  A    between atoms: N_2  and  CA_11
REMARK    2  A    between atoms: C_3  and  C_19
REMARK    3  A    between atoms: CA_10  and  C_16
REMARK    4  A    between atoms: C_16  and  O_17
REMARK    5  A    between atoms: C_19  and  C_20
REMARK    6  A    between atoms: C_19  and  S_26
REMARK                            x       y       z     vdW  Elec       q    Type
REMARK                         _______ _______ _______ _____ _____    ______ ____
ROOT
ATOM      1  O   UNL     1      33.056 -13.778 -25.815  0.00  0.00    -0.273 OA
ATOM      2  N   UNL     1      34.328 -12.434 -24.417  0.00  0.00    -0.295 N 
ATOM      3  C   UNL     1      33.863 -13.661 -24.895  0.00  0.00    +0.249 C 
ATOM      4  H   UNL     1      34.977 -12.433 -23.676  0.00  0.00    +0.150 HD
ENDROOT
BRANCH   2  11
ATOM      5  S   UNL     1      31.928 -11.264 -22.879  0.00  0.00    -0.118 S 
ATOM      6  O   UNL     1      35.770  -9.583 -24.231  0.00  0.00    -0.273 OA
ATOM      7  N   UNL     1      33.437  -9.422 -23.909  0.00  0.00    -0.260 N 
ATOM      8  C   UNL     1      32.610 -10.524 -24.408  0.00  0.00    +0.151 C 
ATOM      9  C   UNL     1      31.934  -9.606 -22.030  0.00  0.00    +0.068 C 
ATOM     10  CA  UNL     1      33.211  -8.926 -22.567  0.00  0.00    +0.184 C 
ATOM     11  CA  UNL     1      33.895 -11.151 -24.966  0.00  0.00    +0.178 C 
ATOM     12  C   UNL     1      34.618  -9.926 -24.373  0.00  0.00    +0.247 C 
ATOM     13  C   UNL     1      32.011  -9.823 -20.518  0.00  0.00    +0.013 C 
ATOM     14  C   UNL     1      30.628  -8.885 -22.391  0.00  0.00    +0.013 C 
BRANCH  10  16
ATOM     15  OXT UNL     1      33.051  -6.680 -21.695  0.00  0.00    -0.248 OA
ATOM     16  C   UNL     1      33.154  -7.433 -22.652  0.00  0.00    +0.333 C 
BRANCH  16  17
ATOM     17  O   UNL     1      33.231  -7.024 -23.942  0.00  0.00    -0.479 OA
ATOM     18  H   UNL     1      32.580  -6.446 -24.290  0.00  0.00    +0.295 HD
ENDBRANCH  16  17
ENDBRANCH  10  16
ENDBRANCH   2  11
BRANCH   3  19
ATOM     19  C   UNL     1      34.460 -14.842 -24.154  0.00  0.00    +0.233 C 
BRANCH  19  20
ATOM     20  C   UNL     1      33.961 -14.972 -22.736  0.00  0.00    +0.009 C 
ATOM     21  C   UNL     1      34.844 -15.327 -21.716  0.00  0.00    -0.002 C 
ATOM     22  C   UNL     1      32.617 -14.736 -22.445  0.00  0.00    -0.002 C 
ATOM     23  C   UNL     1      34.382 -15.447 -20.405  0.00  0.00    -0.000 C 
ATOM     24  C   UNL     1      32.156 -14.855 -21.134  0.00  0.00    -0.000 C 
ATOM     25  C   UNL     1      33.038 -15.211 -20.114  0.00  0.00    -0.000 C 
ENDBRANCH  19  20
BRANCH  19  26
ATOM     26  S   UNL     1      34.110 -16.370 -24.973  0.00  0.00    +0.033 S 
ATOM     27  O   UNL     1      35.435 -16.406 -25.923  0.00  0.00    -0.069 OA
ATOM     28  O   UNL     1      32.939 -16.193 -25.810  0.00  0.00    -0.069 OA
ATOM     29  O   UNL     1      34.199 -17.446 -24.006  0.00  0.00    -0.069 OA
ENDBRANCH  19  26
ENDBRANCH   3  19
TORSDOF 6
ENDMDL
MODEL 8
REMARK VINA RESULT:      -6.7      9.793     12.183
REMARK  Name = 20055036
REMARK  6 active torsions:
REMARK  status: ('A' for Active; 'I' for Inactive)
REMARK    1  A    between atoms: N_2  and  CA_11
REMARK    2  A    between atoms: C_3  and  C_19
REMARK    3  A    between atoms: CA_10  and  C_16
REMARK    4  A    between atoms: C_16  and  O_17
REMARK    5  A    between atoms: C_19  and  C_20
REMARK    6  A    between atoms: C_19  and  S_26
REMARK                            x       y       z     vdW  Elec       q    Type
REMARK                         _______ _______ _______ _____ _____    ______ ____
ROOT
ATOM      1  O   UNL     1      36.611 -17.585 -20.203  0.00  0.00    -0.273 OA
ATOM      2  N   UNL     1      34.636 -16.976 -21.255  0.00  0.00    -0.295 N 
ATOM      3  C   UNL     1      35.673 -17.859 -20.949  0.00  0.00    +0.249 C 
ATOM      4  H   UNL     1      33.923 -17.280 -21.863  0.00  0.00    +0.150 HD
ENDROOT
BRANCH   2  11
ATOM      5  S   UNL     1      34.627 -14.839 -23.475  0.00  0.00    -0.118 S 
ATOM      6  O   UNL     1      32.147 -15.496 -19.893  0.00  0.00    -0.273 OA
ATOM      7  N   UNL     1      33.330 -14.077 -21.362  0.00  0.00    -0.260 N 
ATOM      8  C   UNL     1      34.710 -14.445 -21.690  0.00  0.00    +0.151 C 
ATOM      9  C   UNL     1      33.266 -13.593 -23.725  0.00  0.00    +0.068 C 
ATOM     10  CA  UNL     1      32.430 -13.701 -22.433  0.00  0.00    +0.184 C 
ATOM     11  CA  UNL     1      34.560 -15.621 -20.714  0.00  0.00    +0.178 C 
ATOM     12  C   UNL     1      33.126 -15.103 -20.486  0.00  0.00    +0.247 C 
ATOM     13  C   UNL     1      32.448 -13.991 -24.955  0.00  0.00    +0.013 C 
ATOM     14  C   UNL     1      33.917 -12.221 -23.949  0.00  0.00    +0.013 C 
BRANCH  10  16
ATOM     15  OXT UNL     1      31.230 -11.634 -22.769  0.00  0.00    -0.248 OA
ATOM     16  C   UNL     1      31.740 -12.444 -22.009  0.00  0.00    +0.333 C 
BRANCH  16  17
ATOM     17  O   UNL     1      31.756 -12.320 -20.659  0.00  0.00    -0.479 OA
ATOM     18  H   UNL     1      30.978 -12.065 -20.203  0.00  0.00    +0.295 HD
ENDBRANCH  16  17
ENDBRANCH  10  16
ENDBRANCH   2  11
BRANCH   3  19
ATOM     19  C   UNL     1      35.523 -19.200 -21.641  0.00  0.00    +0.233 C 
BRANCH  19  20
ATOM     20  C   UNL     1      34.802 -20.227 -20.804  0.00  0.00    +0.009 C 
ATOM     21  C   UNL     1      35.515 -21.271 -20.213  0.00  0.00    -0.002 C 
ATOM     22  C   UNL     1      33.422 -20.133 -20.620  0.00  0.00    -0.002 C 
ATOM     23  C   UNL     1      34.848 -22.221 -19.439  0.00  0.00    -0.000 C 
ATOM     24  C   UNL     1      32.756 -21.083 -19.845  0.00  0.00    -0.000 C 
ATOM     25  C   UNL     1      33.468 -22.126 -19.255  0.00  0.00    -0.000 C 
ENDBRANCH  19  20
BRANCH  19  26
ATOM     26  S   UNL     1      34.637 -19.052 -23.165  0.00  0.00    +0.033 S 
ATOM     27  O   UNL     1      35.512 -17.831 -23.798  0.00  0.00    -0.069 OA
ATOM     28  O   UNL     1      33.298 -18.571 -22.881  0.00  0.00    -0.069 OA
ATOM     29  O   UNL     1      34.864 -20.248 -23.953  0.00  0.00    -0.069 OA
ENDBRANCH  19  26
ENDBRANCH   3  19
TORSDOF 6
ENDMDL
MODEL 9
REMARK VINA RESULT:      -6.5     13.736     15.729
REMARK  Name = 20055036
REMARK  6 active torsions:
REMARK  status: ('A' for Active; 'I' for Inactive)
REMARK    1  A    between atoms: N_2  and  CA_11
REMARK    2  A    between atoms: C_3  and  C_19
REMARK    3  A    between atoms: CA_10  and  C_16
REMARK    4  A    between atoms: C_16  and  O_17
REMARK    5  A    between atoms: C_19  and  C_20
REMARK    6  A    between atoms: C_19  and  S_26
REMARK                            x       y       z     vdW  Elec       q    Type
REMARK                         _______ _______ _______ _____ _____    ______ ____
ROOT
ATOM      1  O   UNL     1      32.323 -14.200 -24.781  0.00  0.00    -0.273 OA
ATOM      2  N   UNL     1      33.088 -12.583 -23.304  0.00  0.00    -0.295 N 
ATOM      3  C   UNL     1      32.694 -13.877 -23.654  0.00  0.00    +0.249 C 
ATOM      4  H   UNL     1      33.373 -12.413 -22.376  0.00  0.00    +0.150 HD
ENDROOT
BRANCH   2  11
ATOM      5  S   UNL     1      31.473 -10.170 -22.275  0.00  0.00    -0.118 S 
ATOM      6  O   UNL     1      35.487 -10.598 -24.041  0.00  0.00    -0.273 OA
ATOM      7  N   UNL     1      33.428  -9.464 -23.827  0.00  0.00    -0.260 N 
ATOM      8  C   UNL     1      32.203 -10.260 -23.951  0.00  0.00    +0.151 C 
ATOM      9  C   UNL     1      32.182  -8.467 -22.017  0.00  0.00    +0.068 C 
ATOM     10  CA  UNL     1      33.551  -8.530 -22.727  0.00  0.00    +0.184 C 
ATOM     11  CA  UNL     1      33.098 -11.471 -24.251  0.00  0.00    +0.178 C 
ATOM     12  C   UNL     1      34.281 -10.498 -24.081  0.00  0.00    +0.247 C 
ATOM     13  C   UNL     1      32.342  -8.218 -20.516  0.00  0.00    +0.013 C 
ATOM     14  C   UNL     1      31.200  -7.451 -22.616  0.00  0.00    +0.013 C 
BRANCH  10  16
ATOM     15  OXT UNL     1      33.317  -6.337 -23.708  0.00  0.00    -0.248 OA
ATOM     16  C   UNL     1      34.036  -7.236 -23.298  0.00  0.00    +0.333 C 
BRANCH  16  17
ATOM     17  O   UNL     1      35.391  -7.192 -23.302  0.00  0.00    -0.479 OA
ATOM     18  H   UNL     1      35.837  -6.541 -23.809  0.00  0.00    +0.295 HD
ENDBRANCH  16  17
ENDBRANCH  10  16
ENDBRANCH   2  11
BRANCH   3  19
ATOM     19  C   UNL     1      32.769 -14.847 -22.491  0.00  0.00    +0.233 C 
BRANCH  19  20
ATOM     20  C   UNL     1      33.774 -15.952 -22.698  0.00  0.00    +0.009 C 
ATOM     21  C   UNL     1      34.120 -16.789 -21.637  0.00  0.00    -0.002 C 
ATOM     22  C   UNL     1      34.358 -16.139 -23.952  0.00  0.00    -0.002 C 
ATOM     23  C   UNL     1      35.050 -17.810 -21.828  0.00  0.00    -0.000 C 
ATOM     24  C   UNL     1      35.287 -17.161 -24.143  0.00  0.00    -0.000 C 
ATOM     25  C   UNL     1      35.634 -17.997 -23.082  0.00  0.00    -0.000 C 
ENDBRANCH  19  20
BRANCH  19  26
ATOM     26  S   UNL     1      33.197 -14.026 -20.984  0.00  0.00    +0.033 S 
ATOM     27  O   UNL     1      32.776 -15.227 -19.965  0.00  0.00    -0.069 OA
ATOM     28  O   UNL     1      32.294 -12.907 -20.789  0.00  0.00    -0.069 OA
ATOM     29  O   UNL     1      34.637 -13.859 -20.940  0.00  0.00    -0.069 OA
ENDBRANCH  19  26
ENDBRANCH   3  19
TORSDOF 6
ENDMDL
