MODEL 1
REMARK VINA RESULT:      -7.7      0.000      0.000
REMARK  Name = 1712058
REMARK  6 active torsions:
REMARK  status: ('A' for Active; 'I' for Inactive)
REMARK    1  A    between atoms: C_1  and  C_10
REMARK    2  A    between atoms: C_1  and  C_11
REMARK    3  A    between atoms: C_2  and  C_3
REMARK    4  A    between atoms: C_11  and  C_12
REMARK    5  A    between atoms: C_12  and  C_13
REMARK    6  A    between atoms: C_13  and  C_14
REMARK                            x       y       z     vdW  Elec       q    Type
REMARK                         _______ _______ _______ _____ _____    ______ ____
ROOT
ATOM      1  C   UNL     1      34.867 -17.897 -22.874  0.00  0.00    +0.020 C 
ATOM      2  C   UNL     1      34.780 -18.076 -21.544  0.00  0.00    -0.001 C 
ENDROOT
BRANCH   2   3
ATOM      3  C   UNL     1      34.654 -19.369 -20.862  0.00  0.00    -0.000 C 
ATOM      4  C   UNL     1      33.392 -19.863 -20.559  0.00  0.00    -0.000 C 
ATOM      5  C   UNL     1      35.798 -20.082 -20.526  0.00  0.00    -0.000 C 
ATOM      6  C   UNL     1      33.272 -21.092 -19.911  0.00  0.00    -0.000 C 
ATOM      7  C   UNL     1      35.678 -21.311 -19.878  0.00  0.00    -0.000 C 
ATOM      8  C   UNL     1      34.415 -21.816 -19.570  0.00  0.00    -0.000 C 
ENDBRANCH   2   3
BRANCH   1  10
ATOM      9  O   UNL     1      34.398 -19.203 -24.824  0.00  0.00    -0.283 OA
ATOM     10  C   UNL     1      34.826 -19.153 -23.677  0.00  0.00    +0.230 C 
ENDBRANCH   1  10
BRANCH   1  11
ATOM     11  C   UNL     1      35.036 -16.597 -23.621  0.00  0.00    +0.030 C 
BRANCH  11  12
ATOM     12  C   UNL     1      33.968 -15.542 -23.294  0.00  0.00    +0.005 C 
BRANCH  12  13
ATOM     13  C   UNL     1      34.433 -14.409 -22.371  0.00  0.00    +0.000 C 
BRANCH  13  14
ATOM     14  C   UNL     1      34.199 -14.709 -20.890  0.00  0.00    +0.000 C 
ATOM     15  C   UNL     1      32.757 -15.113 -20.627  0.00  0.00    +0.000 C 
ENDBRANCH  13  14
ENDBRANCH  12  13
ENDBRANCH  11  12
ENDBRANCH   1  11
TORSDOF 6
ENDMDL
MODEL 2
REMARK VINA RESULT:      -7.6      1.791      2.057
REMARK  Name = 1712058
REMARK  6 active torsions:
REMARK  status: ('A' for Active; 'I' for Inactive)
REMARK    1  A    between atoms: C_1  and  C_10
REMARK    2  A    between atoms: C_1  and  C_11
REMARK    3  A    between atoms: C_2  and  C_3
REMARK    4  A    between atoms: C_11  and  C_12
REMARK    5  A    between atoms: C_12  and  C_13
REMARK    6  A    between atoms: C_13  and  C_14
REMARK                            x       y       z     vdW  Elec       q    Type
REMARK                         _______ _______ _______ _____ _____    ______ ____
ROOT
ATOM      1  C   UNL     1      34.822 -17.142 -22.297  0.00  0.00    +0.020 C 
ATOM      2  C   UNL     1      34.874 -18.477 -22.457  0.00  0.00    -0.001 C 
ENDROOT
BRANCH   2   3
ATOM      3  C   UNL     1      34.611 -19.474 -21.413  0.00  0.00    -0.000 C 
ATOM      4  C   UNL     1      33.300 -19.783 -21.075  0.00  0.00    -0.000 C 
ATOM      5  C   UNL     1      35.677 -20.095 -20.774  0.00  0.00    -0.000 C 
ATOM      6  C   UNL     1      33.050 -20.731 -20.083  0.00  0.00    -0.000 C 
ATOM      7  C   UNL     1      35.427 -21.042 -19.782  0.00  0.00    -0.000 C 
ATOM      8  C   UNL     1      34.114 -21.360 -19.437  0.00  0.00    -0.000 C 
ENDBRANCH   2   3
BRANCH   1  10
ATOM      9  O   UNL     1      35.029 -15.770 -20.347  0.00  0.00    -0.283 OA
ATOM     10  C   UNL     1      34.462 -16.692 -20.922  0.00  0.00    +0.230 C 
ENDBRANCH   1  10
BRANCH   1  11
ATOM     11  C   UNL     1      35.046 -16.078 -23.342  0.00  0.00    +0.030 C 
BRANCH  11  12
ATOM     12  C   UNL     1      33.772 -15.326 -23.755  0.00  0.00    +0.005 C 
BRANCH  12  13
ATOM     13  C   UNL     1      33.777 -13.822 -23.456  0.00  0.00    +0.000 C 
BRANCH  13  14
ATOM     14  C   UNL     1      32.462 -13.327 -22.853  0.00  0.00    +0.000 C 
ATOM     15  C   UNL     1      32.379 -13.643 -21.368  0.00  0.00    +0.000 C 
ENDBRANCH  13  14
ENDBRANCH  12  13
ENDBRANCH  11  12
ENDBRANCH   1  11
TORSDOF 6
ENDMDL
MODEL 3
REMARK VINA RESULT:      -7.5      1.162      2.021
REMARK  Name = 1712058
REMARK  6 active torsions:
REMARK  status: ('A' for Active; 'I' for Inactive)
REMARK    1  A    between atoms: C_1  and  C_10
REMARK    2  A    between atoms: C_1  and  C_11
REMARK    3  A    between atoms: C_2  and  C_3
REMARK    4  A    between atoms: C_11  and  C_12
REMARK    5  A    between atoms: C_12  and  C_13
REMARK    6  A    between atoms: C_13  and  C_14
REMARK                            x       y       z     vdW  Elec       q    Type
REMARK                         _______ _______ _______ _____ _____    ______ ____
ROOT
ATOM      1  C   UNL     1      34.942 -17.855 -22.999  0.00  0.00    +0.020 C 
ATOM      2  C   UNL     1      34.837 -17.988 -21.665  0.00  0.00    -0.001 C 
ENDROOT
BRANCH   2   3
ATOM      3  C   UNL     1      34.627 -19.248 -20.945  0.00  0.00    -0.000 C 
ATOM      4  C   UNL     1      33.334 -19.666 -20.657  0.00  0.00    -0.000 C 
ATOM      5  C   UNL     1      35.724 -20.008 -20.558  0.00  0.00    -0.000 C 
ATOM      6  C   UNL     1      33.135 -20.864 -19.973  0.00  0.00    -0.000 C 
ATOM      7  C   UNL     1      35.524 -21.206 -19.874  0.00  0.00    -0.000 C 
ATOM      8  C   UNL     1      34.230 -21.635 -19.581  0.00  0.00    -0.000 C 
ENDBRANCH   2   3
BRANCH   1  10
ATOM      9  O   UNL     1      34.492 -19.180 -24.942  0.00  0.00    -0.283 OA
ATOM     10  C   UNL     1      34.826 -19.131 -23.764  0.00  0.00    +0.230 C 
ENDBRANCH   1  10
BRANCH   1  11
ATOM     11  C   UNL     1      35.195 -16.593 -23.785  0.00  0.00    +0.030 C 
BRANCH  11  12
ATOM     12  C   UNL     1      34.551 -15.337 -23.179  0.00  0.00    +0.005 C 
BRANCH  12  13
ATOM     13  C   UNL     1      33.470 -14.677 -24.041  0.00  0.00    +0.000 C 
BRANCH  13  14
ATOM     14  C   UNL     1      33.391 -15.259 -25.453  0.00  0.00    +0.000 C 
ATOM     15  C   UNL     1      32.953 -14.209 -26.462  0.00  0.00    +0.000 C 
ENDBRANCH  13  14
ENDBRANCH  12  13
ENDBRANCH  11  12
ENDBRANCH   1  11
TORSDOF 6
ENDMDL
MODEL 4
REMARK VINA RESULT:      -7.2      2.089      6.017
REMARK  Name = 1712058
REMARK  6 active torsions:
REMARK  status: ('A' for Active; 'I' for Inactive)
REMARK    1  A    between atoms: C_1  and  C_10
REMARK    2  A    between atoms: C_1  and  C_11
REMARK    3  A    between atoms: C_2  and  C_3
REMARK    4  A    between atoms: C_11  and  C_12
REMARK    5  A    between atoms: C_12  and  C_13
REMARK    6  A    between atoms: C_13  and  C_14
REMARK                            x       y       z     vdW  Elec       q    Type
REMARK                         _______ _______ _______ _____ _____    ______ ____
ROOT
ATOM      1  C   UNL     1      34.728 -20.252 -20.649  0.00  0.00    +0.020 C 
ATOM      2  C   UNL     1      35.604 -19.648 -21.471  0.00  0.00    -0.001 C 
ENDROOT
BRANCH   2   3
ATOM      3  C   UNL     1      35.267 -18.663 -22.504  0.00  0.00    -0.000 C 
ATOM      4  C   UNL     1      35.298 -17.309 -22.197  0.00  0.00    -0.000 C 
ATOM      5  C   UNL     1      34.920 -19.097 -23.778  0.00  0.00    -0.000 C 
ATOM      6  C   UNL     1      34.978 -16.373 -23.180  0.00  0.00    -0.000 C 
ATOM      7  C   UNL     1      34.600 -18.161 -24.761  0.00  0.00    -0.000 C 
ATOM      8  C   UNL     1      34.629 -16.799 -24.462  0.00  0.00    -0.000 C 
ENDBRANCH   2   3
BRANCH   1  10
ATOM      9  O   UNL     1      32.365 -20.626 -20.721  0.00  0.00    -0.283 OA
ATOM     10  C   UNL     1      33.306 -19.851 -20.849  0.00  0.00    +0.230 C 
ENDBRANCH   1  10
BRANCH   1  11
ATOM     11  C   UNL     1      35.025 -21.241 -19.549  0.00  0.00    +0.030 C 
BRANCH  11  12
ATOM     12  C   UNL     1      36.512 -21.338 -19.176  0.00  0.00    +0.005 C 
BRANCH  12  13
ATOM     13  C   UNL     1      36.796 -21.703 -17.715  0.00  0.00    +0.000 C 
BRANCH  13  14
ATOM     14  C   UNL     1      35.631 -22.429 -17.042  0.00  0.00    +0.000 C 
ATOM     15  C   UNL     1      35.973 -22.822 -15.613  0.00  0.00    +0.000 C 
ENDBRANCH  13  14
ENDBRANCH  12  13
ENDBRANCH  11  12
ENDBRANCH   1  11
TORSDOF 6
ENDMDL
MODEL 5
REMARK VINA RESULT:      -7.2      2.485      6.287
REMARK  Name = 1712058
REMARK  6 active torsions:
REMARK  status: ('A' for Active; 'I' for Inactive)
REMARK    1  A    between atoms: C_1  and  C_10
REMARK    2  A    between atoms: C_1  and  C_11
REMARK    3  A    between atoms: C_2  and  C_3
REMARK    4  A    between atoms: C_11  and  C_12
REMARK    5  A    between atoms: C_12  and  C_13
REMARK    6  A    between atoms: C_13  and  C_14
REMARK                            x       y       z     vdW  Elec       q    Type
REMARK                         _______ _______ _______ _____ _____    ______ ____
ROOT
ATOM      1  C   UNL     1      34.143 -20.906 -20.006  0.00  0.00    +0.020 C 
ATOM      2  C   UNL     1      33.525 -19.928 -20.691  0.00  0.00    -0.001 C 
ENDROOT
BRANCH   2   3
ATOM      3  C   UNL     1      34.182 -18.941 -21.555  0.00  0.00    -0.000 C 
ATOM      4  C   UNL     1      34.390 -17.651 -21.086  0.00  0.00    -0.000 C 
ATOM      5  C   UNL     1      34.588 -19.310 -22.832  0.00  0.00    -0.000 C 
ATOM      6  C   UNL     1      35.015 -16.713 -21.907  0.00  0.00    -0.000 C 
ATOM      7  C   UNL     1      35.213 -18.372 -23.653  0.00  0.00    -0.000 C 
ATOM      8  C   UNL     1      35.427 -17.074 -23.190  0.00  0.00    -0.000 C 
ENDBRANCH   2   3
BRANCH   1  10
ATOM      9  O   UNL     1      36.392 -20.241 -19.525  0.00  0.00    -0.283 OA
ATOM     10  C   UNL     1      35.625 -20.943 -20.172  0.00  0.00    +0.230 C 
ENDBRANCH   1  10
BRANCH   1  11
ATOM     11  C   UNL     1      33.513 -21.966 -19.136  0.00  0.00    +0.030 C 
BRANCH  11  12
ATOM     12  C   UNL     1      34.447 -22.525 -18.052  0.00  0.00    +0.005 C 
BRANCH  12  13
ATOM     13  C   UNL     1      33.753 -23.320 -16.941  0.00  0.00    +0.000 C 
BRANCH  13  14
ATOM     14  C   UNL     1      32.240 -23.104 -16.905  0.00  0.00    +0.000 C 
ATOM     15  C   UNL     1      31.704 -23.167 -15.483  0.00  0.00    +0.000 C 
ENDBRANCH  13  14
ENDBRANCH  12  13
ENDBRANCH  11  12
ENDBRANCH   1  11
TORSDOF 6
ENDMDL
MODEL 6
REMARK VINA RESULT:      -7.1      1.130      5.465
REMARK  Name = 1712058
REMARK  6 active torsions:
REMARK  status: ('A' for Active; 'I' for Inactive)
REMARK    1  A    between atoms: C_1  and  C_10
REMARK    2  A    between atoms: C_1  and  C_11
REMARK    3  A    between atoms: C_2  and  C_3
REMARK    4  A    between atoms: C_11  and  C_12
REMARK    5  A    between atoms: C_12  and  C_13
REMARK    6  A    between atoms: C_13  and  C_14
REMARK                            x       y       z     vdW  Elec       q    Type
REMARK                         _______ _______ _______ _____ _____    ______ ____
ROOT
ATOM      1  C   UNL     1      35.273 -17.686 -21.542  0.00  0.00    +0.020 C 
ATOM      2  C   UNL     1      34.958 -16.538 -20.917  0.00  0.00    -0.001 C 
ENDROOT
BRANCH   2   3
ATOM      3  C   UNL     1      34.149 -15.451 -21.481  0.00  0.00    -0.000 C 
ATOM      4  C   UNL     1      32.953 -15.098 -20.871  0.00  0.00    -0.000 C 
ATOM      5  C   UNL     1      34.590 -14.789 -22.621  0.00  0.00    -0.000 C 
ATOM      6  C   UNL     1      32.185 -14.065 -21.407  0.00  0.00    -0.000 C 
ATOM      7  C   UNL     1      33.822 -13.756 -23.157  0.00  0.00    -0.000 C 
ATOM      8  C   UNL     1      32.619 -13.394 -22.551  0.00  0.00    -0.000 C 
ENDBRANCH   2   3
BRANCH   1  10
ATOM      9  O   UNL     1      35.431 -18.035 -23.905  0.00  0.00    -0.283 OA
ATOM     10  C   UNL     1      34.730 -17.813 -22.925  0.00  0.00    +0.230 C 
ENDBRANCH   1  10
BRANCH   1  11
ATOM     11  C   UNL     1      36.066 -18.847 -20.996  0.00  0.00    +0.030 C 
BRANCH  11  12
ATOM     12  C   UNL     1      35.386 -20.212 -21.177  0.00  0.00    +0.005 C 
BRANCH  12  13
ATOM     13  C   UNL     1      35.003 -20.927 -19.877  0.00  0.00    +0.000 C 
BRANCH  13  14
ATOM     14  C   UNL     1      33.491 -21.066 -19.692  0.00  0.00    +0.000 C 
ATOM     15  C   UNL     1      32.732 -20.103 -20.592  0.00  0.00    +0.000 C 
ENDBRANCH  13  14
ENDBRANCH  12  13
ENDBRANCH  11  12
ENDBRANCH   1  11
TORSDOF 6
ENDMDL
MODEL 7
REMARK VINA RESULT:      -6.9      2.361      6.162
REMARK  Name = 1712058
REMARK  6 active torsions:
REMARK  status: ('A' for Active; 'I' for Inactive)
REMARK    1  A    between atoms: C_1  and  C_10
REMARK    2  A    between atoms: C_1  and  C_11
REMARK    3  A    between atoms: C_2  and  C_3
REMARK    4  A    between atoms: C_11  and  C_12
REMARK    5  A    between atoms: C_12  and  C_13
REMARK    6  A    between atoms: C_13  and  C_14
REMARK                            x       y       z     vdW  Elec       q    Type
REMARK                         _______ _______ _______ _____ _____    ______ ____
ROOT
ATOM      1  C   UNL     1      34.207 -15.934 -24.749  0.00  0.00    +0.020 C 
ATOM      2  C   UNL     1      34.347 -15.276 -23.585  0.00  0.00    -0.001 C 
ENDROOT
BRANCH   2   3
ATOM      3  C   UNL     1      33.613 -14.068 -23.192  0.00  0.00    -0.000 C 
ATOM      4  C   UNL     1      32.681 -14.135 -22.165  0.00  0.00    -0.000 C 
ATOM      5  C   UNL     1      33.859 -12.871 -23.854  0.00  0.00    -0.000 C 
ATOM      6  C   UNL     1      31.984 -12.986 -21.792  0.00  0.00    -0.000 C 
ATOM      7  C   UNL     1      33.162 -11.723 -23.481  0.00  0.00    -0.000 C 
ATOM      8  C   UNL     1      32.224 -11.780 -22.450  0.00  0.00    -0.000 C 
ENDBRANCH   2   3
BRANCH   1  10
ATOM      9  O   UNL     1      33.420 -15.182 -26.882  0.00  0.00    -0.283 OA
ATOM     10  C   UNL     1      33.208 -15.342 -25.685  0.00  0.00    +0.230 C 
ENDBRANCH   1  10
BRANCH   1  11
ATOM     11  C   UNL     1      34.907 -17.197 -25.186  0.00  0.00    +0.030 C 
BRANCH  11  12
ATOM     12  C   UNL     1      34.276 -18.486 -24.637  0.00  0.00    +0.005 C 
BRANCH  12  13
ATOM     13  C   UNL     1      35.077 -19.185 -23.532  0.00  0.00    +0.000 C 
BRANCH  13  14
ATOM     14  C   UNL     1      34.472 -18.994 -22.141  0.00  0.00    +0.000 C 
ATOM     15  C   UNL     1      35.332 -18.079 -21.283  0.00  0.00    +0.000 C 
ENDBRANCH  13  14
ENDBRANCH  12  13
ENDBRANCH  11  12
ENDBRANCH   1  11
TORSDOF 6
ENDMDL
MODEL 8
REMARK VINA RESULT:      -6.9      2.124      6.152
REMARK  Name = 1712058
REMARK  6 active torsions:
REMARK  status: ('A' for Active; 'I' for Inactive)
REMARK    1  A    between atoms: C_1  and  C_10
REMARK    2  A    between atoms: C_1  and  C_11
REMARK    3  A    between atoms: C_2  and  C_3
REMARK    4  A    between atoms: C_11  and  C_12
REMARK    5  A    between atoms: C_12  and  C_13
REMARK    6  A    between atoms: C_13  and  C_14
REMARK                            x       y       z     vdW  Elec       q    Type
REMARK                         _______ _______ _______ _____ _____    ______ ____
ROOT
ATOM      1  C   UNL     1      34.111 -16.220 -24.500  0.00  0.00    +0.020 C 
ATOM      2  C   UNL     1      34.186 -15.526 -23.351  0.00  0.00    -0.001 C 
ENDROOT
BRANCH   2   3
ATOM      3  C   UNL     1      33.552 -14.229 -23.092  0.00  0.00    -0.000 C 
ATOM      4  C   UNL     1      33.933 -13.119 -23.834  0.00  0.00    -0.000 C 
ATOM      5  C   UNL     1      32.577 -14.127 -22.107  0.00  0.00    -0.000 C 
ATOM      6  C   UNL     1      33.329 -11.886 -23.588  0.00  0.00    -0.000 C 
ATOM      7  C   UNL     1      31.974 -12.894 -21.861  0.00  0.00    -0.000 C 
ATOM      8  C   UNL     1      32.349 -11.774 -22.602  0.00  0.00    -0.000 C 
ENDBRANCH   2   3
BRANCH   1  10
ATOM      9  O   UNL     1      33.750 -15.285 -26.674  0.00  0.00    -0.283 OA
ATOM     10  C   UNL     1      33.300 -15.570 -25.570  0.00  0.00    +0.230 C 
ENDBRANCH   1  10
BRANCH   1  11
ATOM     11  C   UNL     1      34.711 -17.570 -24.804  0.00  0.00    +0.030 C 
BRANCH  11  12
ATOM     12  C   UNL     1      35.451 -18.209 -23.620  0.00  0.00    +0.005 C 
BRANCH  12  13
ATOM     13  C   UNL     1      34.642 -19.240 -22.825  0.00  0.00    +0.000 C 
BRANCH  13  14
ATOM     14  C   UNL     1      34.303 -18.773 -21.408  0.00  0.00    +0.000 C 
ATOM     15  C   UNL     1      33.508 -19.826 -20.652  0.00  0.00    +0.000 C 
ENDBRANCH  13  14
ENDBRANCH  12  13
ENDBRANCH  11  12
ENDBRANCH   1  11
TORSDOF 6
ENDMDL
MODEL 9
REMARK VINA RESULT:      -6.8      1.827      2.616
REMARK  Name = 1712058
REMARK  6 active torsions:
REMARK  status: ('A' for Active; 'I' for Inactive)
REMARK    1  A    between atoms: C_1  and  C_10
REMARK    2  A    between atoms: C_1  and  C_11
REMARK    3  A    between atoms: C_2  and  C_3
REMARK    4  A    between atoms: C_11  and  C_12
REMARK    5  A    between atoms: C_12  and  C_13
REMARK    6  A    between atoms: C_13  and  C_14
REMARK                            x       y       z     vdW  Elec       q    Type
REMARK                         _______ _______ _______ _____ _____    ______ ____
ROOT
ATOM      1  C   UNL     1      34.324 -16.383 -23.347  0.00  0.00    +0.020 C 
ATOM      2  C   UNL     1      34.306 -16.698 -22.039  0.00  0.00    -0.001 C 
ENDROOT
BRANCH   2   3
ATOM      3  C   UNL     1      34.665 -18.001 -21.469  0.00  0.00    -0.000 C 
ATOM      4  C   UNL     1      33.662 -18.896 -21.120  0.00  0.00    -0.000 C 
ATOM      5  C   UNL     1      36.004 -18.322 -21.283  0.00  0.00    -0.000 C 
ATOM      6  C   UNL     1      34.003 -20.135 -20.578  0.00  0.00    -0.000 C 
ATOM      7  C   UNL     1      36.345 -19.561 -20.740  0.00  0.00    -0.000 C 
ATOM      8  C   UNL     1      35.345 -20.467 -20.388  0.00  0.00    -0.000 C 
ENDBRANCH   2   3
BRANCH   1  10
ATOM      9  O   UNL     1      34.483 -17.525 -25.445  0.00  0.00    -0.283 OA
ATOM     10  C   UNL     1      34.752 -17.490 -24.249  0.00  0.00    +0.230 C 
ENDBRANCH   1  10
BRANCH   1  11
ATOM     11  C   UNL     1      34.002 -15.052 -23.981  0.00  0.00    +0.030 C 
BRANCH  11  12
ATOM     12  C   UNL     1      34.099 -13.859 -23.019  0.00  0.00    +0.005 C 
BRANCH  12  13
ATOM     13  C   UNL     1      33.382 -12.587 -23.484  0.00  0.00    +0.000 C 
BRANCH  13  14
ATOM     14  C   UNL     1      33.801 -12.140 -24.885  0.00  0.00    +0.000 C 
ATOM     15  C   UNL     1      34.529 -10.805 -24.847  0.00  0.00    +0.000 C 
ENDBRANCH  13  14
ENDBRANCH  12  13
ENDBRANCH  11  12
ENDBRANCH   1  11
TORSDOF 6
ENDMDL
