MODEL 1
REMARK VINA RESULT:      -8.7      0.000      0.000
REMARK  Name = 213041
REMARK  2 active torsions:
REMARK  status: ('A' for Active; 'I' for Inactive)
REMARK    1  A    between atoms: C_2  and  C_13
REMARK    2  A    between atoms: C_2  and  C_18
REMARK                            x       y       z     vdW  Elec       q    Type
REMARK                         _______ _______ _______ _____ _____    ______ ____
ROOT
ATOM      1  F   UNL     1      36.786 -21.612 -18.373  0.00  0.00    -0.204 F 
ATOM      2  C   UNL     1      34.953 -17.920 -22.682  0.00  0.00    +0.040 C 
ATOM      3  C   UNL     1      36.311 -18.563 -22.249  0.00  0.00    +0.032 C 
ATOM      4  C   UNL     1      33.902 -19.050 -22.424  0.00  0.00    +0.032 C 
ATOM      5  C   UNL     1      35.884 -19.518 -21.177  0.00  0.00    -0.024 C 
ATOM      6  C   UNL     1      34.519 -19.797 -21.278  0.00  0.00    -0.026 C 
ATOM      7  C   UNL     1      36.669 -20.127 -20.213  0.00  0.00    +0.025 C 
ATOM      8  C   UNL     1      33.906 -20.691 -20.416  0.00  0.00    -0.002 C 
ATOM      9  C   UNL     1      36.059 -21.021 -19.331  0.00  0.00    +0.140 C 
ATOM     10  C   UNL     1      34.688 -21.302 -19.433  0.00  0.00    +0.029 C 
ENDROOT
BRANCH   2  13
ATOM     11  N   UNL     1      33.765 -15.675 -22.406  0.00  0.00    -0.319 N 
ATOM     12  N   UNL     1      34.263 -15.028 -20.342  0.00  0.00    -0.315 N 
ATOM     13  C   UNL     1      34.553 -16.647 -21.878  0.00  0.00    +0.037 C 
ATOM     14  C   UNL     1      34.852 -16.237 -20.612  0.00  0.00    +0.069 C 
ATOM     15  C   UNL     1      33.616 -14.717 -21.444  0.00  0.00    +0.182 C 
ATOM     16  H   UNL     1      33.375 -15.664 -23.311  0.00  0.00    +0.148 HD
ATOM     17  H   UNL     1      34.313 -14.507 -19.507  0.00  0.00    +0.148 HD
ENDBRANCH   2  13
BRANCH   2  18
ATOM     18  C   UNL     1      35.042 -17.587 -24.186  0.00  0.00    +0.006 C 
ATOM     19  C   UNL     1      34.349 -18.644 -25.019  0.00  0.00    +0.000 C 
ENDBRANCH   2  18
TORSDOF 2
ENDMDL
MODEL 2
REMARK VINA RESULT:      -8.3      1.785      3.333
REMARK  Name = 213041
REMARK  2 active torsions:
REMARK  status: ('A' for Active; 'I' for Inactive)
REMARK    1  A    between atoms: C_2  and  C_13
REMARK    2  A    between atoms: C_2  and  C_18
REMARK                            x       y       z     vdW  Elec       q    Type
REMARK                         _______ _______ _______ _____ _____    ______ ____
ROOT
ATOM      1  F   UNL     1      33.435 -22.998 -19.299  0.00  0.00    -0.204 F 
ATOM      2  C   UNL     1      34.677 -17.678 -21.689  0.00  0.00    +0.040 C 
ATOM      3  C   UNL     1      33.497 -18.302 -20.875  0.00  0.00    +0.032 C 
ATOM      4  C   UNL     1      35.954 -18.323 -21.055  0.00  0.00    +0.032 C 
ATOM      5  C   UNL     1      34.045 -19.643 -20.495  0.00  0.00    -0.024 C 
ATOM      6  C   UNL     1      35.439 -19.654 -20.594  0.00  0.00    -0.026 C 
ATOM      7  C   UNL     1      33.351 -20.755 -20.050  0.00  0.00    +0.025 C 
ATOM      8  C   UNL     1      36.170 -20.779 -20.251  0.00  0.00    -0.002 C 
ATOM      9  C   UNL     1      34.078 -21.899 -19.713  0.00  0.00    +0.140 C 
ATOM     10  C   UNL     1      35.478 -21.909 -19.812  0.00  0.00    +0.029 C 
ENDROOT
BRANCH   2  13
ATOM     11  N   UNL     1      34.593 -17.003 -24.152  0.00  0.00    -0.319 N 
ATOM     12  N   UNL     1      34.615 -18.927 -25.260  0.00  0.00    -0.315 N 
ATOM     13  C   UNL     1      34.644 -17.986 -23.216  0.00  0.00    +0.037 C 
ATOM     14  C   UNL     1      34.657 -19.161 -23.909  0.00  0.00    +0.069 C 
ATOM     15  C   UNL     1      34.576 -17.617 -25.373  0.00  0.00    +0.182 C 
ATOM     16  H   UNL     1      34.572 -16.033 -23.983  0.00  0.00    +0.148 HD
ATOM     17  H   UNL     1      34.613 -19.593 -25.987  0.00  0.00    +0.148 HD
ENDBRANCH   2  13
BRANCH   2  18
ATOM     18  C   UNL     1      34.662 -16.153 -21.460  0.00  0.00    +0.006 C 
ATOM     19  C   UNL     1      33.351 -15.709 -20.846  0.00  0.00    +0.000 C 
ENDBRANCH   2  18
TORSDOF 2
ENDMDL
MODEL 3
REMARK VINA RESULT:      -8.0      6.481      9.492
REMARK  Name = 213041
REMARK  2 active torsions:
REMARK  status: ('A' for Active; 'I' for Inactive)
REMARK    1  A    between atoms: C_2  and  C_13
REMARK    2  A    between atoms: C_2  and  C_18
REMARK                            x       y       z     vdW  Elec       q    Type
REMARK                         _______ _______ _______ _____ _____    ______ ____
ROOT
ATOM      1  F   UNL     1      35.768 -21.524 -19.915  0.00  0.00    -0.204 F 
ATOM      2  C   UNL     1      36.363 -23.530 -14.331  0.00  0.00    +0.040 C 
ATOM      3  C   UNL     1      37.056 -22.446 -15.222  0.00  0.00    +0.032 C 
ATOM      4  C   UNL     1      34.856 -23.447 -14.743  0.00  0.00    +0.032 C 
ATOM      5  C   UNL     1      36.192 -22.440 -16.446  0.00  0.00    -0.024 C 
ATOM      6  C   UNL     1      34.944 -23.004 -16.173  0.00  0.00    -0.026 C 
ATOM      7  C   UNL     1      36.487 -21.924 -17.696  0.00  0.00    +0.025 C 
ATOM      8  C   UNL     1      33.961 -23.067 -17.147  0.00  0.00    -0.002 C 
ATOM      9  C   UNL     1      35.507 -21.995 -18.689  0.00  0.00    +0.140 C 
ATOM     10  C   UNL     1      34.253 -22.561 -18.415  0.00  0.00    +0.029 C 
ENDROOT
BRANCH   2  13
ATOM     11  N   UNL     1      36.065 -25.989 -14.952  0.00  0.00    -0.319 N 
ATOM     12  N   UNL     1      38.092 -26.870 -14.739  0.00  0.00    -0.315 N 
ATOM     13  C   UNL     1      36.883 -24.981 -14.555  0.00  0.00    +0.037 C 
ATOM     14  C   UNL     1      38.123 -25.535 -14.428  0.00  0.00    +0.069 C 
ATOM     15  C   UNL     1      36.837 -27.113 -15.050  0.00  0.00    +0.182 C 
ATOM     16  H   UNL     1      35.100 -25.924 -15.135  0.00  0.00    +0.148 HD
ATOM     17  H   UNL     1      38.843 -27.508 -14.731  0.00  0.00    +0.148 HD
ENDBRANCH   2  13
BRANCH   2  18
ATOM     18  C   UNL     1      36.552 -23.125 -12.855  0.00  0.00    +0.006 C 
ATOM     19  C   UNL     1      35.579 -23.863 -11.960  0.00  0.00    +0.000 C 
ENDBRANCH   2  18
TORSDOF 2
ENDMDL
MODEL 4
REMARK VINA RESULT:      -7.9      9.444     10.781
REMARK  Name = 213041
REMARK  2 active torsions:
REMARK  status: ('A' for Active; 'I' for Inactive)
REMARK    1  A    between atoms: C_2  and  C_13
REMARK    2  A    between atoms: C_2  and  C_18
REMARK                            x       y       z     vdW  Elec       q    Type
REMARK                         _______ _______ _______ _____ _____    ______ ____
ROOT
ATOM      1  F   UNL     1      30.681 -10.847 -18.383  0.00  0.00    -0.204 F 
ATOM      2  C   UNL     1      33.132  -7.758 -22.857  0.00  0.00    +0.040 C 
ATOM      3  C   UNL     1      33.462  -8.017 -21.350  0.00  0.00    +0.032 C 
ATOM      4  C   UNL     1      32.570  -9.129 -23.360  0.00  0.00    +0.032 C 
ATOM      5  C   UNL     1      32.450  -9.057 -20.976  0.00  0.00    -0.024 C 
ATOM      6  C   UNL     1      31.947  -9.690 -22.115  0.00  0.00    -0.026 C 
ATOM      7  C   UNL     1      32.046  -9.438 -19.708  0.00  0.00    +0.025 C 
ATOM      8  C   UNL     1      31.027 -10.719 -22.013  0.00  0.00    -0.002 C 
ATOM      9  C   UNL     1      31.108 -10.468 -19.595  0.00  0.00    +0.140 C 
ATOM     10  C   UNL     1      30.603 -11.103 -20.739  0.00  0.00    +0.029 C 
ENDROOT
BRANCH   2  13
ATOM     11  N   UNL     1      31.837  -6.132 -24.341  0.00  0.00    -0.319 N 
ATOM     12  N   UNL     1      30.473  -5.068 -22.950  0.00  0.00    -0.315 N 
ATOM     13  C   UNL     1      32.074  -6.641 -23.105  0.00  0.00    +0.037 C 
ATOM     14  C   UNL     1      31.231  -5.980 -22.261  0.00  0.00    +0.069 C 
ATOM     15  C   UNL     1      30.862  -5.184 -24.200  0.00  0.00    +0.182 C 
ATOM     16  H   UNL     1      32.281  -6.395 -25.180  0.00  0.00    +0.148 HD
ATOM     17  H   UNL     1      29.787  -4.460 -22.588  0.00  0.00    +0.148 HD
ENDBRANCH   2  13
BRANCH   2  18
ATOM     18  C   UNL     1      34.449  -7.406 -23.579  0.00  0.00    +0.006 C 
ATOM     19  C   UNL     1      35.017  -8.614 -24.291  0.00  0.00    +0.000 C 
ENDBRANCH   2  18
TORSDOF 2
ENDMDL
MODEL 5
REMARK VINA RESULT:      -7.6      8.983     10.994
REMARK  Name = 213041
REMARK  2 active torsions:
REMARK  status: ('A' for Active; 'I' for Inactive)
REMARK    1  A    between atoms: C_2  and  C_13
REMARK    2  A    between atoms: C_2  and  C_18
REMARK                            x       y       z     vdW  Elec       q    Type
REMARK                         _______ _______ _______ _____ _____    ______ ____
ROOT
ATOM      1  F   UNL     1      33.668 -12.637 -25.978  0.00  0.00    -0.204 F 
ATOM      2  C   UNL     1      33.209  -7.731 -22.621  0.00  0.00    +0.040 C 
ATOM      3  C   UNL     1      32.660  -9.194 -22.563  0.00  0.00    +0.032 C 
ATOM      4  C   UNL     1      34.661  -7.896 -23.182  0.00  0.00    +0.032 C 
ATOM      5  C   UNL     1      33.393  -9.855 -23.689  0.00  0.00    -0.024 C 
ATOM      6  C   UNL     1      34.530  -9.121 -24.038  0.00  0.00    -0.026 C 
ATOM      7  C   UNL     1      33.090 -11.048 -24.322  0.00  0.00    +0.025 C 
ATOM      8  C   UNL     1      35.389  -9.564 -25.029  0.00  0.00    -0.002 C 
ATOM      9  C   UNL     1      33.944 -11.497 -25.332  0.00  0.00    +0.140 C 
ATOM     10  C   UNL     1      35.086 -10.760 -25.682  0.00  0.00    +0.029 C 
ENDROOT
BRANCH   2  13
ATOM     11  N   UNL     1      32.997  -6.035 -24.520  0.00  0.00    -0.319 N 
ATOM     12  N   UNL     1      30.831  -5.555 -24.602  0.00  0.00    -0.315 N 
ATOM     13  C   UNL     1      32.402  -6.772 -23.546  0.00  0.00    +0.037 C 
ATOM     14  C   UNL     1      31.074  -6.467 -23.607  0.00  0.00    +0.069 C 
ATOM     15  C   UNL     1      32.010  -5.315 -25.132  0.00  0.00    +0.182 C 
ATOM     16  H   UNL     1      33.956  -6.023 -24.742  0.00  0.00    +0.148 HD
ATOM     17  H   UNL     1      29.965  -5.165 -24.862  0.00  0.00    +0.148 HD
ENDBRANCH   2  13
BRANCH   2  18
ATOM     18  C   UNL     1      33.237  -7.175 -21.182  0.00  0.00    +0.006 C 
ATOM     19  C   UNL     1      32.483  -8.082 -20.234  0.00  0.00    +0.000 C 
ENDBRANCH   2  18
TORSDOF 2
ENDMDL
MODEL 6
REMARK VINA RESULT:      -7.5      3.345      5.407
REMARK  Name = 213041
REMARK  2 active torsions:
REMARK  status: ('A' for Active; 'I' for Inactive)
REMARK    1  A    between atoms: C_2  and  C_13
REMARK    2  A    between atoms: C_2  and  C_18
REMARK                            x       y       z     vdW  Elec       q    Type
REMARK                         _______ _______ _______ _____ _____    ______ ____
ROOT
ATOM      1  F   UNL     1      33.282 -15.679 -26.227  0.00  0.00    -0.204 F 
ATOM      2  C   UNL     1      35.535 -18.552 -21.512  0.00  0.00    +0.040 C 
ATOM      3  C   UNL     1      35.758 -18.573 -23.061  0.00  0.00    +0.032 C 
ATOM      4  C   UNL     1      35.292 -17.040 -21.188  0.00  0.00    +0.032 C 
ATOM      5  C   UNL     1      34.928 -17.413 -23.519  0.00  0.00    -0.024 C 
ATOM      6  C   UNL     1      34.667 -16.542 -22.458  0.00  0.00    -0.026 C 
ATOM      7  C   UNL     1      34.481 -17.136 -24.799  0.00  0.00    +0.025 C 
ATOM      8  C   UNL     1      33.951 -15.373 -22.653  0.00  0.00    -0.002 C 
ATOM      9  C   UNL     1      33.747 -15.966 -25.004  0.00  0.00    +0.140 C 
ATOM     10  C   UNL     1      33.485 -15.091 -23.939  0.00  0.00    +0.029 C 
ENDROOT
BRANCH   2  13
ATOM     11  N   UNL     1      34.462 -20.500 -20.255  0.00  0.00    -0.319 N 
ATOM     12  N   UNL     1      32.281 -20.241 -20.577  0.00  0.00    -0.315 N 
ATOM     13  C   UNL     1      34.316 -19.389 -21.023  0.00  0.00    +0.037 C 
ATOM     14  C   UNL     1      32.973 -19.242 -21.213  0.00  0.00    +0.069 C 
ATOM     15  C   UNL     1      33.207 -20.982 -20.010  0.00  0.00    +0.182 C 
ATOM     16  H   UNL     1      35.310 -20.884 -19.936  0.00  0.00    +0.148 HD
ATOM     17  H   UNL     1      31.305 -20.374 -20.551  0.00  0.00    +0.148 HD
ENDBRANCH   2  13
BRANCH   2  18
ATOM     18  C   UNL     1      36.826 -19.057 -20.837  0.00  0.00    +0.006 C 
ATOM     19  C   UNL     1      38.018 -18.898 -21.756  0.00  0.00    +0.000 C 
ENDBRANCH   2  18
TORSDOF 2
ENDMDL
MODEL 7
REMARK VINA RESULT:      -7.4      8.483     10.575
REMARK  Name = 213041
REMARK  2 active torsions:
REMARK  status: ('A' for Active; 'I' for Inactive)
REMARK    1  A    between atoms: C_2  and  C_13
REMARK    2  A    between atoms: C_2  and  C_18
REMARK                            x       y       z     vdW  Elec       q    Type
REMARK                         _______ _______ _______ _____ _____    ______ ____
ROOT
ATOM      1  F   UNL     1      30.886 -23.530 -16.739  0.00  0.00    -0.204 F 
ATOM      2  C   UNL     1      35.965 -23.872 -13.633  0.00  0.00    +0.040 C 
ATOM      3  C   UNL     1      35.412 -22.990 -14.802  0.00  0.00    +0.032 C 
ATOM      4  C   UNL     1      34.721 -24.090 -12.707  0.00  0.00    +0.032 C 
ATOM      5  C   UNL     1      33.979 -23.420 -14.876  0.00  0.00    -0.024 C 
ATOM      6  C   UNL     1      33.587 -24.040 -13.687  0.00  0.00    -0.026 C 
ATOM      7  C   UNL     1      33.083 -23.227 -15.913  0.00  0.00    +0.025 C 
ATOM      8  C   UNL     1      32.287 -24.483 -13.508  0.00  0.00    -0.002 C 
ATOM      9  C   UNL     1      31.773 -23.682 -15.747  0.00  0.00    +0.140 C 
ATOM     10  C   UNL     1      31.378 -24.305 -14.553  0.00  0.00    +0.029 C 
ENDROOT
BRANCH   2  13
ATOM     11  N   UNL     1      36.376 -25.728 -15.339  0.00  0.00    -0.319 N 
ATOM     12  N   UNL     1      37.513 -27.273 -14.222  0.00  0.00    -0.315 N 
ATOM     13  C   UNL     1      36.530 -25.254 -14.076  0.00  0.00    +0.037 C 
ATOM     14  C   UNL     1      37.229 -26.212 -13.401  0.00  0.00    +0.069 C 
ATOM     15  C   UNL     1      36.985 -26.950 -15.383  0.00  0.00    +0.182 C 
ATOM     16  H   UNL     1      35.914 -25.276 -16.083  0.00  0.00    +0.148 HD
ATOM     17  H   UNL     1      38.004 -28.096 -13.994  0.00  0.00    +0.148 HD
ENDBRANCH   2  13
BRANCH   2  18
ATOM     18  C   UNL     1      37.058 -23.065 -12.903  0.00  0.00    +0.006 C 
ATOM     19  C   UNL     1      36.846 -23.096 -11.404  0.00  0.00    +0.000 C 
ENDBRANCH   2  18
TORSDOF 2
ENDMDL
MODEL 8
REMARK VINA RESULT:      -7.3      9.348     12.092
REMARK  Name = 213041
REMARK  2 active torsions:
REMARK  status: ('A' for Active; 'I' for Inactive)
REMARK    1  A    between atoms: C_2  and  C_13
REMARK    2  A    between atoms: C_2  and  C_18
REMARK                            x       y       z     vdW  Elec       q    Type
REMARK                         _______ _______ _______ _____ _____    ______ ____
ROOT
ATOM      1  F   UNL     1      31.946  -3.422 -22.908  0.00  0.00    -0.204 F 
ATOM      2  C   UNL     1      31.999  -9.370 -22.487  0.00  0.00    +0.040 C 
ATOM      3  C   UNL     1      32.223  -8.167 -21.512  0.00  0.00    +0.032 C 
ATOM      4  C   UNL     1      30.849  -8.881 -23.430  0.00  0.00    +0.032 C 
ATOM      5  C   UNL     1      31.849  -6.992 -22.364  0.00  0.00    -0.024 C 
ATOM      6  C   UNL     1      31.067  -7.397 -23.449  0.00  0.00    -0.026 C 
ATOM      7  C   UNL     1      32.147  -5.657 -22.156  0.00  0.00    +0.025 C 
ATOM      8  C   UNL     1      30.567  -6.475 -24.353  0.00  0.00    -0.002 C 
ATOM      9  C   UNL     1      31.658  -4.720 -23.069  0.00  0.00    +0.140 C 
ATOM     10  C   UNL     1      30.873  -5.126 -24.159  0.00  0.00    +0.029 C 
ENDROOT
BRANCH   2  13
ATOM     11  N   UNL     1      34.223  -8.854 -23.634  0.00  0.00    -0.319 N 
ATOM     12  N   UNL     1      34.815 -10.768 -24.591  0.00  0.00    -0.315 N 
ATOM     13  C   UNL     1      33.244  -9.750 -23.342  0.00  0.00    +0.037 C 
ATOM     14  C   UNL     1      33.620 -10.920 -23.935  0.00  0.00    +0.069 C 
ATOM     15  C   UNL     1      35.151  -9.512 -24.391  0.00  0.00    +0.182 C 
ATOM     16  H   UNL     1      34.256  -7.911 -23.354  0.00  0.00    +0.148 HD
ATOM     17  H   UNL     1      35.313 -11.449 -25.101  0.00  0.00    +0.148 HD
ENDBRANCH   2  13
BRANCH   2  18
ATOM     18  C   UNL     1      31.544 -10.583 -21.650  0.00  0.00    +0.006 C 
ATOM     19  C   UNL     1      31.485 -10.236 -20.178  0.00  0.00    +0.000 C 
ENDBRANCH   2  18
TORSDOF 2
ENDMDL
MODEL 9
REMARK VINA RESULT:      -7.0      7.114      9.491
REMARK  Name = 213041
REMARK  2 active torsions:
REMARK  status: ('A' for Active; 'I' for Inactive)
REMARK    1  A    between atoms: C_2  and  C_13
REMARK    2  A    between atoms: C_2  and  C_18
REMARK                            x       y       z     vdW  Elec       q    Type
REMARK                         _______ _______ _______ _____ _____    ______ ____
ROOT
ATOM      1  F   UNL     1      38.707 -23.821 -11.515  0.00  0.00    -0.204 F 
ATOM      2  C   UNL     1      34.295 -23.735 -15.526  0.00  0.00    +0.040 C 
ATOM      3  C   UNL     1      35.340 -22.710 -14.974  0.00  0.00    +0.032 C 
ATOM      4  C   UNL     1      35.088 -25.083 -15.589  0.00  0.00    +0.032 C 
ATOM      5  C   UNL     1      36.216 -23.575 -14.120  0.00  0.00    -0.024 C 
ATOM      6  C   UNL     1      36.075 -24.920 -14.471  0.00  0.00    -0.026 C 
ATOM      7  C   UNL     1      37.105 -23.181 -13.135  0.00  0.00    +0.025 C 
ATOM      8  C   UNL     1      36.821 -25.904 -13.843  0.00  0.00    -0.002 C 
ATOM      9  C   UNL     1      37.853 -24.167 -12.487  0.00  0.00    +0.140 C 
ATOM     10  C   UNL     1      37.712 -25.518 -12.840  0.00  0.00    +0.029 C 
ENDROOT
BRANCH   2  13
ATOM     11  N   UNL     1      32.729 -25.103 -14.042  0.00  0.00    -0.319 N 
ATOM     12  N   UNL     1      31.131 -23.678 -13.453  0.00  0.00    -0.315 N 
ATOM     13  C   UNL     1      33.033 -23.917 -14.632  0.00  0.00    +0.037 C 
ATOM     14  C   UNL     1      32.044 -23.053 -14.262  0.00  0.00    +0.069 C 
ATOM     15  C   UNL     1      31.572 -24.912 -13.340  0.00  0.00    +0.182 C 
ATOM     16  H   UNL     1      33.244 -25.939 -14.108  0.00  0.00    +0.148 HD
ATOM     17  H   UNL     1      30.322 -23.290 -13.045  0.00  0.00    +0.148 HD
ENDBRANCH   2  13
BRANCH   2  18
ATOM     18  C   UNL     1      33.878 -23.277 -16.939  0.00  0.00    +0.006 C 
ATOM     19  C   UNL     1      35.004 -22.531 -17.622  0.00  0.00    +0.000 C 
ENDBRANCH   2  18
TORSDOF 2
ENDMDL
