MODEL 1
REMARK VINA RESULT:      -8.6      0.000      0.000
REMARK  Name = 6245
REMARK  5 active torsions:
REMARK  status: ('A' for Active; 'I' for Inactive)
REMARK    1  A    between atoms: N_1  and  C1*_11
REMARK    2  A    between atoms: C2*_12  and  O2*_15
REMARK    3  A    between atoms: C3*_13  and  O3*_17
REMARK    4  A    between atoms: C4*_14  and  C5*_19
REMARK    5  A    between atoms: C5*_19  and  O5*_20
REMARK                            x       y       z     vdW  Elec       q    Type
REMARK                         _______ _______ _______ _____ _____    ______ ____
ROOT
ATOM      1  N   UNL     1      34.274 -19.441 -20.890  0.00  0.00    -0.250 N 
ATOM      2  N   UNL     1      36.224 -20.344 -19.793  0.00  0.00    -0.233 NA
ATOM      3  N   UNL     1      35.743 -22.336 -18.478  0.00  0.00    -0.234 NA
ATOM      4  C   UNL     1      34.912 -20.355 -20.088  0.00  0.00    +0.122 C 
ATOM      5  C   UNL     1      32.940 -19.763 -20.967  0.00  0.00    +0.064 C 
ATOM      6  C   UNL     1      33.970 -21.276 -19.646  0.00  0.00    +0.131 C 
ATOM      7  C   UNL     1      32.725 -20.894 -20.208  0.00  0.00    +0.004 C 
ATOM      8  C   UNL     1      34.433 -22.293 -18.812  0.00  0.00    +0.110 C 
ATOM      9  C   UNL     1      36.546 -21.372 -18.982  0.00  0.00    +0.252 C 
ATOM     10  N   UNL     1      33.552 -23.271 -18.316  0.00  0.00    -0.346 N 
ATOM     11  H   UNL     1      33.890 -23.984 -17.728  0.00  0.00    +0.143 HD
ATOM     12  H   UNL     1      32.598 -23.243 -18.558  0.00  0.00    +0.143 HD
ENDROOT
BRANCH   1  14
ATOM     13  O4* UNL     1      34.945 -17.177 -20.661  0.00  0.00    -0.333 OA
ATOM     14  C1* UNL     1      34.901 -18.303 -21.558  0.00  0.00    +0.227 C 
ATOM     15  C2* UNL     1      34.160 -17.828 -22.799  0.00  0.00    +0.187 C 
ATOM     16  C3* UNL     1      34.602 -16.381 -22.878  0.00  0.00    +0.171 C 
ATOM     17  C4* UNL     1      34.651 -15.974 -21.409  0.00  0.00    +0.175 C 
BRANCH  15  18
ATOM     18  O2* UNL     1      34.512 -18.579 -23.942  0.00  0.00    -0.378 OA
ATOM     19  H2* UNL     1      34.755 -19.480 -23.677  0.00  0.00    +0.211 HD
ENDBRANCH  15  18
BRANCH  16  20
ATOM     20  O3* UNL     1      35.921 -16.315 -23.418  0.00  0.00    -0.379 OA
ATOM     21  H3* UNL     1      36.529 -15.970 -22.746  0.00  0.00    +0.211 HD
ENDBRANCH  16  20
BRANCH  17  22
ATOM     22  C5* UNL     1      33.330 -15.406 -20.906  0.00  0.00    +0.169 C 
BRANCH  22  23
ATOM     23  O5* UNL     1      32.660 -14.788 -21.990  0.00  0.00    -0.379 OA
ATOM     24  H5* UNL     1      31.715 -15.000 -21.949  0.00  0.00    +0.211 HD
ENDBRANCH  22  23
ENDBRANCH  17  22
ENDBRANCH   1  14
TORSDOF 5
ENDMDL
MODEL 2
REMARK VINA RESULT:      -8.6      6.570      9.406
REMARK  Name = 6245
REMARK  5 active torsions:
REMARK  status: ('A' for Active; 'I' for Inactive)
REMARK    1  A    between atoms: N_1  and  C1*_11
REMARK    2  A    between atoms: C2*_12  and  O2*_15
REMARK    3  A    between atoms: C3*_13  and  O3*_17
REMARK    4  A    between atoms: C4*_14  and  C5*_19
REMARK    5  A    between atoms: C5*_19  and  O5*_20
REMARK                            x       y       z     vdW  Elec       q    Type
REMARK                         _______ _______ _______ _____ _____    ______ ____
ROOT
ATOM      1  N   UNL     1      36.660 -23.316 -15.748  0.00  0.00    -0.250 N 
ATOM      2  N   UNL     1      34.384 -23.824 -16.363  0.00  0.00    -0.233 NA
ATOM      3  N   UNL     1      33.615 -22.566 -18.301  0.00  0.00    -0.234 NA
ATOM      4  C   UNL     1      35.543 -23.166 -16.532  0.00  0.00    +0.122 C 
ATOM      5  C   UNL     1      37.653 -22.488 -16.213  0.00  0.00    +0.064 C 
ATOM      6  C   UNL     1      35.829 -22.226 -17.516  0.00  0.00    +0.131 C 
ATOM      7  C   UNL     1      37.166 -21.803 -17.306  0.00  0.00    +0.004 C 
ATOM      8  C   UNL     1      34.807 -21.937 -18.419  0.00  0.00    +0.110 C 
ATOM      9  C   UNL     1      33.479 -23.458 -17.294  0.00  0.00    +0.252 C 
ATOM     10  N   UNL     1      35.003 -20.999 -19.449  0.00  0.00    -0.346 N 
ATOM     11  H   UNL     1      34.275 -20.802 -20.081  0.00  0.00    +0.143 HD
ATOM     12  H   UNL     1      35.869 -20.540 -19.538  0.00  0.00    +0.143 HD
ENDROOT
BRANCH   1  14
ATOM     13  O4* UNL     1      37.998 -23.910 -13.881  0.00  0.00    -0.333 OA
ATOM     14  C1* UNL     1      36.785 -24.209 -14.598  0.00  0.00    +0.227 C 
ATOM     15  C2* UNL     1      36.861 -25.684 -14.964  0.00  0.00    +0.187 C 
ATOM     16  C3* UNL     1      37.594 -26.254 -13.766  0.00  0.00    +0.171 C 
ATOM     17  C4* UNL     1      38.599 -25.152 -13.445  0.00  0.00    +0.175 C 
BRANCH  15  18
ATOM     18  O2* UNL     1      35.579 -26.247 -15.148  0.00  0.00    -0.378 OA
ATOM     19  H2* UNL     1      34.980 -25.923 -14.456  0.00  0.00    +0.211 HD
ENDBRANCH  15  18
BRANCH  16  20
ATOM     20  O3* UNL     1      36.689 -26.384 -12.671  0.00  0.00    -0.379 OA
ATOM     21  H3* UNL     1      36.199 -25.555 -12.555  0.00  0.00    +0.211 HD
ENDBRANCH  16  20
BRANCH  17  22
ATOM     22  C5* UNL     1      39.925 -25.326 -14.175  0.00  0.00    +0.169 C 
BRANCH  22  23
ATOM     23  O5* UNL     1      40.080 -26.692 -14.513  0.00  0.00    -0.379 OA
ATOM     24  H5* UNL     1      39.206 -27.106 -14.596  0.00  0.00    +0.211 HD
ENDBRANCH  22  23
ENDBRANCH  17  22
ENDBRANCH   1  14
TORSDOF 5
ENDMDL
MODEL 3
REMARK VINA RESULT:      -8.6      8.213     10.110
REMARK  Name = 6245
REMARK  5 active torsions:
REMARK  status: ('A' for Active; 'I' for Inactive)
REMARK    1  A    between atoms: N_1  and  C1*_11
REMARK    2  A    between atoms: C2*_12  and  O2*_15
REMARK    3  A    between atoms: C3*_13  and  O3*_17
REMARK    4  A    between atoms: C4*_14  and  C5*_19
REMARK    5  A    between atoms: C5*_19  and  O5*_20
REMARK                            x       y       z     vdW  Elec       q    Type
REMARK                         _______ _______ _______ _____ _____    ______ ____
ROOT
ATOM      1  N   UNL     1      34.198 -24.272 -14.304  0.00  0.00    -0.250 N 
ATOM      2  N   UNL     1      32.015 -24.796 -13.423  0.00  0.00    -0.233 NA
ATOM      3  N   UNL     1      30.199 -23.920 -14.788  0.00  0.00    -0.234 NA
ATOM      4  C   UNL     1      32.826 -24.235 -14.336  0.00  0.00    +0.122 C 
ATOM      5  C   UNL     1      34.693 -23.596 -15.393  0.00  0.00    +0.064 C 
ATOM      6  C   UNL     1      32.439 -23.523 -15.465  0.00  0.00    +0.131 C 
ATOM      7  C   UNL     1      33.626 -23.123 -16.128  0.00  0.00    +0.004 C 
ATOM      8  C   UNL     1      31.067 -23.378 -15.672  0.00  0.00    +0.110 C 
ATOM      9  C   UNL     1      30.719 -24.587 -13.732  0.00  0.00    +0.252 C 
ATOM     10  N   UNL     1      30.581 -22.674 -16.788  0.00  0.00    -0.346 N 
ATOM     11  H   UNL     1      29.610 -22.578 -16.924  0.00  0.00    +0.143 HD
ATOM     12  H   UNL     1      31.210 -22.279 -17.434  0.00  0.00    +0.143 HD
ENDROOT
BRANCH   1  14
ATOM     13  O4* UNL     1      35.181 -24.034 -12.158  0.00  0.00    -0.333 OA
ATOM     14  C1* UNL     1      35.014 -24.921 -13.280  0.00  0.00    +0.227 C 
ATOM     15  C2* UNL     1      36.416 -25.286 -13.744  0.00  0.00    +0.187 C 
ATOM     16  C3* UNL     1      37.171 -25.312 -12.431  0.00  0.00    +0.171 C 
ATOM     17  C4* UNL     1      36.537 -24.153 -11.668  0.00  0.00    +0.175 C 
BRANCH  15  18
ATOM     18  O2* UNL     1      36.440 -26.526 -14.422  0.00  0.00    -0.378 OA
ATOM     19  H2* UNL     1      35.624 -27.015 -14.232  0.00  0.00    +0.211 HD
ENDBRANCH  15  18
BRANCH  16  20
ATOM     20  O3* UNL     1      36.886 -26.528 -11.741  0.00  0.00    -0.379 OA
ATOM     21  H3* UNL     1      36.898 -26.368 -10.784  0.00  0.00    +0.211 HD
ENDBRANCH  16  20
BRANCH  17  22
ATOM     22  C5* UNL     1      37.250 -22.828 -11.901  0.00  0.00    +0.169 C 
BRANCH  22  23
ATOM     23  O5* UNL     1      38.634 -23.010 -11.663  0.00  0.00    -0.379 OA
ATOM     24  H5* UNL     1      39.007 -22.198 -11.282  0.00  0.00    +0.211 HD
ENDBRANCH  22  23
ENDBRANCH  17  22
ENDBRANCH   1  14
TORSDOF 5
ENDMDL
MODEL 4
REMARK VINA RESULT:      -8.5      6.491      9.222
REMARK  Name = 6245
REMARK  5 active torsions:
REMARK  status: ('A' for Active; 'I' for Inactive)
REMARK    1  A    between atoms: N_1  and  C1*_11
REMARK    2  A    between atoms: C2*_12  and  O2*_15
REMARK    3  A    between atoms: C3*_13  and  O3*_17
REMARK    4  A    between atoms: C4*_14  and  C5*_19
REMARK    5  A    between atoms: C5*_19  and  O5*_20
REMARK                            x       y       z     vdW  Elec       q    Type
REMARK                         _______ _______ _______ _____ _____    ______ ____
ROOT
ATOM      1  N   UNL     1      34.217 -23.983 -14.626  0.00  0.00    -0.250 N 
ATOM      2  N   UNL     1      34.517 -23.317 -16.925  0.00  0.00    -0.233 NA
ATOM      3  N   UNL     1      32.443 -22.634 -18.000  0.00  0.00    -0.234 NA
ATOM      4  C   UNL     1      33.757 -23.529 -15.837  0.00  0.00    +0.122 C 
ATOM      5  C   UNL     1      33.162 -24.079 -13.750  0.00  0.00    +0.064 C 
ATOM      6  C   UNL     1      32.385 -23.331 -15.732  0.00  0.00    +0.131 C 
ATOM      7  C   UNL     1      32.017 -23.682 -14.408  0.00  0.00    +0.004 C 
ATOM      8  C   UNL     1      31.732 -22.866 -16.873  0.00  0.00    +0.110 C 
ATOM      9  C   UNL     1      33.773 -22.871 -17.957  0.00  0.00    +0.252 C 
ATOM     10  N   UNL     1      30.344 -22.635 -16.862  0.00  0.00    -0.346 N 
ATOM     11  H   UNL     1      29.893 -22.306 -17.673  0.00  0.00    +0.143 HD
ATOM     12  H   UNL     1      29.824 -22.802 -16.043  0.00  0.00    +0.143 HD
ENDROOT
BRANCH   1  14
ATOM     13  O4* UNL     1      35.646 -25.122 -13.113  0.00  0.00    -0.333 OA
ATOM     14  C1* UNL     1      35.603 -24.317 -14.307  0.00  0.00    +0.227 C 
ATOM     15  C2* UNL     1      36.484 -23.107 -14.033  0.00  0.00    +0.187 C 
ATOM     16  C3* UNL     1      37.564 -23.712 -13.159  0.00  0.00    +0.171 C 
ATOM     17  C4* UNL     1      36.776 -24.707 -12.312  0.00  0.00    +0.175 C 
BRANCH  15  18
ATOM     18  O2* UNL     1      36.989 -22.543 -15.226  0.00  0.00    -0.378 OA
ATOM     19  H2* UNL     1      37.402 -23.238 -15.764  0.00  0.00    +0.211 HD
ENDBRANCH  15  18
BRANCH  16  20
ATOM     20  O3* UNL     1      38.489 -24.431 -13.973  0.00  0.00    -0.379 OA
ATOM     21  H3* UNL     1      38.288 -24.272 -14.909  0.00  0.00    +0.211 HD
ENDBRANCH  16  20
BRANCH  17  22
ATOM     22  C5* UNL     1      36.251 -24.101 -11.018  0.00  0.00    +0.169 C 
BRANCH  22  23
ATOM     23  O5* UNL     1      35.289 -24.980 -10.463  0.00  0.00    -0.379 OA
ATOM     24  H5* UNL     1      34.719 -25.322 -11.170  0.00  0.00    +0.211 HD
ENDBRANCH  22  23
ENDBRANCH  17  22
ENDBRANCH   1  14
TORSDOF 5
ENDMDL
MODEL 5
REMARK VINA RESULT:      -8.4      6.660      9.243
REMARK  Name = 6245
REMARK  5 active torsions:
REMARK  status: ('A' for Active; 'I' for Inactive)
REMARK    1  A    between atoms: N_1  and  C1*_11
REMARK    2  A    between atoms: C2*_12  and  O2*_15
REMARK    3  A    between atoms: C3*_13  and  O3*_17
REMARK    4  A    between atoms: C4*_14  and  C5*_19
REMARK    5  A    between atoms: C5*_19  and  O5*_20
REMARK                            x       y       z     vdW  Elec       q    Type
REMARK                         _______ _______ _______ _____ _____    ______ ____
ROOT
ATOM      1  N   UNL     1      34.530 -23.700 -14.778  0.00  0.00    -0.250 N 
ATOM      2  N   UNL     1      34.653 -23.031 -17.092  0.00  0.00    -0.233 NA
ATOM      3  N   UNL     1      32.468 -22.615 -18.083  0.00  0.00    -0.234 NA
ATOM      4  C   UNL     1      33.969 -23.319 -15.971  0.00  0.00    +0.122 C 
ATOM      5  C   UNL     1      33.531 -23.911 -13.857  0.00  0.00    +0.064 C 
ATOM      6  C   UNL     1      32.589 -23.286 -15.810  0.00  0.00    +0.131 C 
ATOM      7  C   UNL     1      32.321 -23.661 -14.469  0.00  0.00    +0.004 C 
ATOM      8  C   UNL     1      31.838 -22.916 -16.925  0.00  0.00    +0.110 C 
ATOM      9  C   UNL     1      33.818 -22.690 -18.095  0.00  0.00    +0.252 C 
ATOM     10  N   UNL     1      30.434 -22.853 -16.856  0.00  0.00    -0.346 N 
ATOM     11  H   UNL     1      29.914 -22.590 -17.649  0.00  0.00    +0.143 HD
ATOM     12  H   UNL     1      29.973 -23.071 -16.014  0.00  0.00    +0.143 HD
ENDROOT
BRANCH   1  14
ATOM     13  O4* UNL     1      36.543 -24.712 -15.520  0.00  0.00    -0.333 OA
ATOM     14  C1* UNL     1      35.958 -23.861 -14.516  0.00  0.00    +0.227 C 
ATOM     15  C2* UNL     1      36.273 -24.510 -13.176  0.00  0.00    +0.187 C 
ATOM     16  C3* UNL     1      37.639 -25.108 -13.444  0.00  0.00    +0.171 C 
ATOM     17  C4* UNL     1      37.508 -25.584 -14.887  0.00  0.00    +0.175 C 
BRANCH  15  18
ATOM     18  O2* UNL     1      36.278 -23.567 -12.123  0.00  0.00    -0.378 OA
ATOM     19  H2* UNL     1      35.563 -23.772 -11.501  0.00  0.00    +0.211 HD
ENDBRANCH  15  18
BRANCH  16  20
ATOM     20  O3* UNL     1      38.629 -24.081 -13.387  0.00  0.00    -0.379 OA
ATOM     21  H3* UNL     1      38.763 -23.812 -12.464  0.00  0.00    +0.211 HD
ENDBRANCH  16  20
BRANCH  17  22
ATOM     22  C5* UNL     1      37.004 -27.017 -14.996  0.00  0.00    +0.169 C 
BRANCH  22  23
ATOM     23  O5* UNL     1      36.751 -27.307 -16.359  0.00  0.00    -0.379 OA
ATOM     24  H5* UNL     1      37.530 -27.733 -16.749  0.00  0.00    +0.211 HD
ENDBRANCH  22  23
ENDBRANCH  17  22
ENDBRANCH   1  14
TORSDOF 5
ENDMDL
MODEL 6
REMARK VINA RESULT:      -8.4      6.232      8.840
REMARK  Name = 6245
REMARK  5 active torsions:
REMARK  status: ('A' for Active; 'I' for Inactive)
REMARK    1  A    between atoms: N_1  and  C1*_11
REMARK    2  A    between atoms: C2*_12  and  O2*_15
REMARK    3  A    between atoms: C3*_13  and  O3*_17
REMARK    4  A    between atoms: C4*_14  and  C5*_19
REMARK    5  A    between atoms: C5*_19  and  O5*_20
REMARK                            x       y       z     vdW  Elec       q    Type
REMARK                         _______ _______ _______ _____ _____    ______ ____
ROOT
ATOM      1  N   UNL     1      35.503 -23.310 -15.721  0.00  0.00    -0.250 N 
ATOM      2  N   UNL     1      36.711 -22.123 -17.438  0.00  0.00    -0.233 NA
ATOM      3  N   UNL     1      35.328 -21.552 -19.359  0.00  0.00    -0.234 NA
ATOM      4  C   UNL     1      35.595 -22.680 -16.937  0.00  0.00    +0.122 C 
ATOM      5  C   UNL     1      34.216 -23.755 -15.541  0.00  0.00    +0.064 C 
ATOM      6  C   UNL     1      34.346 -22.725 -17.544  0.00  0.00    +0.131 C 
ATOM      7  C   UNL     1      33.479 -23.407 -16.653  0.00  0.00    +0.004 C 
ATOM      8  C   UNL     1      34.239 -22.129 -18.800  0.00  0.00    +0.110 C 
ATOM      9  C   UNL     1      36.481 -21.584 -18.653  0.00  0.00    +0.252 C 
ATOM     10  N   UNL     1      33.013 -22.124 -19.490  0.00  0.00    -0.346 N 
ATOM     11  H   UNL     1      32.949 -21.701 -20.377  0.00  0.00    +0.143 HD
ATOM     12  H   UNL     1      32.220 -22.543 -19.087  0.00  0.00    +0.143 HD
ENDROOT
BRANCH   1  14
ATOM     13  O4* UNL     1      37.569 -24.398 -15.301  0.00  0.00    -0.333 OA
ATOM     14  C1* UNL     1      36.592 -23.486 -14.763  0.00  0.00    +0.227 C 
ATOM     15  C2* UNL     1      36.155 -24.072 -13.429  0.00  0.00    +0.187 C 
ATOM     16  C3* UNL     1      37.441 -24.710 -12.944  0.00  0.00    +0.171 C 
ATOM     17  C4* UNL     1      38.040 -25.256 -14.236  0.00  0.00    +0.175 C 
BRANCH  15  18
ATOM     18  O2* UNL     1      35.665 -23.077 -12.553  0.00  0.00    -0.378 OA
ATOM     19  H2* UNL     1      34.924 -22.612 -12.972  0.00  0.00    +0.211 HD
ENDBRANCH  15  18
BRANCH  16  20
ATOM     20  O3* UNL     1      38.307 -23.702 -12.425  0.00  0.00    -0.379 OA
ATOM     21  H3* UNL     1      37.822 -22.864 -12.352  0.00  0.00    +0.211 HD
ENDBRANCH  16  20
BRANCH  17  22
ATOM     22  C5* UNL     1      37.601 -26.683 -14.538  0.00  0.00    +0.169 C 
BRANCH  22  23
ATOM     23  O5* UNL     1      37.186 -26.752 -15.891  0.00  0.00    -0.379 OA
ATOM     24  H5* UNL     1      36.688 -25.951 -16.118  0.00  0.00    +0.211 HD
ENDBRANCH  22  23
ENDBRANCH  17  22
ENDBRANCH   1  14
TORSDOF 5
ENDMDL
MODEL 7
REMARK VINA RESULT:      -8.2      6.058      8.488
REMARK  Name = 6245
REMARK  5 active torsions:
REMARK  status: ('A' for Active; 'I' for Inactive)
REMARK    1  A    between atoms: N_1  and  C1*_11
REMARK    2  A    between atoms: C2*_12  and  O2*_15
REMARK    3  A    between atoms: C3*_13  and  O3*_17
REMARK    4  A    between atoms: C4*_14  and  C5*_19
REMARK    5  A    between atoms: C5*_19  and  O5*_20
REMARK                            x       y       z     vdW  Elec       q    Type
REMARK                         _______ _______ _______ _____ _____    ______ ____
ROOT
ATOM      1  N   UNL     1      34.061 -24.008 -14.550  0.00  0.00    -0.250 N 
ATOM      2  N   UNL     1      34.416 -23.351 -16.843  0.00  0.00    -0.233 NA
ATOM      3  N   UNL     1      32.371 -22.649 -17.963  0.00  0.00    -0.234 NA
ATOM      4  C   UNL     1      33.631 -23.553 -15.771  0.00  0.00    +0.122 C 
ATOM      5  C   UNL     1      32.987 -24.092 -13.696  0.00  0.00    +0.064 C 
ATOM      6  C   UNL     1      32.259 -23.340 -15.695  0.00  0.00    +0.131 C 
ATOM      7  C   UNL     1      31.860 -23.684 -14.379  0.00  0.00    +0.004 C 
ATOM      8  C   UNL     1      31.635 -22.871 -16.851  0.00  0.00    +0.110 C 
ATOM      9  C   UNL     1      33.698 -22.900 -17.892  0.00  0.00    +0.252 C 
ATOM     10  N   UNL     1      30.250 -22.626 -16.869  0.00  0.00    -0.346 N 
ATOM     11  H   UNL     1      29.819 -22.295 -17.690  0.00  0.00    +0.143 HD
ATOM     12  H   UNL     1      29.711 -22.786 -16.061  0.00  0.00    +0.143 HD
ENDROOT
BRANCH   1  14
ATOM     13  O4* UNL     1      36.249 -23.166 -14.194  0.00  0.00    -0.333 OA
ATOM     14  C1* UNL     1      35.436 -24.355 -14.201  0.00  0.00    +0.227 C 
ATOM     15  C2* UNL     1      36.100 -25.316 -15.176  0.00  0.00    +0.187 C 
ATOM     16  C3* UNL     1      37.565 -24.993 -14.968  0.00  0.00    +0.171 C 
ATOM     17  C4* UNL     1      37.540 -23.481 -14.767  0.00  0.00    +0.175 C 
BRANCH  15  18
ATOM     18  O2* UNL     1      35.783 -26.662 -14.886  0.00  0.00    -0.378 OA
ATOM     19  H2* UNL     1      34.968 -26.697 -14.361  0.00  0.00    +0.211 HD
ENDBRANCH  15  18
BRANCH  16  20
ATOM     20  O3* UNL     1      38.023 -25.609 -13.765  0.00  0.00    -0.379 OA
ATOM     21  H3* UNL     1      37.693 -26.521 -13.722  0.00  0.00    +0.211 HD
ENDBRANCH  16  20
BRANCH  17  22
ATOM     22  C5* UNL     1      37.690 -22.706 -16.069  0.00  0.00    +0.169 C 
BRANCH  22  23
ATOM     23  O5* UNL     1      36.823 -21.587 -16.033  0.00  0.00    -0.379 OA
ATOM     24  H5* UNL     1      36.570 -21.344 -16.937  0.00  0.00    +0.211 HD
ENDBRANCH  22  23
ENDBRANCH  17  22
ENDBRANCH   1  14
TORSDOF 5
ENDMDL
MODEL 8
REMARK VINA RESULT:      -8.2      7.534      9.760
REMARK  Name = 6245
REMARK  5 active torsions:
REMARK  status: ('A' for Active; 'I' for Inactive)
REMARK    1  A    between atoms: N_1  and  C1*_11
REMARK    2  A    between atoms: C2*_12  and  O2*_15
REMARK    3  A    between atoms: C3*_13  and  O3*_17
REMARK    4  A    between atoms: C4*_14  and  C5*_19
REMARK    5  A    between atoms: C5*_19  and  O5*_20
REMARK                            x       y       z     vdW  Elec       q    Type
REMARK                         _______ _______ _______ _____ _____    ______ ____
ROOT
ATOM      1  N   UNL     1      35.037 -23.402 -14.495  0.00  0.00    -0.250 N 
ATOM      2  N   UNL     1      32.972 -23.536 -13.255  0.00  0.00    -0.233 NA
ATOM      3  N   UNL     1      30.997 -23.323 -14.663  0.00  0.00    -0.234 NA
ATOM      4  C   UNL     1      33.668 -23.395 -14.397  0.00  0.00    +0.122 C 
ATOM      5  C   UNL     1      35.395 -23.235 -15.812  0.00  0.00    +0.064 C 
ATOM      6  C   UNL     1      33.143 -23.221 -15.672  0.00  0.00    +0.131 C 
ATOM      7  C   UNL     1      34.243 -23.121 -16.561  0.00  0.00    +0.004 C 
ATOM      8  C   UNL     1      31.753 -23.189 -15.777  0.00  0.00    +0.110 C 
ATOM      9  C   UNL     1      31.645 -23.486 -13.487  0.00  0.00    +0.252 C 
ATOM     10  N   UNL     1      31.131 -23.018 -17.027  0.00  0.00    -0.346 N 
ATOM     11  H   UNL     1      30.149 -22.996 -17.089  0.00  0.00    +0.143 HD
ATOM     12  H   UNL     1      31.678 -22.920 -17.839  0.00  0.00    +0.143 HD
ENDROOT
BRANCH   1  14
ATOM     13  O4* UNL     1      37.314 -23.291 -13.841  0.00  0.00    -0.333 OA
ATOM     14  C1* UNL     1      35.974 -23.559 -13.386  0.00  0.00    +0.227 C 
ATOM     15  C2* UNL     1      36.002 -24.959 -12.791  0.00  0.00    +0.187 C 
ATOM     16  C3* UNL     1      37.392 -25.005 -12.190  0.00  0.00    +0.171 C 
ATOM     17  C4* UNL     1      38.216 -24.236 -13.218  0.00  0.00    +0.175 C 
BRANCH  15  18
ATOM     18  O2* UNL     1      34.979 -25.145 -11.834  0.00  0.00    -0.378 OA
ATOM     19  H2* UNL     1      35.274 -25.779 -11.162  0.00  0.00    +0.211 HD
ENDBRANCH  15  18
BRANCH  16  20
ATOM     20  O3* UNL     1      37.403 -24.284 -10.959  0.00  0.00    -0.379 OA
ATOM     21  H3* UNL     1      38.318 -24.174 -10.656  0.00  0.00    +0.211 HD
ENDBRANCH  16  20
BRANCH  17  22
ATOM     22  C5* UNL     1      38.798 -25.132 -14.304  0.00  0.00    +0.169 C 
BRANCH  22  23
ATOM     23  O5* UNL     1      39.141 -24.328 -15.418  0.00  0.00    -0.379 OA
ATOM     24  H5* UNL     1      39.241 -24.890 -16.203  0.00  0.00    +0.211 HD
ENDBRANCH  22  23
ENDBRANCH  17  22
ENDBRANCH   1  14
TORSDOF 5
ENDMDL
MODEL 9
REMARK VINA RESULT:      -8.2      1.039      2.051
REMARK  Name = 6245
REMARK  5 active torsions:
REMARK  status: ('A' for Active; 'I' for Inactive)
REMARK    1  A    between atoms: N_1  and  C1*_11
REMARK    2  A    between atoms: C2*_12  and  O2*_15
REMARK    3  A    between atoms: C3*_13  and  O3*_17
REMARK    4  A    between atoms: C4*_14  and  C5*_19
REMARK    5  A    between atoms: C5*_19  and  O5*_20
REMARK                            x       y       z     vdW  Elec       q    Type
REMARK                         _______ _______ _______ _____ _____    ______ ____
ROOT
ATOM      1  N   UNL     1      35.748 -19.092 -20.973  0.00  0.00    -0.250 N 
ATOM      2  N   UNL     1      33.373 -19.500 -20.885  0.00  0.00    -0.233 NA
ATOM      3  N   UNL     1      32.796 -21.531 -19.673  0.00  0.00    -0.234 NA
ATOM      4  C   UNL     1      34.646 -19.821 -20.600  0.00  0.00    +0.122 C 
ATOM      5  C   UNL     1      36.881 -19.718 -20.509  0.00  0.00    +0.064 C 
ATOM      6  C   UNL     1      35.082 -20.930 -19.886  0.00  0.00    +0.131 C 
ATOM      7  C   UNL     1      36.497 -20.857 -19.833  0.00  0.00    +0.004 C 
ATOM      8  C   UNL     1      34.097 -21.799 -19.417  0.00  0.00    +0.110 C 
ATOM      9  C   UNL     1      32.518 -20.413 -20.381  0.00  0.00    +0.252 C 
ATOM     10  N   UNL     1      34.443 -22.948 -18.684  0.00  0.00    -0.346 N 
ATOM     11  H   UNL     1      33.739 -23.555 -18.358  0.00  0.00    +0.143 HD
ATOM     12  H   UNL     1      35.389 -23.146 -18.496  0.00  0.00    +0.143 HD
ENDROOT
BRANCH   1  14
ATOM     13  O4* UNL     1      35.317 -16.761 -20.895  0.00  0.00    -0.333 OA
ATOM     14  C1* UNL     1      35.734 -17.849 -21.741  0.00  0.00    +0.227 C 
ATOM     15  C2* UNL     1      34.773 -17.861 -22.920  0.00  0.00    +0.187 C 
ATOM     16  C3* UNL     1      34.494 -16.382 -23.097  0.00  0.00    +0.171 C 
ATOM     17  C4* UNL     1      34.452 -15.885 -21.655  0.00  0.00    +0.175 C 
BRANCH  15  18
ATOM     18  O2* UNL     1      35.351 -18.456 -24.064  0.00  0.00    -0.378 OA
ATOM     19  H2* UNL     1      36.230 -18.800 -23.841  0.00  0.00    +0.211 HD
ENDBRANCH  15  18
BRANCH  16  20
ATOM     20  O3* UNL     1      35.594 -15.766 -23.764  0.00  0.00    -0.379 OA
ATOM     21  H3* UNL     1      36.391 -15.844 -23.215  0.00  0.00    +0.211 HD
ENDBRANCH  16  20
BRANCH  17  22
ATOM     22  C5* UNL     1      33.057 -15.942 -21.048  0.00  0.00    +0.169 C 
BRANCH  22  23
ATOM     23  O5* UNL     1      32.239 -14.989 -21.701  0.00  0.00    -0.379 OA
ATOM     24  H5* UNL     1      31.659 -14.561 -21.052  0.00  0.00    +0.211 HD
ENDBRANCH  22  23
ENDBRANCH  17  22
ENDBRANCH   1  14
TORSDOF 5
ENDMDL
