MODEL 1
REMARK VINA RESULT:      -5.3      0.000      0.000
REMARK  Name = 4634038
REMARK  11 active torsions:
REMARK  status: ('A' for Active; 'I' for Inactive)
REMARK    1  A    between atoms: C_1  and  C_2
REMARK    2  A    between atoms: C_1  and  C_9
REMARK    3  A    between atoms: C_2  and  C_3
REMARK    4  A    between atoms: C_3  and  C_4
REMARK    5  A    between atoms: C_4  and  C_5
REMARK    6  A    between atoms: C_5  and  C_6
REMARK    7  A    between atoms: C_6  and  O_7
REMARK    8  A    between atoms: C_9  and  C_10
REMARK    9  A    between atoms: C_10  and  N_11
REMARK   10  A    between atoms: N_11  and  C_14
REMARK   11  A    between atoms: C_14  and  O_15
REMARK                            x       y       z     vdW  Elec       q    Type
REMARK                         _______ _______ _______ _____ _____    ______ ____
ROOT
ATOM      1  C   UNL     1      33.885 -19.081 -21.131  0.00  0.00    -0.002 C 
ENDROOT
BRANCH   1   2
ATOM      2  C   UNL     1      35.304 -18.533 -21.295  0.00  0.00    -0.000 C 
BRANCH   2   3
ATOM      3  C   UNL     1      35.704 -18.307 -22.756  0.00  0.00    +0.000 C 
BRANCH   3   4
ATOM      4  C   UNL     1      35.071 -19.311 -23.723  0.00  0.00    +0.003 C 
BRANCH   4   5
ATOM      5  C   UNL     1      34.314 -18.595 -24.846  0.00  0.00    +0.032 C 
BRANCH   5   6
ATOM      6  C   UNL     1      34.405 -17.078 -24.728  0.00  0.00    +0.137 C 
BRANCH   6   7
ATOM      7  O   UNL     1      34.813 -16.518 -25.967  0.00  0.00    -0.382 OA
ATOM      8  H   UNL     1      34.500 -17.078 -26.694  0.00  0.00    +0.210 HD
ENDBRANCH   6   7
ENDBRANCH   5   6
ENDBRANCH   4   5
ENDBRANCH   3   4
ENDBRANCH   2   3
ENDBRANCH   1   2
BRANCH   1   9
ATOM      9  C   UNL     1      33.891 -20.413 -20.373  0.00  0.00    -0.023 C 
BRANCH   9  10
ATOM     10  C   UNL     1      35.292 -20.854 -19.944  0.00  0.00    -0.078 C 
BRANCH  10  11
ATOM     11  N   UNL     1      35.249 -21.956 -18.989  0.00  0.00    +0.401 N 
ATOM     12  H   UNL     1      35.501 -21.606 -18.065  0.00  0.00    -0.081 HD
ATOM     13  H   UNL     1      35.906 -22.674 -19.292  0.00  0.00    -0.081 HD
BRANCH  11  14
ATOM     14  C   UNL     1      33.916 -22.543 -18.930  0.00  0.00    +0.062 C 
BRANCH  14  15
ATOM     15  O   UNL     1      33.912 -23.863 -19.462  0.00  0.00    -0.405 OA
ATOM     16  H   UNL     1      34.825 -24.172 -19.568  0.00  0.00    +0.208 HD
ENDBRANCH  14  15
ENDBRANCH  11  14
ENDBRANCH  10  11
ENDBRANCH   9  10
ENDBRANCH   1   9
TORSDOF 11
ENDMDL
MODEL 2
REMARK VINA RESULT:      -5.3      2.882      6.602
REMARK  Name = 4634038
REMARK  11 active torsions:
REMARK  status: ('A' for Active; 'I' for Inactive)
REMARK    1  A    between atoms: C_1  and  C_2
REMARK    2  A    between atoms: C_1  and  C_9
REMARK    3  A    between atoms: C_2  and  C_3
REMARK    4  A    between atoms: C_3  and  C_4
REMARK    5  A    between atoms: C_4  and  C_5
REMARK    6  A    between atoms: C_5  and  C_6
REMARK    7  A    between atoms: C_6  and  O_7
REMARK    8  A    between atoms: C_9  and  C_10
REMARK    9  A    between atoms: C_10  and  N_11
REMARK   10  A    between atoms: N_11  and  C_14
REMARK   11  A    between atoms: C_14  and  O_15
REMARK                            x       y       z     vdW  Elec       q    Type
REMARK                         _______ _______ _______ _____ _____    ______ ____
ROOT
ATOM      1  C   UNL     1      34.330 -18.669 -21.383  0.00  0.00    -0.002 C 
ENDROOT
BRANCH   1   2
ATOM      2  C   UNL     1      35.021 -19.912 -20.815  0.00  0.00    -0.000 C 
BRANCH   2   3
ATOM      3  C   UNL     1      34.073 -20.839 -20.050  0.00  0.00    +0.000 C 
BRANCH   3   4
ATOM      4  C   UNL     1      34.798 -21.875 -19.188  0.00  0.00    +0.003 C 
BRANCH   4   5
ATOM      5  C   UNL     1      36.261 -21.481 -18.964  0.00  0.00    +0.032 C 
BRANCH   5   6
ATOM      6  C   UNL     1      36.731 -21.789 -17.547  0.00  0.00    +0.137 C 
BRANCH   6   7
ATOM      7  O   UNL     1      37.362 -20.648 -16.986  0.00  0.00    -0.382 OA
ATOM      8  H   UNL     1      38.321 -20.789 -16.957  0.00  0.00    +0.210 HD
ENDBRANCH   6   7
ENDBRANCH   5   6
ENDBRANCH   4   5
ENDBRANCH   3   4
ENDBRANCH   2   3
ENDBRANCH   1   2
BRANCH   1   9
ATOM      9  C   UNL     1      35.187 -17.416 -21.172  0.00  0.00    -0.023 C 
BRANCH   9  10
ATOM     10  C   UNL     1      34.853 -16.287 -22.149  0.00  0.00    -0.078 C 
BRANCH  10  11
ATOM     11  N   UNL     1      35.417 -16.526 -23.472  0.00  0.00    +0.401 N 
ATOM     12  H   UNL     1      35.861 -17.444 -23.485  0.00  0.00    -0.081 HD
ATOM     13  H   UNL     1      36.100 -15.795 -23.671  0.00  0.00    -0.081 HD
BRANCH  11  14
ATOM     14  C   UNL     1      34.381 -16.483 -24.497  0.00  0.00    +0.062 C 
BRANCH  14  15
ATOM     15  O   UNL     1      34.925 -16.730 -25.789  0.00  0.00    -0.405 OA
ATOM     16  H   UNL     1      35.581 -16.047 -25.999  0.00  0.00    +0.208 HD
ENDBRANCH  14  15
ENDBRANCH  11  14
ENDBRANCH  10  11
ENDBRANCH   9  10
ENDBRANCH   1   9
TORSDOF 11
ENDMDL
MODEL 3
REMARK VINA RESULT:      -5.3      2.492      6.396
REMARK  Name = 4634038
REMARK  11 active torsions:
REMARK  status: ('A' for Active; 'I' for Inactive)
REMARK    1  A    between atoms: C_1  and  C_2
REMARK    2  A    between atoms: C_1  and  C_9
REMARK    3  A    between atoms: C_2  and  C_3
REMARK    4  A    between atoms: C_3  and  C_4
REMARK    5  A    between atoms: C_4  and  C_5
REMARK    6  A    between atoms: C_5  and  C_6
REMARK    7  A    between atoms: C_6  and  O_7
REMARK    8  A    between atoms: C_9  and  C_10
REMARK    9  A    between atoms: C_10  and  N_11
REMARK   10  A    between atoms: N_11  and  C_14
REMARK   11  A    between atoms: C_14  and  O_15
REMARK                            x       y       z     vdW  Elec       q    Type
REMARK                         _______ _______ _______ _____ _____    ______ ____
ROOT
ATOM      1  C   UNL     1      35.587 -18.478 -21.793  0.00  0.00    -0.002 C 
ENDROOT
BRANCH   1   2
ATOM      2  C   UNL     1      35.087 -19.627 -20.914  0.00  0.00    -0.000 C 
BRANCH   2   3
ATOM      3  C   UNL     1      33.565 -19.795 -20.940  0.00  0.00    +0.000 C 
BRANCH   3   4
ATOM      4  C   UNL     1      33.034 -20.709 -19.832  0.00  0.00    +0.003 C 
BRANCH   4   5
ATOM      5  C   UNL     1      34.034 -21.824 -19.509  0.00  0.00    +0.032 C 
BRANCH   5   6
ATOM      6  C   UNL     1      33.612 -22.644 -18.296  0.00  0.00    +0.137 C 
BRANCH   6   7
ATOM      7  O   UNL     1      32.218 -22.496 -18.071  0.00  0.00    -0.382 OA
ATOM      8  H   UNL     1      32.067 -21.782 -17.432  0.00  0.00    +0.210 HD
ENDBRANCH   6   7
ENDBRANCH   5   6
ENDBRANCH   4   5
ENDBRANCH   3   4
ENDBRANCH   2   3
ENDBRANCH   1   2
BRANCH   1   9
ATOM      9  C   UNL     1      34.893 -17.161 -21.430  0.00  0.00    -0.023 C 
BRANCH   9  10
ATOM     10  C   UNL     1      34.867 -16.157 -22.584  0.00  0.00    -0.078 C 
BRANCH  10  11
ATOM     11  N   UNL     1      35.499 -16.689 -23.785  0.00  0.00    +0.401 N 
ATOM     12  H   UNL     1      35.733 -17.669 -23.632  0.00  0.00    -0.081 HD
ATOM     13  H   UNL     1      36.340 -16.146 -23.978  0.00  0.00    -0.081 HD
BRANCH  11  14
ATOM     14  C   UNL     1      34.607 -16.585 -24.934  0.00  0.00    +0.062 C 
BRANCH  14  15
ATOM     15  O   UNL     1      34.384 -17.859 -25.528  0.00  0.00    -0.405 OA
ATOM     16  H   UNL     1      35.198 -18.384 -25.482  0.00  0.00    +0.208 HD
ENDBRANCH  14  15
ENDBRANCH  11  14
ENDBRANCH  10  11
ENDBRANCH   9  10
ENDBRANCH   1   9
TORSDOF 11
ENDMDL
MODEL 4
REMARK VINA RESULT:      -5.3      4.046      5.915
REMARK  Name = 4634038
REMARK  11 active torsions:
REMARK  status: ('A' for Active; 'I' for Inactive)
REMARK    1  A    between atoms: C_1  and  C_2
REMARK    2  A    between atoms: C_1  and  C_9
REMARK    3  A    between atoms: C_2  and  C_3
REMARK    4  A    between atoms: C_3  and  C_4
REMARK    5  A    between atoms: C_4  and  C_5
REMARK    6  A    between atoms: C_5  and  C_6
REMARK    7  A    between atoms: C_6  and  O_7
REMARK    8  A    between atoms: C_9  and  C_10
REMARK    9  A    between atoms: C_10  and  N_11
REMARK   10  A    between atoms: N_11  and  C_14
REMARK   11  A    between atoms: C_14  and  O_15
REMARK                            x       y       z     vdW  Elec       q    Type
REMARK                         _______ _______ _______ _____ _____    ______ ____
ROOT
ATOM      1  C   UNL     1      34.270 -15.673 -20.850  0.00  0.00    -0.002 C 
ENDROOT
BRANCH   1   2
ATOM      2  C   UNL     1      35.025 -16.898 -21.372  0.00  0.00    -0.000 C 
BRANCH   2   3
ATOM      3  C   UNL     1      34.237 -18.204 -21.234  0.00  0.00    +0.000 C 
BRANCH   3   4
ATOM      4  C   UNL     1      34.591 -19.244 -22.300  0.00  0.00    +0.003 C 
BRANCH   4   5
ATOM      5  C   UNL     1      35.233 -18.585 -23.525  0.00  0.00    +0.032 C 
BRANCH   5   6
ATOM      6  C   UNL     1      34.420 -18.811 -24.794  0.00  0.00    +0.137 C 
BRANCH   6   7
ATOM      7  O   UNL     1      34.624 -17.736 -25.699  0.00  0.00    -0.382 OA
ATOM      8  H   UNL     1      33.882 -17.116 -25.637  0.00  0.00    +0.210 HD
ENDBRANCH   6   7
ENDBRANCH   5   6
ENDBRANCH   4   5
ENDBRANCH   3   4
ENDBRANCH   2   3
ENDBRANCH   1   2
BRANCH   1   9
ATOM      9  C   UNL     1      33.283 -15.145 -21.897  0.00  0.00    -0.023 C 
BRANCH   9  10
ATOM     10  C   UNL     1      33.969 -14.638 -23.168  0.00  0.00    -0.078 C 
BRANCH  10  11
ATOM     11  N   UNL     1      33.580 -15.409 -24.342  0.00  0.00    +0.401 N 
ATOM     12  H   UNL     1      32.780 -15.996 -24.106  0.00  0.00    -0.081 HD
ATOM     13  H   UNL     1      34.372 -15.983 -24.631  0.00  0.00    -0.081 HD
BRANCH  11  14
ATOM     14  C   UNL     1      33.217 -14.531 -25.447  0.00  0.00    +0.062 C 
BRANCH  14  15
ATOM     15  O   UNL     1      33.497 -15.140 -26.702  0.00  0.00    -0.405 OA
ATOM     16  H   UNL     1      34.457 -15.182 -26.834  0.00  0.00    +0.208 HD
ENDBRANCH  14  15
ENDBRANCH  11  14
ENDBRANCH  10  11
ENDBRANCH   9  10
ENDBRANCH   1   9
TORSDOF 11
ENDMDL
MODEL 5
REMARK VINA RESULT:      -5.3      2.626      6.458
REMARK  Name = 4634038
REMARK  11 active torsions:
REMARK  status: ('A' for Active; 'I' for Inactive)
REMARK    1  A    between atoms: C_1  and  C_2
REMARK    2  A    between atoms: C_1  and  C_9
REMARK    3  A    between atoms: C_2  and  C_3
REMARK    4  A    between atoms: C_3  and  C_4
REMARK    5  A    between atoms: C_4  and  C_5
REMARK    6  A    between atoms: C_5  and  C_6
REMARK    7  A    between atoms: C_6  and  O_7
REMARK    8  A    between atoms: C_9  and  C_10
REMARK    9  A    between atoms: C_10  and  N_11
REMARK   10  A    between atoms: N_11  and  C_14
REMARK   11  A    between atoms: C_14  and  O_15
REMARK                            x       y       z     vdW  Elec       q    Type
REMARK                         _______ _______ _______ _____ _____    ______ ____
ROOT
ATOM      1  C   UNL     1      35.934 -18.537 -22.299  0.00  0.00    -0.002 C 
ENDROOT
BRANCH   1   2
ATOM      2  C   UNL     1      35.320 -19.201 -21.064  0.00  0.00    -0.000 C 
BRANCH   2   3
ATOM      3  C   UNL     1      33.790 -19.248 -21.095  0.00  0.00    +0.000 C 
BRANCH   3   4
ATOM      4  C   UNL     1      33.204 -20.463 -20.371  0.00  0.00    +0.003 C 
BRANCH   4   5
ATOM      5  C   UNL     1      34.297 -21.260 -19.654  0.00  0.00    +0.032 C 
BRANCH   5   6
ATOM      6  C   UNL     1      33.764 -22.551 -19.043  0.00  0.00    +0.137 C 
BRANCH   6   7
ATOM      7  O   UNL     1      32.511 -22.311 -18.419  0.00  0.00    -0.382 OA
ATOM      8  H   UNL     1      31.844 -22.908 -18.793  0.00  0.00    +0.210 HD
ENDBRANCH   6   7
ENDBRANCH   5   6
ENDBRANCH   4   5
ENDBRANCH   3   4
ENDBRANCH   2   3
ENDBRANCH   1   2
BRANCH   1   9
ATOM      9  C   UNL     1      35.028 -18.704 -23.523  0.00  0.00    -0.023 C 
BRANCH   9  10
ATOM     10  C   UNL     1      34.812 -17.400 -24.295  0.00  0.00    -0.078 C 
BRANCH  10  11
ATOM     11  N   UNL     1      35.391 -16.255 -23.602  0.00  0.00    +0.401 N 
ATOM     12  H   UNL     1      35.958 -15.720 -24.259  0.00  0.00    -0.081 HD
ATOM     13  H   UNL     1      35.964 -16.598 -22.831  0.00  0.00    -0.081 HD
BRANCH  11  14
ATOM     14  C   UNL     1      34.349 -15.393 -23.057  0.00  0.00    +0.062 C 
BRANCH  14  15
ATOM     15  O   UNL     1      34.733 -14.024 -23.113  0.00  0.00    -0.405 OA
ATOM     16  H   UNL     1      35.043 -13.811 -24.007  0.00  0.00    +0.208 HD
ENDBRANCH  14  15
ENDBRANCH  11  14
ENDBRANCH  10  11
ENDBRANCH   9  10
ENDBRANCH   1   9
TORSDOF 11
ENDMDL
MODEL 6
REMARK VINA RESULT:      -5.2      2.181      6.806
REMARK  Name = 4634038
REMARK  11 active torsions:
REMARK  status: ('A' for Active; 'I' for Inactive)
REMARK    1  A    between atoms: C_1  and  C_2
REMARK    2  A    between atoms: C_1  and  C_9
REMARK    3  A    between atoms: C_2  and  C_3
REMARK    4  A    between atoms: C_3  and  C_4
REMARK    5  A    between atoms: C_4  and  C_5
REMARK    6  A    between atoms: C_5  and  C_6
REMARK    7  A    between atoms: C_6  and  O_7
REMARK    8  A    between atoms: C_9  and  C_10
REMARK    9  A    between atoms: C_10  and  N_11
REMARK   10  A    between atoms: N_11  and  C_14
REMARK   11  A    between atoms: C_14  and  O_15
REMARK                            x       y       z     vdW  Elec       q    Type
REMARK                         _______ _______ _______ _____ _____    ______ ____
ROOT
ATOM      1  C   UNL     1      33.593 -19.315 -21.374  0.00  0.00    -0.002 C 
ENDROOT
BRANCH   1   2
ATOM      2  C   UNL     1      33.460 -20.417 -20.319  0.00  0.00    -0.000 C 
BRANCH   2   3
ATOM      3  C   UNL     1      34.804 -20.989 -19.863  0.00  0.00    +0.000 C 
BRANCH   3   4
ATOM      4  C   UNL     1      34.686 -22.356 -19.183  0.00  0.00    +0.003 C 
BRANCH   4   5
ATOM      5  C   UNL     1      33.338 -22.504 -18.471  0.00  0.00    +0.032 C 
BRANCH   5   6
ATOM      6  C   UNL     1      33.464 -23.245 -17.146  0.00  0.00    +0.137 C 
BRANCH   6   7
ATOM      7  O   UNL     1      34.834 -23.411 -16.810  0.00  0.00    -0.382 OA
ATOM      8  H   UNL     1      35.200 -24.158 -17.307  0.00  0.00    +0.210 HD
ENDBRANCH   6   7
ENDBRANCH   5   6
ENDBRANCH   4   5
ENDBRANCH   3   4
ENDBRANCH   2   3
ENDBRANCH   1   2
BRANCH   1   9
ATOM      9  C   UNL     1      34.973 -19.353 -22.040  0.00  0.00    -0.023 C 
BRANCH   9  10
ATOM     10  C   UNL     1      34.950 -18.886 -23.497  0.00  0.00    -0.078 C 
BRANCH  10  11
ATOM     11  N   UNL     1      35.611 -17.597 -23.666  0.00  0.00    +0.401 N 
ATOM     12  H   UNL     1      36.487 -17.735 -24.168  0.00  0.00    -0.081 HD
ATOM     13  H   UNL     1      35.785 -17.197 -22.745  0.00  0.00    -0.081 HD
BRANCH  11  14
ATOM     14  C   UNL     1      34.770 -16.674 -24.420  0.00  0.00    +0.062 C 
BRANCH  14  15
ATOM     15  O   UNL     1      34.805 -16.966 -25.812  0.00  0.00    -0.405 OA
ATOM     16  H   UNL     1      34.677 -17.919 -25.946  0.00  0.00    +0.208 HD
ENDBRANCH  14  15
ENDBRANCH  11  14
ENDBRANCH  10  11
ENDBRANCH   9  10
ENDBRANCH   1   9
TORSDOF 11
ENDMDL
MODEL 7
REMARK VINA RESULT:      -5.2      2.150      2.618
REMARK  Name = 4634038
REMARK  11 active torsions:
REMARK  status: ('A' for Active; 'I' for Inactive)
REMARK    1  A    between atoms: C_1  and  C_2
REMARK    2  A    between atoms: C_1  and  C_9
REMARK    3  A    between atoms: C_2  and  C_3
REMARK    4  A    between atoms: C_3  and  C_4
REMARK    5  A    between atoms: C_4  and  C_5
REMARK    6  A    between atoms: C_5  and  C_6
REMARK    7  A    between atoms: C_6  and  O_7
REMARK    8  A    between atoms: C_9  and  C_10
REMARK    9  A    between atoms: C_10  and  N_11
REMARK   10  A    between atoms: N_11  and  C_14
REMARK   11  A    between atoms: C_14  and  O_15
REMARK                            x       y       z     vdW  Elec       q    Type
REMARK                         _______ _______ _______ _____ _____    ______ ____
ROOT
ATOM      1  C   UNL     1      34.572 -19.253 -22.206  0.00  0.00    -0.002 C 
ENDROOT
BRANCH   1   2
ATOM      2  C   UNL     1      35.371 -17.949 -22.136  0.00  0.00    -0.000 C 
BRANCH   2   3
ATOM      3  C   UNL     1      34.983 -17.061 -20.950  0.00  0.00    +0.000 C 
BRANCH   3   4
ATOM      4  C   UNL     1      34.651 -15.621 -21.351  0.00  0.00    +0.003 C 
BRANCH   4   5
ATOM      5  C   UNL     1      34.654 -15.456 -22.874  0.00  0.00    +0.032 C 
BRANCH   5   6
ATOM      6  C   UNL     1      33.624 -14.437 -23.346  0.00  0.00    +0.137 C 
BRANCH   6   7
ATOM      7  O   UNL     1      34.257 -13.194 -23.610  0.00  0.00    -0.382 OA
ATOM      8  H   UNL     1      34.589 -13.186 -24.521  0.00  0.00    +0.210 HD
ENDBRANCH   6   7
ENDBRANCH   5   6
ENDBRANCH   4   5
ENDBRANCH   3   4
ENDBRANCH   2   3
ENDBRANCH   1   2
BRANCH   1   9
ATOM      9  C   UNL     1      34.427 -19.887 -20.818  0.00  0.00    -0.023 C 
BRANCH   9  10
ATOM     10  C   UNL     1      32.974 -20.184 -20.441  0.00  0.00    -0.078 C 
BRANCH  10  11
ATOM     11  N   UNL     1      32.808 -21.542 -19.937  0.00  0.00    +0.401 N 
ATOM     12  H   UNL     1      32.483 -22.142 -20.694  0.00  0.00    -0.081 HD
ATOM     13  H   UNL     1      32.129 -21.525 -19.176  0.00  0.00    -0.081 HD
BRANCH  11  14
ATOM     14  C   UNL     1      34.068 -22.065 -19.421  0.00  0.00    +0.062 C 
BRANCH  14  15
ATOM     15  O   UNL     1      34.043 -23.486 -19.347  0.00  0.00    -0.405 OA
ATOM     16  H   UNL     1      34.728 -23.789 -18.732  0.00  0.00    +0.208 HD
ENDBRANCH  14  15
ENDBRANCH  11  14
ENDBRANCH  10  11
ENDBRANCH   9  10
ENDBRANCH   1   9
TORSDOF 11
ENDMDL
MODEL 8
REMARK VINA RESULT:      -5.1      3.298      4.598
REMARK  Name = 4634038
REMARK  11 active torsions:
REMARK  status: ('A' for Active; 'I' for Inactive)
REMARK    1  A    between atoms: C_1  and  C_2
REMARK    2  A    between atoms: C_1  and  C_9
REMARK    3  A    between atoms: C_2  and  C_3
REMARK    4  A    between atoms: C_3  and  C_4
REMARK    5  A    between atoms: C_4  and  C_5
REMARK    6  A    between atoms: C_5  and  C_6
REMARK    7  A    between atoms: C_6  and  O_7
REMARK    8  A    between atoms: C_9  and  C_10
REMARK    9  A    between atoms: C_10  and  N_11
REMARK   10  A    between atoms: N_11  and  C_14
REMARK   11  A    between atoms: C_14  and  O_15
REMARK                            x       y       z     vdW  Elec       q    Type
REMARK                         _______ _______ _______ _____ _____    ______ ____
ROOT
ATOM      1  C   UNL     1      33.235 -22.383 -18.550  0.00  0.00    -0.002 C 
ENDROOT
BRANCH   1   2
ATOM      2  C   UNL     1      34.562 -22.406 -19.313  0.00  0.00    -0.000 C 
BRANCH   2   3
ATOM      3  C   UNL     1      34.985 -21.033 -19.842  0.00  0.00    +0.000 C 
BRANCH   3   4
ATOM      4  C   UNL     1      33.833 -20.239 -20.464  0.00  0.00    +0.003 C 
BRANCH   4   5
ATOM      5  C   UNL     1      34.305 -19.446 -21.686  0.00  0.00    +0.032 C 
BRANCH   5   6
ATOM      6  C   UNL     1      35.636 -18.746 -21.442  0.00  0.00    +0.137 C 
BRANCH   6   7
ATOM      7  O   UNL     1      35.445 -17.619 -20.599  0.00  0.00    -0.382 OA
ATOM      8  H   UNL     1      36.037 -17.683 -19.833  0.00  0.00    +0.210 HD
ENDBRANCH   6   7
ENDBRANCH   5   6
ENDBRANCH   4   5
ENDBRANCH   3   4
ENDBRANCH   2   3
ENDBRANCH   1   2
BRANCH   1   9
ATOM      9  C   UNL     1      33.365 -23.086 -17.195  0.00  0.00    -0.023 C 
BRANCH   9  10
ATOM     10  C   UNL     1      32.014 -23.389 -16.543  0.00  0.00    -0.078 C 
BRANCH  10  11
ATOM     11  N   UNL     1      30.954 -22.534 -17.063  0.00  0.00    +0.401 N 
ATOM     12  H   UNL     1      30.859 -22.693 -18.065  0.00  0.00    -0.081 HD
ATOM     13  H   UNL     1      31.199 -21.562 -16.876  0.00  0.00    -0.081 HD
BRANCH  11  14
ATOM     14  C   UNL     1      29.682 -22.824 -16.411  0.00  0.00    +0.062 C 
BRANCH  14  15
ATOM     15  O   UNL     1      28.628 -22.051 -16.973  0.00  0.00    -0.405 OA
ATOM     16  H   UNL     1      28.996 -21.415 -17.607  0.00  0.00    +0.208 HD
ENDBRANCH  14  15
ENDBRANCH  11  14
ENDBRANCH  10  11
ENDBRANCH   9  10
ENDBRANCH   1   9
TORSDOF 11
ENDMDL
MODEL 9
REMARK VINA RESULT:      -5.1      2.139      2.621
REMARK  Name = 4634038
REMARK  11 active torsions:
REMARK  status: ('A' for Active; 'I' for Inactive)
REMARK    1  A    between atoms: C_1  and  C_2
REMARK    2  A    between atoms: C_1  and  C_9
REMARK    3  A    between atoms: C_2  and  C_3
REMARK    4  A    between atoms: C_3  and  C_4
REMARK    5  A    between atoms: C_4  and  C_5
REMARK    6  A    between atoms: C_5  and  C_6
REMARK    7  A    between atoms: C_6  and  O_7
REMARK    8  A    between atoms: C_9  and  C_10
REMARK    9  A    between atoms: C_10  and  N_11
REMARK   10  A    between atoms: N_11  and  C_14
REMARK   11  A    between atoms: C_14  and  O_15
REMARK                            x       y       z     vdW  Elec       q    Type
REMARK                         _______ _______ _______ _____ _____    ______ ____
ROOT
ATOM      1  C   UNL     1      32.943 -20.653 -19.789  0.00  0.00    -0.002 C 
ENDROOT
BRANCH   1   2
ATOM      2  C   UNL     1      33.443 -19.759 -20.927  0.00  0.00    -0.000 C 
BRANCH   2   3
ATOM      3  C   UNL     1      34.962 -19.803 -21.112  0.00  0.00    +0.000 C 
BRANCH   3   4
ATOM      4  C   UNL     1      35.506 -18.649 -21.959  0.00  0.00    +0.003 C 
BRANCH   4   5
ATOM      5  C   UNL     1      35.079 -18.790 -23.424  0.00  0.00    +0.032 C 
BRANCH   5   6
ATOM      6  C   UNL     1      34.926 -17.439 -24.112  0.00  0.00    +0.137 C 
BRANCH   6   7
ATOM      7  O   UNL     1      35.772 -16.480 -23.495  0.00  0.00    -0.382 OA
ATOM      8  H   UNL     1      35.846 -16.676 -22.548  0.00  0.00    +0.210 HD
ENDBRANCH   6   7
ENDBRANCH   5   6
ENDBRANCH   4   5
ENDBRANCH   3   4
ENDBRANCH   2   3
ENDBRANCH   1   2
BRANCH   1   9
ATOM      9  C   UNL     1      33.835 -21.887 -19.623  0.00  0.00    -0.023 C 
BRANCH   9  10
ATOM     10  C   UNL     1      33.619 -22.611 -18.292  0.00  0.00    -0.078 C 
BRANCH  10  11
ATOM     11  N   UNL     1      32.219 -22.596 -17.884  0.00  0.00    +0.401 N 
ATOM     12  H   UNL     1      31.663 -23.089 -18.582  0.00  0.00    -0.081 HD
ATOM     13  H   UNL     1      31.915 -21.626 -17.805  0.00  0.00    -0.081 HD
BRANCH  11  14
ATOM     14  C   UNL     1      32.046 -23.243 -16.590  0.00  0.00    +0.062 C 
BRANCH  14  15
ATOM     15  O   UNL     1      30.667 -23.404 -16.276  0.00  0.00    -0.405 OA
ATOM     16  H   UNL     1      30.420 -22.781 -15.575  0.00  0.00    +0.208 HD
ENDBRANCH  14  15
ENDBRANCH  11  14
ENDBRANCH  10  11
ENDBRANCH   9  10
ENDBRANCH   1   9
TORSDOF 11
ENDMDL
