MODEL 1
REMARK VINA RESULT:      -6.6      0.000      0.000
REMARK  Name = 5055
REMARK  3 active torsions:
REMARK  status: ('A' for Active; 'I' for Inactive)
REMARK    1  A    between atoms: C_1  and  O_9
REMARK    2  A    between atoms: C_4  and  O_7
REMARK    3  A    between atoms: O_9  and  C_11
REMARK                            x       y       z     vdW  Elec       q    Type
REMARK                         _______ _______ _______ _____ _____    ______ ____
ROOT
ATOM      1  C   UNL     1      34.979 -19.550 -21.025  0.00  0.00    +0.151 C 
ATOM      2  C   UNL     1      35.644 -20.499 -20.248  0.00  0.00    +0.074 C 
ATOM      3  C   UNL     1      33.584 -19.529 -21.057  0.00  0.00    +0.038 C 
ATOM      4  C   UNL     1      34.915 -21.426 -19.502  0.00  0.00    +0.137 C 
ATOM      5  C   UNL     1      32.855 -20.455 -20.312  0.00  0.00    +0.006 C 
ATOM      6  C   UNL     1      33.520 -21.404 -19.534  0.00  0.00    +0.037 C 
ENDROOT
BRANCH   4   7
ATOM      7  O   UNL     1      35.563 -22.351 -18.744  0.00  0.00    -0.505 OA
ATOM      8  H   UNL     1      35.436 -23.265 -18.909  0.00  0.00    +0.292 HD
ENDBRANCH   4   7
BRANCH   1   9
ATOM      9  O   UNL     1      35.689 -18.646 -21.751  0.00  0.00    -0.424 OA
BRANCH   9  11
ATOM     10  O   UNL     1      35.263 -16.765 -20.425  0.00  0.00    -0.250 OA
ATOM     11  C   UNL     1      35.324 -17.310 -21.519  0.00  0.00    +0.322 C 
ATOM     12  C   UNL     1      35.011 -16.630 -22.819  0.00  0.00    +0.122 C 
ENDBRANCH   9  11
ENDBRANCH   1   9
TORSDOF 3
ENDMDL
MODEL 2
REMARK VINA RESULT:      -6.6      7.981      8.703
REMARK  Name = 5055
REMARK  3 active torsions:
REMARK  status: ('A' for Active; 'I' for Inactive)
REMARK    1  A    between atoms: C_1  and  O_9
REMARK    2  A    between atoms: C_4  and  O_7
REMARK    3  A    between atoms: O_9  and  C_11
REMARK                            x       y       z     vdW  Elec       q    Type
REMARK                         _______ _______ _______ _____ _____    ______ ____
ROOT
ATOM      1  C   UNL     1      29.914 -23.290 -15.837  0.00  0.00    +0.151 C 
ATOM      2  C   UNL     1      30.751 -22.727 -14.874  0.00  0.00    +0.074 C 
ATOM      3  C   UNL     1      29.629 -24.655 -15.799  0.00  0.00    +0.038 C 
ATOM      4  C   UNL     1      31.302 -23.527 -13.872  0.00  0.00    +0.137 C 
ATOM      5  C   UNL     1      30.179 -25.456 -14.798  0.00  0.00    +0.006 C 
ATOM      6  C   UNL     1      31.016 -24.892 -13.835  0.00  0.00    +0.037 C 
ENDROOT
BRANCH   4   7
ATOM      7  O   UNL     1      32.119 -22.977 -12.933  0.00  0.00    -0.505 OA
ATOM      8  H   UNL     1      32.990 -22.719 -13.163  0.00  0.00    +0.292 HD
ENDBRANCH   4   7
BRANCH   1   9
ATOM      9  O   UNL     1      29.377 -22.510 -16.812  0.00  0.00    -0.424 OA
BRANCH   9  11
ATOM     10  O   UNL     1      27.514 -23.233 -18.031  0.00  0.00    -0.250 OA
ATOM     11  C   UNL     1      28.007 -22.729 -17.032  0.00  0.00    +0.322 C 
ATOM     12  C   UNL     1      27.214 -22.246 -15.853  0.00  0.00    +0.122 C 
ENDBRANCH   9  11
ENDBRANCH   1   9
TORSDOF 3
ENDMDL
MODEL 3
REMARK VINA RESULT:      -6.5      1.168      1.858
REMARK  Name = 5055
REMARK  3 active torsions:
REMARK  status: ('A' for Active; 'I' for Inactive)
REMARK    1  A    between atoms: C_1  and  O_9
REMARK    2  A    between atoms: C_4  and  O_7
REMARK    3  A    between atoms: O_9  and  C_11
REMARK                            x       y       z     vdW  Elec       q    Type
REMARK                         _______ _______ _______ _____ _____    ______ ____
ROOT
ATOM      1  C   UNL     1      34.297 -19.730 -20.805  0.00  0.00    +0.151 C 
ATOM      2  C   UNL     1      33.281 -20.428 -20.153  0.00  0.00    +0.074 C 
ATOM      3  C   UNL     1      35.622 -20.152 -20.682  0.00  0.00    +0.038 C 
ATOM      4  C   UNL     1      33.588 -21.548 -19.379  0.00  0.00    +0.137 C 
ATOM      5  C   UNL     1      35.929 -21.271 -19.909  0.00  0.00    +0.006 C 
ATOM      6  C   UNL     1      34.912 -21.969 -19.257  0.00  0.00    +0.037 C 
ENDROOT
BRANCH   4   7
ATOM      7  O   UNL     1      32.596 -22.229 -18.743  0.00  0.00    -0.505 OA
ATOM      8  H   UNL     1      31.982 -21.768 -18.205  0.00  0.00    +0.292 HD
ENDBRANCH   4   7
BRANCH   1   9
ATOM      9  O   UNL     1      33.999 -18.639 -21.560  0.00  0.00    -0.424 OA
BRANCH   9  11
ATOM     10  O   UNL     1      35.272 -17.016 -20.454  0.00  0.00    -0.250 OA
ATOM     11  C   UNL     1      34.946 -17.606 -21.475  0.00  0.00    +0.322 C 
ATOM     12  C   UNL     1      35.514 -17.317 -22.833  0.00  0.00    +0.122 C 
ENDBRANCH   9  11
ENDBRANCH   1   9
TORSDOF 3
ENDMDL
MODEL 4
REMARK VINA RESULT:      -6.3      4.401      5.822
REMARK  Name = 5055
REMARK  3 active torsions:
REMARK  status: ('A' for Active; 'I' for Inactive)
REMARK    1  A    between atoms: C_1  and  O_9
REMARK    2  A    between atoms: C_4  and  O_7
REMARK    3  A    between atoms: O_9  and  C_11
REMARK                            x       y       z     vdW  Elec       q    Type
REMARK                         _______ _______ _______ _____ _____    ______ ____
ROOT
ATOM      1  C   UNL     1      34.553 -15.465 -23.144  0.00  0.00    +0.151 C 
ATOM      2  C   UNL     1      33.923 -15.149 -24.347  0.00  0.00    +0.074 C 
ATOM      3  C   UNL     1      35.150 -16.715 -22.978  0.00  0.00    +0.038 C 
ATOM      4  C   UNL     1      33.890 -16.081 -25.385  0.00  0.00    +0.137 C 
ATOM      5  C   UNL     1      35.118 -17.648 -24.014  0.00  0.00    +0.006 C 
ATOM      6  C   UNL     1      34.487 -17.331 -25.218  0.00  0.00    +0.037 C 
ENDROOT
BRANCH   4   7
ATOM      7  O   UNL     1      33.276 -15.772 -26.559  0.00  0.00    -0.505 OA
ATOM      8  H   UNL     1      32.914 -14.917 -26.688  0.00  0.00    +0.292 HD
ENDBRANCH   4   7
BRANCH   1   9
ATOM      9  O   UNL     1      34.585 -14.556 -22.133  0.00  0.00    -0.424 OA
BRANCH   9  11
ATOM     10  O   UNL     1      34.934 -15.457 -20.001  0.00  0.00    -0.250 OA
ATOM     11  C   UNL     1      34.186 -15.069 -20.887  0.00  0.00    +0.322 C 
ATOM     12  C   UNL     1      32.689 -15.079 -20.792  0.00  0.00    +0.122 C 
ENDBRANCH   9  11
ENDBRANCH   1   9
TORSDOF 3
ENDMDL
MODEL 5
REMARK VINA RESULT:      -6.3      4.541      6.036
REMARK  Name = 5055
REMARK  3 active torsions:
REMARK  status: ('A' for Active; 'I' for Inactive)
REMARK    1  A    between atoms: C_1  and  O_9
REMARK    2  A    between atoms: C_4  and  O_7
REMARK    3  A    between atoms: O_9  and  C_11
REMARK                            x       y       z     vdW  Elec       q    Type
REMARK                         _______ _______ _______ _____ _____    ______ ____
ROOT
ATOM      1  C   UNL     1      34.579 -15.482 -22.837  0.00  0.00    +0.151 C 
ATOM      2  C   UNL     1      33.616 -14.565 -23.258  0.00  0.00    +0.074 C 
ATOM      3  C   UNL     1      34.640 -15.861 -21.495  0.00  0.00    +0.038 C 
ATOM      4  C   UNL     1      32.713 -14.028 -22.340  0.00  0.00    +0.137 C 
ATOM      5  C   UNL     1      33.738 -15.325 -20.577  0.00  0.00    +0.006 C 
ATOM      6  C   UNL     1      32.775 -14.407 -20.999  0.00  0.00    +0.037 C 
ENDROOT
BRANCH   4   7
ATOM      7  O   UNL     1      31.774 -13.133 -22.751  0.00  0.00    -0.505 OA
ATOM      8  H   UNL     1      30.866 -13.301 -22.592  0.00  0.00    +0.292 HD
ENDBRANCH   4   7
BRANCH   1   9
ATOM      9  O   UNL     1      35.458 -16.006 -23.732  0.00  0.00    -0.424 OA
BRANCH   9  11
ATOM     10  O   UNL     1      34.504 -16.467 -25.820  0.00  0.00    -0.250 OA
ATOM     11  C   UNL     1      34.864 -16.825 -24.707  0.00  0.00    +0.322 C 
ATOM     12  C   UNL     1      34.727 -18.225 -24.187  0.00  0.00    +0.122 C 
ENDBRANCH   9  11
ENDBRANCH   1   9
TORSDOF 3
ENDMDL
MODEL 6
REMARK VINA RESULT:      -6.3      1.735      2.381
REMARK  Name = 5055
REMARK  3 active torsions:
REMARK  status: ('A' for Active; 'I' for Inactive)
REMARK    1  A    between atoms: C_1  and  O_9
REMARK    2  A    between atoms: C_4  and  O_7
REMARK    3  A    between atoms: O_9  and  C_11
REMARK                            x       y       z     vdW  Elec       q    Type
REMARK                         _______ _______ _______ _____ _____    ______ ____
ROOT
ATOM      1  C   UNL     1      34.673 -18.253 -21.337  0.00  0.00    +0.151 C 
ATOM      2  C   UNL     1      33.599 -19.071 -20.989  0.00  0.00    +0.074 C 
ATOM      3  C   UNL     1      35.980 -18.683 -21.105  0.00  0.00    +0.038 C 
ATOM      4  C   UNL     1      33.830 -20.319 -20.409  0.00  0.00    +0.137 C 
ATOM      5  C   UNL     1      36.212 -19.930 -20.525  0.00  0.00    +0.006 C 
ATOM      6  C   UNL     1      35.137 -20.748 -20.176  0.00  0.00    +0.037 C 
ENDROOT
BRANCH   4   7
ATOM      7  O   UNL     1      32.781 -21.117 -20.068  0.00  0.00    -0.505 OA
ATOM      8  H   UNL     1      32.621 -21.322 -19.168  0.00  0.00    +0.292 HD
ENDBRANCH   4   7
BRANCH   1   9
ATOM      9  O   UNL     1      34.448 -17.038 -21.903  0.00  0.00    -0.424 OA
BRANCH   9  11
ATOM     10  O   UNL     1      34.962 -15.587 -20.139  0.00  0.00    -0.250 OA
ATOM     11  C   UNL     1      34.181 -16.015 -20.978  0.00  0.00    +0.322 C 
ATOM     12  C   UNL     1      32.780 -15.511 -21.160  0.00  0.00    +0.122 C 
ENDBRANCH   9  11
ENDBRANCH   1   9
TORSDOF 3
ENDMDL
MODEL 7
REMARK VINA RESULT:      -6.2      9.641     10.607
REMARK  Name = 5055
REMARK  3 active torsions:
REMARK  status: ('A' for Active; 'I' for Inactive)
REMARK    1  A    between atoms: C_1  and  O_9
REMARK    2  A    between atoms: C_4  and  O_7
REMARK    3  A    between atoms: O_9  and  C_11
REMARK                            x       y       z     vdW  Elec       q    Type
REMARK                         _______ _______ _______ _____ _____    ______ ____
ROOT
ATOM      1  C   UNL     1      37.197 -25.794 -12.570  0.00  0.00    +0.151 C 
ATOM      2  C   UNL     1      36.813 -26.393 -13.769  0.00  0.00    +0.074 C 
ATOM      3  C   UNL     1      38.457 -25.205 -12.458  0.00  0.00    +0.038 C 
ATOM      4  C   UNL     1      37.687 -26.403 -14.857  0.00  0.00    +0.137 C 
ATOM      5  C   UNL     1      39.332 -25.214 -13.544  0.00  0.00    +0.006 C 
ATOM      6  C   UNL     1      38.947 -25.814 -14.744  0.00  0.00    +0.037 C 
ENDROOT
BRANCH   4   7
ATOM      7  O   UNL     1      37.313 -26.988 -16.027  0.00  0.00    -0.505 OA
ATOM      8  H   UNL     1      36.511 -26.735 -16.441  0.00  0.00    +0.292 HD
ENDBRANCH   4   7
BRANCH   1   9
ATOM      9  O   UNL     1      36.345 -25.784 -11.510  0.00  0.00    -0.424 OA
BRANCH   9  11
ATOM     10  O   UNL     1      36.286 -24.014  -9.979  0.00  0.00    -0.250 OA
ATOM     11  C   UNL     1      35.998 -24.497 -11.066  0.00  0.00    +0.322 C 
ATOM     12  C   UNL     1      35.209 -23.784 -12.123  0.00  0.00    +0.122 C 
ENDBRANCH   9  11
ENDBRANCH   1   9
TORSDOF 3
ENDMDL
MODEL 8
REMARK VINA RESULT:      -6.2      1.936      4.853
REMARK  Name = 5055
REMARK  3 active torsions:
REMARK  status: ('A' for Active; 'I' for Inactive)
REMARK    1  A    between atoms: C_1  and  O_9
REMARK    2  A    between atoms: C_4  and  O_7
REMARK    3  A    between atoms: O_9  and  C_11
REMARK                            x       y       z     vdW  Elec       q    Type
REMARK                         _______ _______ _______ _____ _____    ______ ____
ROOT
ATOM      1  C   UNL     1      34.183 -22.049 -19.410  0.00  0.00    +0.151 C 
ATOM      2  C   UNL     1      35.456 -21.502 -19.568  0.00  0.00    +0.074 C 
ATOM      3  C   UNL     1      33.067 -21.369 -19.899  0.00  0.00    +0.038 C 
ATOM      4  C   UNL     1      35.615 -20.276 -20.216  0.00  0.00    +0.137 C 
ATOM      5  C   UNL     1      33.224 -20.144 -20.546  0.00  0.00    +0.006 C 
ATOM      6  C   UNL     1      34.498 -19.597 -20.704  0.00  0.00    +0.037 C 
ENDROOT
BRANCH   4   7
ATOM      7  O   UNL     1      36.857 -19.743 -20.370  0.00  0.00    -0.505 OA
ATOM      8  H   UNL     1      36.954 -18.830 -20.562  0.00  0.00    +0.292 HD
ENDBRANCH   4   7
BRANCH   1   9
ATOM      9  O   UNL     1      34.029 -23.244 -18.780  0.00  0.00    -0.424 OA
BRANCH   9  11
ATOM     10  O   UNL     1      34.968 -23.073 -16.642  0.00  0.00    -0.250 OA
ATOM     11  C   UNL     1      33.994 -23.154 -17.378  0.00  0.00    +0.322 C 
ATOM     12  C   UNL     1      32.574 -23.173 -16.897  0.00  0.00    +0.122 C 
ENDBRANCH   9  11
ENDBRANCH   1   9
TORSDOF 3
ENDMDL
MODEL 9
REMARK VINA RESULT:      -6.1      1.481      4.383
REMARK  Name = 5055
REMARK  3 active torsions:
REMARK  status: ('A' for Active; 'I' for Inactive)
REMARK    1  A    between atoms: C_1  and  O_9
REMARK    2  A    between atoms: C_4  and  O_7
REMARK    3  A    between atoms: O_9  and  C_11
REMARK                            x       y       z     vdW  Elec       q    Type
REMARK                         _______ _______ _______ _____ _____    ______ ____
ROOT
ATOM      1  C   UNL     1      35.211 -21.382 -19.557  0.00  0.00    +0.151 C 
ATOM      2  C   UNL     1      35.812 -20.420 -20.368  0.00  0.00    +0.074 C 
ATOM      3  C   UNL     1      33.820 -21.439 -19.458  0.00  0.00    +0.038 C 
ATOM      4  C   UNL     1      35.024 -19.516 -21.082  0.00  0.00    +0.137 C 
ATOM      5  C   UNL     1      33.032 -20.536 -20.170  0.00  0.00    +0.006 C 
ATOM      6  C   UNL     1      33.634 -19.574 -20.982  0.00  0.00    +0.037 C 
ENDROOT
BRANCH   4   7
ATOM      7  O   UNL     1      35.611 -18.577 -21.873  0.00  0.00    -0.505 OA
ATOM      8  H   UNL     1      35.126 -17.823 -22.144  0.00  0.00    +0.292 HD
ENDBRANCH   4   7
BRANCH   1   9
ATOM      9  O   UNL     1      35.979 -22.263 -18.862  0.00  0.00    -0.424 OA
BRANCH   9  11
ATOM     10  O   UNL     1      37.152 -20.852 -17.408  0.00  0.00    -0.250 OA
ATOM     11  C   UNL     1      36.397 -21.794 -17.605  0.00  0.00    +0.322 C 
ATOM     12  C   UNL     1      35.783 -22.625 -16.517  0.00  0.00    +0.122 C 
ENDBRANCH   9  11
ENDBRANCH   1   9
TORSDOF 3
ENDMDL
