MODEL 1
REMARK VINA RESULT:      -8.9      0.000      0.000
REMARK  Name = 71157
REMARK  3 active torsions:
REMARK  status: ('A' for Active; 'I' for Inactive)
REMARK    1  A    between atoms: N_2  and  C_5
REMARK    2  A    between atoms: C_3  and  C_13
REMARK    3  A    between atoms: C_13  and  N_15
REMARK                            x       y       z     vdW  Elec       q    Type
REMARK                         _______ _______ _______ _____ _____    ______ ____
ROOT
ATOM      1  O   UNL     1      34.597 -19.163 -23.305  0.00  0.00    -0.273 OA
ATOM      2  N   UNL     1      35.122 -18.745 -21.054  0.00  0.00    -0.283 N 
ATOM      3  C   UNL     1      35.012 -18.438 -22.407  0.00  0.00    +0.246 C 
ATOM      4  H   UNL     1      35.477 -18.033 -20.475  0.00  0.00    +0.155 HD
ENDROOT
BRANCH   2   5
ATOM      5  C   UNL     1      34.782 -19.961 -20.415  0.00  0.00    +0.042 C 
ATOM      6  C   UNL     1      33.445 -20.288 -20.241  0.00  0.00    -0.009 C 
ATOM      7  C   UNL     1      35.792 -20.804 -19.974  0.00  0.00    -0.009 C 
ATOM      8  C   UNL     1      33.111 -21.487 -19.610  0.00  0.00    -0.003 C 
ATOM      9  C   UNL     1      35.456 -22.002 -19.343  0.00  0.00    -0.003 C 
ATOM     10  C   UNL     1      32.346 -19.392 -20.711  0.00  0.00    +0.032 C 
ATOM     11  C   UNL     1      37.236 -20.466 -20.154  0.00  0.00    +0.032 C 
ATOM     12  C   UNL     1      34.116 -22.344 -19.162  0.00  0.00    -0.001 C 
ENDBRANCH   2   5
BRANCH   3  13
ATOM     13  C   UNL     1      35.488 -17.020 -22.666  0.00  0.00    +0.179 C 
BRANCH  13  15
ATOM     14  O   UNL     1      35.081 -15.986 -19.883  0.00  0.00    -0.275 OA
ATOM     15  N   UNL     1      34.522 -16.065 -22.169  0.00  0.00    -0.271 N 
ATOM     16  C   UNL     1      33.632 -15.355 -23.058  0.00  0.00    +0.094 C 
ATOM     17  C   UNL     1      32.600 -14.769 -22.115  0.00  0.00    +0.031 C 
ATOM     18  C   UNL     1      33.373 -14.545 -20.820  0.00  0.00    +0.087 C 
ATOM     19  C   UNL     1      34.425 -15.626 -20.849  0.00  0.00    +0.226 C 
ENDBRANCH  13  15
ENDBRANCH   3  13
TORSDOF 3
ENDMDL
MODEL 2
REMARK VINA RESULT:      -8.9      0.014      2.029
REMARK  Name = 71157
REMARK  3 active torsions:
REMARK  status: ('A' for Active; 'I' for Inactive)
REMARK    1  A    between atoms: N_2  and  C_5
REMARK    2  A    between atoms: C_3  and  C_13
REMARK    3  A    between atoms: C_13  and  N_15
REMARK                            x       y       z     vdW  Elec       q    Type
REMARK                         _______ _______ _______ _____ _____    ______ ____
ROOT
ATOM      1  O   UNL     1      34.617 -19.155 -23.310  0.00  0.00    -0.273 OA
ATOM      2  N   UNL     1      35.115 -18.731 -21.053  0.00  0.00    -0.283 N 
ATOM      3  C   UNL     1      35.018 -18.425 -22.408  0.00  0.00    +0.246 C 
ATOM      4  H   UNL     1      35.460 -18.017 -20.471  0.00  0.00    +0.155 HD
ENDROOT
BRANCH   2   5
ATOM      5  C   UNL     1      34.778 -19.949 -20.418  0.00  0.00    +0.042 C 
ATOM      6  C   UNL     1      35.790 -20.791 -19.978  0.00  0.00    -0.009 C 
ATOM      7  C   UNL     1      33.443 -20.282 -20.247  0.00  0.00    -0.009 C 
ATOM      8  C   UNL     1      35.458 -21.993 -19.353  0.00  0.00    -0.003 C 
ATOM      9  C   UNL     1      33.112 -21.484 -19.621  0.00  0.00    -0.003 C 
ATOM     10  C   UNL     1      37.234 -20.447 -20.154  0.00  0.00    +0.032 C 
ATOM     11  C   UNL     1      32.341 -19.387 -20.714  0.00  0.00    +0.032 C 
ATOM     12  C   UNL     1      34.118 -22.339 -19.174  0.00  0.00    -0.001 C 
ENDBRANCH   2   5
BRANCH   3  13
ATOM     13  C   UNL     1      35.486 -17.005 -22.663  0.00  0.00    +0.179 C 
BRANCH  13  15
ATOM     14  O   UNL     1      35.071 -15.983 -19.877  0.00  0.00    -0.275 OA
ATOM     15  N   UNL     1      34.515 -16.056 -22.163  0.00  0.00    -0.271 N 
ATOM     16  C   UNL     1      33.623 -15.348 -23.051  0.00  0.00    +0.094 C 
ATOM     17  C   UNL     1      32.587 -14.770 -22.107  0.00  0.00    +0.031 C 
ATOM     18  C   UNL     1      33.357 -14.546 -20.811  0.00  0.00    +0.087 C 
ATOM     19  C   UNL     1      34.415 -15.623 -20.842  0.00  0.00    +0.226 C 
ENDBRANCH  13  15
ENDBRANCH   3  13
TORSDOF 3
ENDMDL
MODEL 3
REMARK VINA RESULT:      -8.8      1.507      2.794
REMARK  Name = 71157
REMARK  3 active torsions:
REMARK  status: ('A' for Active; 'I' for Inactive)
REMARK    1  A    between atoms: N_2  and  C_5
REMARK    2  A    between atoms: C_3  and  C_13
REMARK    3  A    between atoms: C_13  and  N_15
REMARK                            x       y       z     vdW  Elec       q    Type
REMARK                         _______ _______ _______ _____ _____    ______ ____
ROOT
ATOM      1  O   UNL     1      35.302 -16.681 -20.280  0.00  0.00    -0.273 OA
ATOM      2  N   UNL     1      34.763 -18.475 -21.698  0.00  0.00    -0.283 N 
ATOM      3  C   UNL     1      34.941 -17.136 -21.361  0.00  0.00    +0.246 C 
ATOM      4  H   UNL     1      34.469 -18.655 -22.619  0.00  0.00    +0.155 HD
ENDROOT
BRANCH   2   5
ATOM      5  C   UNL     1      34.956 -19.606 -20.870  0.00  0.00    +0.042 C 
ATOM      6  C   UNL     1      36.247 -20.027 -20.583  0.00  0.00    -0.009 C 
ATOM      7  C   UNL     1      33.853 -20.275 -20.361  0.00  0.00    -0.009 C 
ATOM      8  C   UNL     1      36.437 -21.143 -19.768  0.00  0.00    -0.003 C 
ATOM      9  C   UNL     1      34.044 -21.390 -19.546  0.00  0.00    -0.003 C 
ATOM     10  C   UNL     1      37.446 -19.319 -21.123  0.00  0.00    +0.032 C 
ATOM     11  C   UNL     1      32.457 -19.833 -20.660  0.00  0.00    +0.032 C 
ATOM     12  C   UNL     1      35.336 -21.824 -19.248  0.00  0.00    -0.001 C 
ENDBRANCH   2   5
BRANCH   3  13
ATOM     13  C   UNL     1      34.623 -16.247 -22.548  0.00  0.00    +0.179 C 
BRANCH  13  15
ATOM     14  O   UNL     1      34.145 -13.566 -23.799  0.00  0.00    -0.275 OA
ATOM     15  N   UNL     1      33.702 -15.200 -22.163  0.00  0.00    -0.271 N 
ATOM     16  C   UNL     1      32.746 -15.387 -21.098  0.00  0.00    +0.094 C 
ATOM     17  C   UNL     1      32.270 -13.977 -20.811  0.00  0.00    +0.031 C 
ATOM     18  C   UNL     1      32.388 -13.270 -22.156  0.00  0.00    +0.087 C 
ATOM     19  C   UNL     1      33.535 -13.986 -22.827  0.00  0.00    +0.226 C 
ENDBRANCH  13  15
ENDBRANCH   3  13
TORSDOF 3
ENDMDL
MODEL 4
REMARK VINA RESULT:      -8.4      6.412      9.259
REMARK  Name = 71157
REMARK  3 active torsions:
REMARK  status: ('A' for Active; 'I' for Inactive)
REMARK    1  A    between atoms: N_2  and  C_5
REMARK    2  A    between atoms: C_3  and  C_13
REMARK    3  A    between atoms: C_13  and  N_15
REMARK                            x       y       z     vdW  Elec       q    Type
REMARK                         _______ _______ _______ _____ _____    ______ ____
ROOT
ATOM      1  O   UNL     1      35.597 -25.366 -15.853  0.00  0.00    -0.273 OA
ATOM      2  N   UNL     1      34.976 -23.111 -15.636  0.00  0.00    -0.283 N 
ATOM      3  C   UNL     1      35.234 -24.403 -15.186  0.00  0.00    +0.246 C 
ATOM      4  H   UNL     1      34.694 -22.462 -14.953  0.00  0.00    +0.155 HD
ENDROOT
BRANCH   2   5
ATOM      5  C   UNL     1      35.071 -22.624 -16.961  0.00  0.00    +0.042 C 
ATOM      6  C   UNL     1      33.968 -22.708 -17.798  0.00  0.00    -0.009 C 
ATOM      7  C   UNL     1      36.266 -22.074 -17.401  0.00  0.00    -0.009 C 
ATOM      8  C   UNL     1      34.062 -22.230 -19.105  0.00  0.00    -0.003 C 
ATOM      9  C   UNL     1      36.359 -21.596 -18.709  0.00  0.00    -0.003 C 
ATOM     10  C   UNL     1      32.674 -23.298 -17.340  0.00  0.00    +0.032 C 
ATOM     11  C   UNL     1      37.463 -21.977 -16.512  0.00  0.00    +0.032 C 
ATOM     12  C   UNL     1      35.258 -21.674 -19.560  0.00  0.00    -0.001 C 
ENDBRANCH   2   5
BRANCH   3  13
ATOM     13  C   UNL     1      35.007 -24.495 -13.689  0.00  0.00    +0.179 C 
BRANCH  13  15
ATOM     14  O   UNL     1      36.937 -26.600 -12.780  0.00  0.00    -0.275 OA
ATOM     15  N   UNL     1      36.260 -24.354 -12.979  0.00  0.00    -0.271 N 
ATOM     16  C   UNL     1      36.827 -23.057 -12.695  0.00  0.00    +0.094 C 
ATOM     17  C   UNL     1      37.896 -23.367 -11.666  0.00  0.00    +0.031 C 
ATOM     18  C   UNL     1      38.345 -24.780 -12.018  0.00  0.00    +0.087 C 
ATOM     19  C   UNL     1      37.105 -25.401 -12.617  0.00  0.00    +0.226 C 
ENDBRANCH  13  15
ENDBRANCH   3  13
TORSDOF 3
ENDMDL
MODEL 5
REMARK VINA RESULT:      -8.4      6.424      9.466
REMARK  Name = 71157
REMARK  3 active torsions:
REMARK  status: ('A' for Active; 'I' for Inactive)
REMARK    1  A    between atoms: N_2  and  C_5
REMARK    2  A    between atoms: C_3  and  C_13
REMARK    3  A    between atoms: C_13  and  N_15
REMARK                            x       y       z     vdW  Elec       q    Type
REMARK                         _______ _______ _______ _____ _____    ______ ____
ROOT
ATOM      1  O   UNL     1      35.579 -25.369 -15.832  0.00  0.00    -0.273 OA
ATOM      2  N   UNL     1      34.988 -23.105 -15.616  0.00  0.00    -0.283 N 
ATOM      3  C   UNL     1      35.229 -24.400 -15.165  0.00  0.00    +0.246 C 
ATOM      4  H   UNL     1      34.715 -22.451 -14.934  0.00  0.00    +0.155 HD
ENDROOT
BRANCH   2   5
ATOM      5  C   UNL     1      35.090 -22.621 -16.942  0.00  0.00    +0.042 C 
ATOM      6  C   UNL     1      36.289 -22.074 -17.377  0.00  0.00    -0.009 C 
ATOM      7  C   UNL     1      33.990 -22.699 -17.783  0.00  0.00    -0.009 C 
ATOM      8  C   UNL     1      36.390 -21.596 -18.683  0.00  0.00    -0.003 C 
ATOM      9  C   UNL     1      34.091 -22.220 -19.089  0.00  0.00    -0.003 C 
ATOM     10  C   UNL     1      37.484 -21.982 -16.484  0.00  0.00    +0.032 C 
ATOM     11  C   UNL     1      32.692 -23.286 -17.330  0.00  0.00    +0.032 C 
ATOM     12  C   UNL     1      35.290 -21.669 -19.540  0.00  0.00    -0.001 C 
ENDBRANCH   2   5
BRANCH   3  13
ATOM     13  C   UNL     1      35.001 -24.487 -13.668  0.00  0.00    +0.179 C 
BRANCH  13  15
ATOM     14  O   UNL     1      36.937 -26.598 -12.789  0.00  0.00    -0.275 OA
ATOM     15  N   UNL     1      36.254 -24.352 -12.957  0.00  0.00    -0.271 N 
ATOM     16  C   UNL     1      36.818 -23.057 -12.658  0.00  0.00    +0.094 C 
ATOM     17  C   UNL     1      37.889 -23.378 -11.634  0.00  0.00    +0.031 C 
ATOM     18  C   UNL     1      38.341 -24.785 -12.005  0.00  0.00    +0.087 C 
ATOM     19  C   UNL     1      37.103 -25.401 -12.610  0.00  0.00    +0.226 C 
ENDBRANCH  13  15
ENDBRANCH   3  13
TORSDOF 3
ENDMDL
MODEL 6
REMARK VINA RESULT:      -8.3      1.301      2.192
REMARK  Name = 71157
REMARK  3 active torsions:
REMARK  status: ('A' for Active; 'I' for Inactive)
REMARK    1  A    between atoms: N_2  and  C_5
REMARK    2  A    between atoms: C_3  and  C_13
REMARK    3  A    between atoms: C_13  and  N_15
REMARK                            x       y       z     vdW  Elec       q    Type
REMARK                         _______ _______ _______ _____ _____    ______ ____
ROOT
ATOM      1  O   UNL     1      35.217 -17.461 -20.541  0.00  0.00    -0.273 OA
ATOM      2  N   UNL     1      35.257 -19.567 -21.583  0.00  0.00    -0.283 N 
ATOM      3  C   UNL     1      35.433 -18.188 -21.506  0.00  0.00    +0.246 C 
ATOM      4  H   UNL     1      35.485 -19.986 -22.443  0.00  0.00    +0.155 HD
ENDROOT
BRANCH   2   5
ATOM      5  C   UNL     1      34.786 -20.434 -20.568  0.00  0.00    +0.042 C 
ATOM      6  C   UNL     1      33.427 -20.486 -20.294  0.00  0.00    -0.009 C 
ATOM      7  C   UNL     1      35.692 -21.214 -19.864  0.00  0.00    -0.009 C 
ATOM      8  C   UNL     1      32.963 -21.340 -19.293  0.00  0.00    -0.003 C 
ATOM      9  C   UNL     1      35.227 -22.067 -18.863  0.00  0.00    -0.003 C 
ATOM     10  C   UNL     1      32.439 -19.653 -21.043  0.00  0.00    +0.032 C 
ATOM     11  C   UNL     1      37.158 -21.169 -20.148  0.00  0.00    +0.032 C 
ATOM     12  C   UNL     1      33.863 -22.131 -18.577  0.00  0.00    -0.001 C 
ENDBRANCH   2   5
BRANCH   3  13
ATOM     13  C   UNL     1      35.957 -17.649 -22.824  0.00  0.00    +0.179 C 
BRANCH  13  15
ATOM     14  O   UNL     1      34.622 -17.365 -25.492  0.00  0.00    -0.275 OA
ATOM     15  N   UNL     1      35.096 -16.597 -23.317  0.00  0.00    -0.271 N 
ATOM     16  C   UNL     1      34.655 -15.518 -22.465  0.00  0.00    +0.094 C 
ATOM     17  C   UNL     1      34.104 -14.506 -23.450  0.00  0.00    +0.031 C 
ATOM     18  C   UNL     1      33.592 -15.359 -24.604  0.00  0.00    +0.087 C 
ATOM     19  C   UNL     1      34.500 -16.565 -24.577  0.00  0.00    +0.226 C 
ENDBRANCH  13  15
ENDBRANCH   3  13
TORSDOF 3
ENDMDL
MODEL 7
REMARK VINA RESULT:      -8.2      1.789      3.373
REMARK  Name = 71157
REMARK  3 active torsions:
REMARK  status: ('A' for Active; 'I' for Inactive)
REMARK    1  A    between atoms: N_2  and  C_5
REMARK    2  A    between atoms: C_3  and  C_13
REMARK    3  A    between atoms: C_13  and  N_15
REMARK                            x       y       z     vdW  Elec       q    Type
REMARK                         _______ _______ _______ _____ _____    ______ ____
ROOT
ATOM      1  O   UNL     1      35.381 -17.667 -20.393  0.00  0.00    -0.273 OA
ATOM      2  N   UNL     1      35.407 -19.808 -21.361  0.00  0.00    -0.283 N 
ATOM      3  C   UNL     1      35.666 -18.441 -21.301  0.00  0.00    +0.246 C 
ATOM      4  H   UNL     1      35.711 -20.273 -22.172  0.00  0.00    +0.155 HD
ENDROOT
BRANCH   2   5
ATOM      5  C   UNL     1      34.754 -20.605 -20.390  0.00  0.00    +0.042 C 
ATOM      6  C   UNL     1      35.508 -21.440 -19.578  0.00  0.00    -0.009 C 
ATOM      7  C   UNL     1      33.374 -20.538 -20.269  0.00  0.00    -0.009 C 
ATOM      8  C   UNL     1      34.865 -22.226 -18.622  0.00  0.00    -0.003 C 
ATOM      9  C   UNL     1      32.733 -21.326 -19.313  0.00  0.00    -0.003 C 
ATOM     10  C   UNL     1      36.995 -21.523 -19.695  0.00  0.00    +0.032 C 
ATOM     11  C   UNL     1      32.549 -19.644 -21.136  0.00  0.00    +0.032 C 
ATOM     12  C   UNL     1      33.477 -22.169 -18.489  0.00  0.00    -0.001 C 
ENDBRANCH   2   5
BRANCH   3  13
ATOM     13  C   UNL     1      36.387 -17.987 -22.557  0.00  0.00    +0.179 C 
BRANCH  13  15
ATOM     14  O   UNL     1      34.974 -19.831 -24.449  0.00  0.00    -0.275 OA
ATOM     15  N   UNL     1      35.435 -17.683 -23.603  0.00  0.00    -0.271 N 
ATOM     16  C   UNL     1      34.930 -16.345 -23.802  0.00  0.00    +0.094 C 
ATOM     17  C   UNL     1      34.279 -16.424 -25.169  0.00  0.00    +0.031 C 
ATOM     18  C   UNL     1      33.810 -17.870 -25.269  0.00  0.00    +0.087 C 
ATOM     19  C   UNL     1      34.810 -18.621 -24.423  0.00  0.00    +0.226 C 
ENDBRANCH  13  15
ENDBRANCH   3  13
TORSDOF 3
ENDMDL
MODEL 8
REMARK VINA RESULT:      -8.2      3.191      4.949
REMARK  Name = 71157
REMARK  3 active torsions:
REMARK  status: ('A' for Active; 'I' for Inactive)
REMARK    1  A    between atoms: N_2  and  C_5
REMARK    2  A    between atoms: C_3  and  C_13
REMARK    3  A    between atoms: C_13  and  N_15
REMARK                            x       y       z     vdW  Elec       q    Type
REMARK                         _______ _______ _______ _____ _____    ______ ____
ROOT
ATOM      1  O   UNL     1      32.318 -14.862 -22.420  0.00  0.00    -0.273 OA
ATOM      2  N   UNL     1      34.519 -15.270 -23.133  0.00  0.00    -0.283 N 
ATOM      3  C   UNL     1      33.371 -14.506 -22.940  0.00  0.00    +0.246 C 
ATOM      4  H   UNL     1      35.274 -14.816 -23.569  0.00  0.00    +0.155 HD
ENDROOT
BRANCH   2   5
ATOM      5  C   UNL     1      34.723 -16.624 -22.777  0.00  0.00    +0.042 C 
ATOM      6  C   UNL     1      34.793 -17.587 -23.773  0.00  0.00    -0.009 C 
ATOM      7  C   UNL     1      34.849 -16.966 -21.439  0.00  0.00    -0.009 C 
ATOM      8  C   UNL     1      34.993 -18.922 -23.422  0.00  0.00    -0.003 C 
ATOM      9  C   UNL     1      35.049 -18.301 -21.089  0.00  0.00    -0.003 C 
ATOM     10  C   UNL     1      34.659 -17.237 -25.220  0.00  0.00    +0.032 C 
ATOM     11  C   UNL     1      34.777 -15.940 -20.354  0.00  0.00    +0.032 C 
ATOM     12  C   UNL     1      35.122 -19.279 -22.079  0.00  0.00    -0.001 C 
ENDBRANCH   2   5
BRANCH   3  13
ATOM     13  C   UNL     1      33.578 -13.100 -23.471  0.00  0.00    +0.179 C 
BRANCH  13  15
ATOM     14  O   UNL     1      34.528 -11.056 -25.445  0.00  0.00    -0.275 OA
ATOM     15  N   UNL     1      33.456 -13.083 -24.913  0.00  0.00    -0.271 N 
ATOM     16  C   UNL     1      32.906 -14.203 -25.639  0.00  0.00    +0.094 C 
ATOM     17  C   UNL     1      32.643 -13.623 -27.015  0.00  0.00    +0.031 C 
ATOM     18  C   UNL     1      33.713 -12.549 -27.171  0.00  0.00    +0.087 C 
ATOM     19  C   UNL     1      33.955 -12.089 -25.753  0.00  0.00    +0.226 C 
ENDBRANCH  13  15
ENDBRANCH   3  13
TORSDOF 3
ENDMDL
MODEL 9
REMARK VINA RESULT:      -8.2      3.202      4.995
REMARK  Name = 71157
REMARK  3 active torsions:
REMARK  status: ('A' for Active; 'I' for Inactive)
REMARK    1  A    between atoms: N_2  and  C_5
REMARK    2  A    between atoms: C_3  and  C_13
REMARK    3  A    between atoms: C_13  and  N_15
REMARK                            x       y       z     vdW  Elec       q    Type
REMARK                         _______ _______ _______ _____ _____    ______ ____
ROOT
ATOM      1  O   UNL     1      32.329 -14.839 -22.444  0.00  0.00    -0.273 OA
ATOM      2  N   UNL     1      34.540 -15.242 -23.129  0.00  0.00    -0.283 N 
ATOM      3  C   UNL     1      33.388 -14.481 -22.951  0.00  0.00    +0.246 C 
ATOM      4  H   UNL     1      35.300 -14.785 -23.555  0.00  0.00    +0.155 HD
ENDROOT
BRANCH   2   5
ATOM      5  C   UNL     1      34.745 -16.595 -22.768  0.00  0.00    +0.042 C 
ATOM      6  C   UNL     1      34.863 -16.931 -21.427  0.00  0.00    -0.009 C 
ATOM      7  C   UNL     1      34.825 -17.560 -23.761  0.00  0.00    -0.009 C 
ATOM      8  C   UNL     1      35.066 -18.265 -21.072  0.00  0.00    -0.003 C 
ATOM      9  C   UNL     1      35.028 -18.893 -23.404  0.00  0.00    -0.003 C 
ATOM     10  C   UNL     1      34.779 -15.904 -20.346  0.00  0.00    +0.032 C 
ATOM     11  C   UNL     1      34.699 -17.213 -25.209  0.00  0.00    +0.032 C 
ATOM     12  C   UNL     1      35.148 -19.246 -22.061  0.00  0.00    -0.001 C 
ENDBRANCH   2   5
BRANCH   3  13
ATOM     13  C   UNL     1      33.597 -13.075 -23.481  0.00  0.00    +0.179 C 
BRANCH  13  15
ATOM     14  O   UNL     1      34.556 -11.034 -25.455  0.00  0.00    -0.275 OA
ATOM     15  N   UNL     1      33.474 -13.056 -24.922  0.00  0.00    -0.271 N 
ATOM     16  C   UNL     1      32.917 -14.172 -25.649  0.00  0.00    +0.094 C 
ATOM     17  C   UNL     1      32.656 -13.591 -27.024  0.00  0.00    +0.031 C 
ATOM     18  C   UNL     1      33.731 -12.522 -27.181  0.00  0.00    +0.087 C 
ATOM     19  C   UNL     1      33.977 -12.065 -25.763  0.00  0.00    +0.226 C 
ENDBRANCH  13  15
ENDBRANCH   3  13
TORSDOF 3
ENDMDL
