MODEL 1
REMARK VINA RESULT:      -9.8      0.000      0.000
REMARK  Name = 65650
REMARK  3 active torsions:
REMARK  status: ('A' for Active; 'I' for Inactive)
REMARK    1  A    between atoms: C_1  and  C_2
REMARK    2  A    between atoms: C_1  and  O_12
REMARK    3  A    between atoms: O_12  and  C_14
REMARK                            x       y       z     vdW  Elec       q    Type
REMARK                         _______ _______ _______ _____ _____    ______ ____
ROOT
ATOM      1  C   UNL     1      34.501 -17.021 -22.953  0.00  0.00    +0.168 C 
ENDROOT
BRANCH   1   2
ATOM      2  C   UNL     1      34.872 -18.148 -22.049  0.00  0.00    +0.007 C 
ATOM      3  C   UNL     1      33.876 -18.950 -21.489  0.00  0.00    -0.002 C 
ATOM      4  C   UNL     1      34.209 -20.015 -20.637  0.00  0.00    -0.000 C 
ATOM      5  C   UNL     1      36.210 -18.401 -21.766  0.00  0.00    -0.002 C 
ATOM      6  C   UNL     1      35.570 -20.271 -20.348  0.00  0.00    -0.000 C 
ATOM      7  C   UNL     1      36.559 -19.455 -20.921  0.00  0.00    -0.000 C 
ATOM      8  C   UNL     1      33.220 -20.832 -20.065  0.00  0.00    -0.000 C 
ATOM      9  C   UNL     1      35.903 -21.337 -19.495  0.00  0.00    -0.000 C 
ATOM     10  C   UNL     1      33.568 -21.885 -19.219  0.00  0.00    -0.000 C 
ATOM     11  C   UNL     1      34.908 -22.137 -18.935  0.00  0.00    -0.000 C 
ENDBRANCH   1   2
BRANCH   1  12
ATOM     12  O   UNL     1      35.348 -15.909 -22.691  0.00  0.00    -0.352 OA
BRANCH  12  14
ATOM     13  N   UNL     1      31.964 -13.464 -22.423  0.00  0.00    +0.384 N 
ATOM     14  C   UNL     1      34.597 -14.724 -22.461  0.00  0.00    +0.111 C 
ATOM     15  C   UNL     1      33.587 -14.983 -21.347  0.00  0.00    +0.006 C 
ATOM     16  C   UNL     1      33.877 -14.304 -23.741  0.00  0.00    +0.006 C 
ATOM     17  C   UNL     1      32.641 -13.799 -21.169  0.00  0.00    -0.079 C 
ATOM     18  C   UNL     1      32.921 -13.143 -23.483  0.00  0.00    -0.079 C 
ATOM     19  H   UNL     1      31.359 -12.657 -22.267  0.00  0.00    -0.085 HD
ATOM     20  H   UNL     1      31.420 -14.275 -22.719  0.00  0.00    -0.085 HD
ENDBRANCH  12  14
ENDBRANCH   1  12
TORSDOF 3
ENDMDL
MODEL 2
REMARK VINA RESULT:      -9.6      4.555      8.079
REMARK  Name = 65650
REMARK  3 active torsions:
REMARK  status: ('A' for Active; 'I' for Inactive)
REMARK    1  A    between atoms: C_1  and  C_2
REMARK    2  A    between atoms: C_1  and  O_12
REMARK    3  A    between atoms: O_12  and  C_14
REMARK                            x       y       z     vdW  Elec       q    Type
REMARK                         _______ _______ _______ _____ _____    ______ ____
ROOT
ATOM      1  C   UNL     1      33.547 -22.937 -18.213  0.00  0.00    +0.168 C 
ENDROOT
BRANCH   1   2
ATOM      2  C   UNL     1      33.797 -21.795 -19.139  0.00  0.00    +0.007 C 
ATOM      3  C   UNL     1      35.106 -21.403 -19.425  0.00  0.00    -0.002 C 
ATOM      4  C   UNL     1      35.358 -20.330 -20.295  0.00  0.00    -0.000 C 
ATOM      5  C   UNL     1      32.726 -21.121 -19.718  0.00  0.00    -0.002 C 
ATOM      6  C   UNL     1      34.269 -19.644 -20.883  0.00  0.00    -0.000 C 
ATOM      7  C   UNL     1      32.959 -20.052 -20.584  0.00  0.00    -0.000 C 
ATOM      8  C   UNL     1      36.669 -19.922 -20.595  0.00  0.00    -0.000 C 
ATOM      9  C   UNL     1      34.522 -18.571 -21.753  0.00  0.00    -0.000 C 
ATOM     10  C   UNL     1      36.901 -18.854 -21.460  0.00  0.00    -0.000 C 
ATOM     11  C   UNL     1      35.829 -18.179 -22.038  0.00  0.00    -0.000 C 
ENDBRANCH   1   2
BRANCH   1  12
ATOM     12  O   UNL     1      32.225 -22.844 -17.696  0.00  0.00    -0.352 OA
BRANCH  12  14
ATOM     13  N   UNL     1      32.182 -23.096 -13.520  0.00  0.00    +0.384 N 
ATOM     14  C   UNL     1      32.121 -23.455 -16.416  0.00  0.00    +0.111 C 
ATOM     15  C   UNL     1      30.965 -22.816 -15.651  0.00  0.00    +0.006 C 
ATOM     16  C   UNL     1      33.428 -23.279 -15.646  0.00  0.00    +0.006 C 
ATOM     17  C   UNL     1      30.911 -23.317 -14.211  0.00  0.00    -0.079 C 
ATOM     18  C   UNL     1      33.290 -23.763 -14.205  0.00  0.00    -0.079 C 
ATOM     19  H   UNL     1      32.111 -23.461 -12.571  0.00  0.00    -0.085 HD
ATOM     20  H   UNL     1      32.371 -22.093 -13.511  0.00  0.00    -0.085 HD
ENDBRANCH  12  14
ENDBRANCH   1  12
TORSDOF 3
ENDMDL
MODEL 3
REMARK VINA RESULT:      -9.5      1.326      1.880
REMARK  Name = 65650
REMARK  3 active torsions:
REMARK  status: ('A' for Active; 'I' for Inactive)
REMARK    1  A    between atoms: C_1  and  C_2
REMARK    2  A    between atoms: C_1  and  O_12
REMARK    3  A    between atoms: O_12  and  C_14
REMARK                            x       y       z     vdW  Elec       q    Type
REMARK                         _______ _______ _______ _____ _____    ______ ____
ROOT
ATOM      1  C   UNL     1      35.431 -16.849 -22.602  0.00  0.00    +0.168 C 
ENDROOT
BRANCH   1   2
ATOM      2  C   UNL     1      35.450 -18.096 -21.784  0.00  0.00    +0.007 C 
ATOM      3  C   UNL     1      34.250 -18.671 -21.362  0.00  0.00    -0.002 C 
ATOM      4  C   UNL     1      34.251 -19.845 -20.592  0.00  0.00    -0.000 C 
ATOM      5  C   UNL     1      36.662 -18.686 -21.442  0.00  0.00    -0.002 C 
ATOM      6  C   UNL     1      35.484 -20.444 -20.243  0.00  0.00    -0.000 C 
ATOM      7  C   UNL     1      36.681 -19.852 -20.677  0.00  0.00    -0.000 C 
ATOM      8  C   UNL     1      33.052 -20.438 -20.159  0.00  0.00    -0.000 C 
ATOM      9  C   UNL     1      35.484 -21.619 -19.473  0.00  0.00    -0.000 C 
ATOM     10  C   UNL     1      33.071 -21.603 -19.393  0.00  0.00    -0.000 C 
ATOM     11  C   UNL     1      34.285 -22.193 -19.050  0.00  0.00    -0.000 C 
ENDBRANCH   1   2
BRANCH   1  12
ATOM     12  O   UNL     1      34.658 -17.067 -23.776  0.00  0.00    -0.352 OA
BRANCH  12  14
ATOM     13  N   UNL     1      33.486 -13.323 -25.230  0.00  0.00    +0.384 N 
ATOM     14  C   UNL     1      33.791 -15.971 -24.040  0.00  0.00    +0.111 C 
ATOM     15  C   UNL     1      33.697 -15.763 -25.549  0.00  0.00    +0.006 C 
ATOM     16  C   UNL     1      34.323 -14.710 -23.364  0.00  0.00    +0.006 C 
ATOM     17  C   UNL     1      32.912 -14.499 -25.886  0.00  0.00    -0.079 C 
ATOM     18  C   UNL     1      33.517 -13.480 -23.775  0.00  0.00    -0.079 C 
ATOM     19  H   UNL     1      32.922 -12.506 -25.463  0.00  0.00    -0.085 HD
ATOM     20  H   UNL     1      34.445 -13.210 -25.559  0.00  0.00    -0.085 HD
ENDBRANCH  12  14
ENDBRANCH   1  12
TORSDOF 3
ENDMDL
MODEL 4
REMARK VINA RESULT:      -9.5      2.695      6.817
REMARK  Name = 65650
REMARK  3 active torsions:
REMARK  status: ('A' for Active; 'I' for Inactive)
REMARK    1  A    between atoms: C_1  and  C_2
REMARK    2  A    between atoms: C_1  and  O_12
REMARK    3  A    between atoms: O_12  and  C_14
REMARK                            x       y       z     vdW  Elec       q    Type
REMARK                         _______ _______ _______ _____ _____    ______ ____
ROOT
ATOM      1  C   UNL     1      36.067 -18.325 -21.688  0.00  0.00    +0.168 C 
ENDROOT
BRANCH   1   2
ATOM      2  C   UNL     1      35.382 -17.583 -22.785  0.00  0.00    +0.007 C 
ATOM      3  C   UNL     1      35.001 -16.254 -22.597  0.00  0.00    -0.002 C 
ATOM      4  C   UNL     1      34.355 -15.543 -23.621  0.00  0.00    -0.000 C 
ATOM      5  C   UNL     1      35.123 -18.217 -23.997  0.00  0.00    -0.002 C 
ATOM      6  C   UNL     1      34.091 -16.187 -24.853  0.00  0.00    -0.000 C 
ATOM      7  C   UNL     1      34.482 -17.525 -25.025  0.00  0.00    -0.000 C 
ATOM      8  C   UNL     1      33.965 -14.204 -23.449  0.00  0.00    -0.000 C 
ATOM      9  C   UNL     1      33.445 -15.475 -25.877  0.00  0.00    -0.000 C 
ATOM     10  C   UNL     1      33.323 -13.512 -24.476  0.00  0.00    -0.000 C 
ATOM     11  C   UNL     1      33.063 -14.147 -25.688  0.00  0.00    -0.000 C 
ENDBRANCH   1   2
BRANCH   1  12
ATOM     12  O   UNL     1      35.701 -19.698 -21.745  0.00  0.00    -0.352 OA
BRANCH  12  14
ATOM     13  N   UNL     1      33.264 -22.080 -19.317  0.00  0.00    +0.384 N 
ATOM     14  C   UNL     1      35.007 -20.102 -20.572  0.00  0.00    +0.111 C 
ATOM     15  C   UNL     1      35.513 -21.477 -20.143  0.00  0.00    +0.006 C 
ATOM     16  C   UNL     1      33.505 -20.151 -20.843  0.00  0.00    +0.006 C 
ATOM     17  C   UNL     1      34.690 -22.034 -18.985  0.00  0.00    -0.079 C 
ATOM     18  C   UNL     1      32.749 -20.753 -19.662  0.00  0.00    -0.079 C 
ATOM     19  H   UNL     1      32.749 -22.437 -18.513  0.00  0.00    -0.085 HD
ATOM     20  H   UNL     1      33.144 -22.689 -20.127  0.00  0.00    -0.085 HD
ENDBRANCH  12  14
ENDBRANCH   1  12
TORSDOF 3
ENDMDL
MODEL 5
REMARK VINA RESULT:      -9.5      4.574      7.983
REMARK  Name = 65650
REMARK  3 active torsions:
REMARK  status: ('A' for Active; 'I' for Inactive)
REMARK    1  A    between atoms: C_1  and  C_2
REMARK    2  A    between atoms: C_1  and  O_12
REMARK    3  A    between atoms: O_12  and  C_14
REMARK                            x       y       z     vdW  Elec       q    Type
REMARK                         _______ _______ _______ _____ _____    ______ ____
ROOT
ATOM      1  C   UNL     1      33.527 -23.163 -18.091  0.00  0.00    +0.168 C 
ENDROOT
BRANCH   1   2
ATOM      2  C   UNL     1      34.303 -22.136 -18.845  0.00  0.00    +0.007 C 
ATOM      3  C   UNL     1      33.643 -21.258 -19.707  0.00  0.00    -0.002 C 
ATOM      4  C   UNL     1      34.359 -20.285 -20.423  0.00  0.00    -0.000 C 
ATOM      5  C   UNL     1      35.683 -22.052 -18.687  0.00  0.00    -0.002 C 
ATOM      6  C   UNL     1      35.763 -20.200 -20.263  0.00  0.00    -0.000 C 
ATOM      7  C   UNL     1      36.409 -21.091 -19.391  0.00  0.00    -0.000 C 
ATOM      8  C   UNL     1      33.712 -19.393 -21.294  0.00  0.00    -0.000 C 
ATOM      9  C   UNL     1      36.478 -19.227 -20.980  0.00  0.00    -0.000 C 
ATOM     10  C   UNL     1      34.438 -18.434 -21.999  0.00  0.00    -0.000 C 
ATOM     11  C   UNL     1      35.819 -18.351 -21.842  0.00  0.00    -0.000 C 
ENDBRANCH   1   2
BRANCH   1  12
ATOM     12  O   UNL     1      32.318 -22.586 -17.615  0.00  0.00    -0.352 OA
BRANCH  12  14
ATOM     13  N   UNL     1      30.601 -23.381 -13.883  0.00  0.00    +0.384 N 
ATOM     14  C   UNL     1      31.747 -23.360 -16.568  0.00  0.00    +0.111 C 
ATOM     15  C   UNL     1      30.338 -22.849 -16.281  0.00  0.00    +0.006 C 
ATOM     16  C   UNL     1      32.613 -23.262 -15.314  0.00  0.00    +0.006 C 
ATOM     17  C   UNL     1      29.739 -23.534 -15.056  0.00  0.00    -0.079 C 
ATOM     18  C   UNL     1      31.936 -23.933 -14.121  0.00  0.00    -0.079 C 
ATOM     19  H   UNL     1      30.177 -23.869 -13.094  0.00  0.00    -0.085 HD
ATOM     20  H   UNL     1      30.699 -22.385 -13.686  0.00  0.00    -0.085 HD
ENDBRANCH  12  14
ENDBRANCH   1  12
TORSDOF 3
ENDMDL
MODEL 6
REMARK VINA RESULT:      -9.4      1.346      2.301
REMARK  Name = 65650
REMARK  3 active torsions:
REMARK  status: ('A' for Active; 'I' for Inactive)
REMARK    1  A    between atoms: C_1  and  C_2
REMARK    2  A    between atoms: C_1  and  O_12
REMARK    3  A    between atoms: O_12  and  C_14
REMARK                            x       y       z     vdW  Elec       q    Type
REMARK                         _______ _______ _______ _____ _____    ______ ____
ROOT
ATOM      1  C   UNL     1      35.701 -17.635 -22.716  0.00  0.00    +0.168 C 
ENDROOT
BRANCH   1   2
ATOM      2  C   UNL     1      35.122 -18.682 -21.825  0.00  0.00    +0.007 C 
ATOM      3  C   UNL     1      35.955 -19.418 -20.981  0.00  0.00    -0.002 C 
ATOM      4  C   UNL     1      35.425 -20.407 -20.137  0.00  0.00    -0.000 C 
ATOM      5  C   UNL     1      33.752 -18.923 -21.834  0.00  0.00    -0.002 C 
ATOM      6  C   UNL     1      34.032 -20.652 -20.147  0.00  0.00    -0.000 C 
ATOM      7  C   UNL     1      33.209 -19.902 -21.002  0.00  0.00    -0.000 C 
ATOM      8  C   UNL     1      36.249 -21.157 -19.280  0.00  0.00    -0.000 C 
ATOM      9  C   UNL     1      33.502 -21.642 -19.302  0.00  0.00    -0.000 C 
ATOM     10  C   UNL     1      35.706 -22.136 -18.449  0.00  0.00    -0.000 C 
ATOM     11  C   UNL     1      34.335 -22.378 -18.460  0.00  0.00    -0.000 C 
ENDBRANCH   1   2
BRANCH   1  12
ATOM     12  O   UNL     1      34.973 -17.599 -23.937  0.00  0.00    -0.352 OA
BRANCH  12  14
ATOM     13  N   UNL     1      32.940 -14.015 -24.661  0.00  0.00    +0.384 N 
ATOM     14  C   UNL     1      34.779 -16.266 -24.390  0.00  0.00    +0.111 C 
ATOM     15  C   UNL     1      34.386 -15.389 -23.204  0.00  0.00    +0.006 C 
ATOM     16  C   UNL     1      33.690 -16.230 -25.460  0.00  0.00    +0.006 C 
ATOM     17  C   UNL     1      34.005 -13.983 -23.657  0.00  0.00    -0.079 C 
ATOM     18  C   UNL     1      33.331 -14.795 -25.836  0.00  0.00    -0.079 C 
ATOM     19  H   UNL     1      32.729 -13.060 -24.951  0.00  0.00    -0.085 HD
ATOM     20  H   UNL     1      32.120 -14.458 -24.243  0.00  0.00    -0.085 HD
ENDBRANCH  12  14
ENDBRANCH   1  12
TORSDOF 3
ENDMDL
MODEL 7
REMARK VINA RESULT:      -9.2      2.551      6.588
REMARK  Name = 65650
REMARK  3 active torsions:
REMARK  status: ('A' for Active; 'I' for Inactive)
REMARK    1  A    between atoms: C_1  and  C_2
REMARK    2  A    between atoms: C_1  and  O_12
REMARK    3  A    between atoms: O_12  and  C_14
REMARK                            x       y       z     vdW  Elec       q    Type
REMARK                         _______ _______ _______ _____ _____    ______ ____
ROOT
ATOM      1  C   UNL     1      36.063 -18.351 -21.519  0.00  0.00    +0.168 C 
ENDROOT
BRANCH   1   2
ATOM      2  C   UNL     1      35.241 -17.199 -21.991  0.00  0.00    +0.007 C 
ATOM      3  C   UNL     1      34.561 -16.403 -21.068  0.00  0.00    -0.002 C 
ATOM      4  C   UNL     1      33.784 -15.316 -21.496  0.00  0.00    -0.000 C 
ATOM      5  C   UNL     1      35.153 -16.918 -23.351  0.00  0.00    -0.002 C 
ATOM      6  C   UNL     1      33.694 -15.030 -22.879  0.00  0.00    -0.000 C 
ATOM      7  C   UNL     1      34.385 -15.841 -23.794  0.00  0.00    -0.000 C 
ATOM      8  C   UNL     1      33.093 -14.503 -20.581  0.00  0.00    -0.000 C 
ATOM      9  C   UNL     1      32.916 -13.941 -23.307  0.00  0.00    -0.000 C 
ATOM     10  C   UNL     1      32.324 -13.427 -21.024  0.00  0.00    -0.000 C 
ATOM     11  C   UNL     1      32.236 -13.147 -22.385  0.00  0.00    -0.000 C 
ENDBRANCH   1   2
BRANCH   1  12
ATOM     12  O   UNL     1      35.352 -19.562 -21.746  0.00  0.00    -0.352 OA
BRANCH  12  14
ATOM     13  N   UNL     1      33.303 -22.226 -19.254  0.00  0.00    +0.384 N 
ATOM     14  C   UNL     1      34.783 -20.066 -20.545  0.00  0.00    +0.111 C 
ATOM     15  C   UNL     1      35.428 -21.408 -20.213  0.00  0.00    +0.006 C 
ATOM     16  C   UNL     1      33.274 -20.228 -20.709  0.00  0.00    +0.006 C 
ATOM     17  C   UNL     1      34.741 -22.074 -19.024  0.00  0.00    -0.079 C 
ATOM     18  C   UNL     1      32.659 -20.935 -19.504  0.00  0.00    -0.079 C 
ATOM     19  H   UNL     1      32.880 -22.654 -18.431  0.00  0.00    -0.085 HD
ATOM     20  H   UNL     1      33.172 -22.812 -20.079  0.00  0.00    -0.085 HD
ENDBRANCH  12  14
ENDBRANCH   1  12
TORSDOF 3
ENDMDL
MODEL 8
REMARK VINA RESULT:      -9.2      0.960      1.924
REMARK  Name = 65650
REMARK  3 active torsions:
REMARK  status: ('A' for Active; 'I' for Inactive)
REMARK    1  A    between atoms: C_1  and  C_2
REMARK    2  A    between atoms: C_1  and  O_12
REMARK    3  A    between atoms: O_12  and  C_14
REMARK                            x       y       z     vdW  Elec       q    Type
REMARK                         _______ _______ _______ _____ _____    ______ ____
ROOT
ATOM      1  C   UNL     1      34.795 -17.971 -22.884  0.00  0.00    +0.168 C 
ENDROOT
BRANCH   1   2
ATOM      2  C   UNL     1      34.498 -19.000 -21.845  0.00  0.00    +0.007 C 
ATOM      3  C   UNL     1      35.537 -19.561 -21.102  0.00  0.00    -0.002 C 
ATOM      4  C   UNL     1      35.273 -20.530 -20.121  0.00  0.00    -0.000 C 
ATOM      5  C   UNL     1      33.185 -19.399 -21.618  0.00  0.00    -0.002 C 
ATOM      6  C   UNL     1      33.938 -20.936 -19.890  0.00  0.00    -0.000 C 
ATOM      7  C   UNL     1      32.905 -20.361 -20.647  0.00  0.00    -0.000 C 
ATOM      8  C   UNL     1      36.307 -21.105 -19.362  0.00  0.00    -0.000 C 
ATOM      9  C   UNL     1      33.675 -21.906 -18.907  0.00  0.00    -0.000 C 
ATOM     10  C   UNL     1      36.027 -22.067 -18.392  0.00  0.00    -0.000 C 
ATOM     11  C   UNL     1      34.713 -22.467 -18.165  0.00  0.00    -0.000 C 
ENDBRANCH   1   2
BRANCH   1  12
ATOM     12  O   UNL     1      35.610 -16.952 -22.318  0.00  0.00    -0.352 OA
BRANCH  12  14
ATOM     13  N   UNL     1      32.356 -14.347 -21.956  0.00  0.00    +0.384 N 
ATOM     14  C   UNL     1      34.921 -15.710 -22.252  0.00  0.00    +0.111 C 
ATOM     15  C   UNL     1      34.203 -15.610 -20.909  0.00  0.00    +0.006 C 
ATOM     16  C   UNL     1      33.917 -15.608 -23.398  0.00  0.00    +0.006 C 
ATOM     17  C   UNL     1      33.313 -14.372 -20.848  0.00  0.00    -0.079 C 
ATOM     18  C   UNL     1      33.035 -14.371 -23.253  0.00  0.00    -0.079 C 
ATOM     19  H   UNL     1      31.796 -13.497 -21.891  0.00  0.00    -0.085 HD
ATOM     20  H   UNL     1      31.768 -15.178 -21.889  0.00  0.00    -0.085 HD
ENDBRANCH  12  14
ENDBRANCH   1  12
TORSDOF 3
ENDMDL
MODEL 9
REMARK VINA RESULT:      -9.1      2.420      4.352
REMARK  Name = 65650
REMARK  3 active torsions:
REMARK  status: ('A' for Active; 'I' for Inactive)
REMARK    1  A    between atoms: C_1  and  C_2
REMARK    2  A    between atoms: C_1  and  O_12
REMARK    3  A    between atoms: O_12  and  C_14
REMARK                            x       y       z     vdW  Elec       q    Type
REMARK                         _______ _______ _______ _____ _____    ______ ____
ROOT
ATOM      1  C   UNL     1      35.113 -20.418 -20.946  0.00  0.00    +0.168 C 
ENDROOT
BRANCH   1   2
ATOM      2  C   UNL     1      35.027 -21.212 -19.687  0.00  0.00    +0.007 C 
ATOM      3  C   UNL     1      36.136 -21.308 -18.845  0.00  0.00    -0.002 C 
ATOM      4  C   UNL     1      36.070 -22.051 -17.656  0.00  0.00    -0.000 C 
ATOM      5  C   UNL     1      33.840 -21.857 -19.351  0.00  0.00    -0.002 C 
ATOM      6  C   UNL     1      34.864 -22.708 -17.315  0.00  0.00    -0.000 C 
ATOM      7  C   UNL     1      33.758 -22.600 -18.173  0.00  0.00    -0.000 C 
ATOM      8  C   UNL     1      37.177 -22.158 -16.797  0.00  0.00    -0.000 C 
ATOM      9  C   UNL     1      34.799 -23.452 -16.125  0.00  0.00    -0.000 C 
ATOM     10  C   UNL     1      37.095 -22.902 -15.620  0.00  0.00    -0.000 C 
ATOM     11  C   UNL     1      35.908 -23.548 -15.285  0.00  0.00    -0.000 C 
ENDBRANCH   1   2
BRANCH   1  12
ATOM     12  O   UNL     1      35.155 -19.032 -20.628  0.00  0.00    -0.352 OA
BRANCH  12  14
ATOM     13  N   UNL     1      35.358 -16.421 -23.891  0.00  0.00    +0.384 N 
ATOM     14  C   UNL     1      34.682 -18.235 -21.705  0.00  0.00    +0.111 C 
ATOM     15  C   UNL     1      35.314 -18.726 -23.004  0.00  0.00    +0.006 C 
ATOM     16  C   UNL     1      35.035 -16.768 -21.466  0.00  0.00    +0.006 C 
ATOM     17  C   UNL     1      34.971 -17.805 -24.171  0.00  0.00    -0.079 C 
ATOM     18  C   UNL     1      34.702 -15.913 -22.685  0.00  0.00    -0.079 C 
ATOM     19  H   UNL     1      35.094 -15.836 -24.684  0.00  0.00    -0.085 HD
ATOM     20  H   UNL     1      36.367 -16.396 -23.739  0.00  0.00    -0.085 HD
ENDBRANCH  12  14
ENDBRANCH   1  12
TORSDOF 3
ENDMDL
