MODEL 1
REMARK VINA RESULT:     -10.7      0.000      0.000
REMARK  Name = 3360
REMARK  10 active torsions:
REMARK  status: ('A' for Active; 'I' for Inactive)
REMARK    1  A    between atoms: N_1  and  C_5
REMARK    2  A    between atoms: N_1  and  C_17
REMARK    3  A    between atoms: C_7  and  C_16
REMARK    4  A    between atoms: C_18  and  C_24
REMARK    5  A    between atoms: C_24  and  O_25
REMARK    6  A    between atoms: O_25  and  C_26
REMARK    7  A    between atoms: C_26  and  C_27
REMARK    8  A    between atoms: C_27  and  O_28
REMARK    9  A    between atoms: C_27  and  C_30
REMARK   10  A    between atoms: C_30  and  O_31
REMARK                            x       y       z     vdW  Elec       q    Type
REMARK                         _______ _______ _______ _____ _____    ______ ____
ROOT
ATOM      1  N   UNL     1      33.861 -23.260 -17.739  0.00  0.00    -0.312 N 
ATOM      2  H   UNL     1      33.807 -24.104 -18.243  0.00  0.00    +0.152 HD
ENDROOT
BRANCH   1   5
ATOM      3  N   UNL     1      36.567 -20.491 -19.360  0.00  0.00    -0.244 NA
ATOM      4  C   UNL     1      34.344 -21.422 -19.301  0.00  0.00    +0.031 C 
ATOM      5  C   UNL     1      34.752 -22.316 -18.301  0.00  0.00    +0.051 C 
ATOM      6  C   UNL     1      35.297 -20.514 -19.808  0.00  0.00    +0.086 C 
ATOM      7  C   UNL     1      34.892 -19.625 -20.800  0.00  0.00    +0.089 C 
ATOM      8  C   UNL     1      33.028 -21.417 -19.792  0.00  0.00    +0.003 C 
ATOM      9  C   UNL     1      36.059 -22.296 -17.838  0.00  0.00    +0.035 C 
ATOM     10  C   UNL     1      33.584 -19.620 -21.290  0.00  0.00    +0.005 C 
ATOM     11  C   UNL     1      32.650 -20.517 -20.785  0.00  0.00    +0.000 C 
ATOM     12  C   UNL     1      36.920 -21.372 -18.395  0.00  0.00    +0.100 C 
BRANCH   7  16
ATOM     13  F   UNL     1      35.714 -17.379 -20.876  0.00  0.00    -0.166 F 
ATOM     14  F   UNL     1      37.166 -18.967 -21.147  0.00  0.00    -0.166 F 
ATOM     15  F   UNL     1      35.741 -18.519 -22.727  0.00  0.00    -0.166 F 
ATOM     16  C   UNL     1      35.862 -18.639 -21.375  0.00  0.00    +0.420 C 
ENDBRANCH   7  16
ENDBRANCH   1   5
BRANCH   1  17
ATOM     17  C   UNL     1      33.037 -23.227 -16.601  0.00  0.00    +0.055 C 
ATOM     18  C   UNL     1      33.536 -23.551 -15.336  0.00  0.00    +0.089 C 
ATOM     19  C   UNL     1      31.694 -22.860 -16.738  0.00  0.00    +0.015 C 
ATOM     20  C   UNL     1      32.702 -23.509 -14.219  0.00  0.00    +0.008 C 
ATOM     21  C   UNL     1      30.860 -22.819 -15.620  0.00  0.00    +0.001 C 
ATOM     22  C   UNL     1      31.363 -23.144 -14.362  0.00  0.00    +0.000 C 
BRANCH  18  24
ATOM     23  O   UNL     1      35.464 -24.903 -15.710  0.00  0.00    -0.245 OA
ATOM     24  C   UNL     1      34.930 -23.937 -15.154  0.00  0.00    +0.342 C 
BRANCH  24  25
ATOM     25  O   UNL     1      35.572 -23.094 -14.291  0.00  0.00    -0.443 OA
BRANCH  25  26
ATOM     26  C   UNL     1      36.579 -23.673 -13.454  0.00  0.00    +0.240 C 
BRANCH  26  27
ATOM     27  C   UNL     1      36.379 -23.220 -12.013  0.00  0.00    +0.184 C 
BRANCH  27  28
ATOM     28  O   UNL     1      37.648 -22.855 -11.467  0.00  0.00    -0.378 OA
ATOM     29  H   UNL     1      38.296 -23.552 -11.658  0.00  0.00    +0.211 HD
ENDBRANCH  27  28
BRANCH  27  30
ATOM     30  C   UNL     1      35.801 -24.336 -11.153  0.00  0.00    +0.170 C 
BRANCH  30  31
ATOM     31  O   UNL     1      34.772 -24.997 -11.882  0.00  0.00    -0.379 OA
ATOM     32  H   UNL     1      35.015 -25.037 -12.820  0.00  0.00    +0.211 HD
ENDBRANCH  30  31
ENDBRANCH  27  30
ENDBRANCH  26  27
ENDBRANCH  25  26
ENDBRANCH  24  25
ENDBRANCH  18  24
ENDBRANCH   1  17
TORSDOF 10
ENDMDL
MODEL 2
REMARK VINA RESULT:     -10.6      1.525      2.119
REMARK  Name = 3360
REMARK  10 active torsions:
REMARK  status: ('A' for Active; 'I' for Inactive)
REMARK    1  A    between atoms: N_1  and  C_5
REMARK    2  A    between atoms: N_1  and  C_17
REMARK    3  A    between atoms: C_7  and  C_16
REMARK    4  A    between atoms: C_18  and  C_24
REMARK    5  A    between atoms: C_24  and  O_25
REMARK    6  A    between atoms: O_25  and  C_26
REMARK    7  A    between atoms: C_26  and  C_27
REMARK    8  A    between atoms: C_27  and  O_28
REMARK    9  A    between atoms: C_27  and  C_30
REMARK   10  A    between atoms: C_30  and  O_31
REMARK                            x       y       z     vdW  Elec       q    Type
REMARK                         _______ _______ _______ _____ _____    ______ ____
ROOT
ATOM      1  N   UNL     1      34.144 -23.133 -17.996  0.00  0.00    -0.312 N 
ATOM      2  H   UNL     1      34.210 -24.001 -18.456  0.00  0.00    +0.152 HD
ENDROOT
BRANCH   1   5
ATOM      3  N   UNL     1      36.565 -20.148 -19.683  0.00  0.00    -0.244 NA
ATOM      4  C   UNL     1      34.411 -21.215 -19.515  0.00  0.00    +0.031 C 
ATOM      5  C   UNL     1      34.937 -22.117 -18.579  0.00  0.00    +0.051 C 
ATOM      6  C   UNL     1      35.271 -20.233 -20.048  0.00  0.00    +0.086 C 
ATOM      7  C   UNL     1      34.748 -19.338 -20.977  0.00  0.00    +0.089 C 
ATOM      8  C   UNL     1      33.066 -21.276 -19.918  0.00  0.00    +0.003 C 
ATOM      9  C   UNL     1      36.269 -22.031 -18.201  0.00  0.00    +0.035 C 
ATOM     10  C   UNL     1      33.411 -19.397 -21.379  0.00  0.00    +0.005 C 
ATOM     11  C   UNL     1      32.569 -20.367 -20.849  0.00  0.00    +0.000 C 
ATOM     12  C   UNL     1      37.034 -21.038 -18.778  0.00  0.00    +0.100 C 
BRANCH   7  16
ATOM     13  F   UNL     1      35.226 -17.897 -22.826  0.00  0.00    -0.166 F 
ATOM     14  F   UNL     1      35.645 -17.124 -20.844  0.00  0.00    -0.166 F 
ATOM     15  F   UNL     1      36.914 -18.671 -21.695  0.00  0.00    -0.166 F 
ATOM     16  C   UNL     1      35.616 -18.275 -21.576  0.00  0.00    +0.420 C 
ENDBRANCH   7  16
ENDBRANCH   1   5
BRANCH   1  17
ATOM     17  C   UNL     1      33.279 -23.143 -16.889  0.00  0.00    +0.055 C 
ATOM     18  C   UNL     1      33.765 -23.335 -15.592  0.00  0.00    +0.089 C 
ATOM     19  C   UNL     1      31.907 -22.957 -17.088  0.00  0.00    +0.015 C 
ATOM     20  C   UNL     1      32.890 -23.340 -14.506  0.00  0.00    +0.008 C 
ATOM     21  C   UNL     1      31.032 -22.963 -16.002  0.00  0.00    +0.001 C 
ATOM     22  C   UNL     1      31.523 -23.154 -14.711  0.00  0.00    +0.000 C 
BRANCH  18  24
ATOM     23  O   UNL     1      35.929 -22.689 -14.826  0.00  0.00    -0.245 OA
ATOM     24  C   UNL     1      35.189 -23.531 -15.344  0.00  0.00    +0.342 C 
BRANCH  24  25
ATOM     25  O   UNL     1      35.601 -24.767 -15.759  0.00  0.00    -0.443 OA
BRANCH  25  26
ATOM     26  C   UNL     1      36.199 -25.612 -14.769  0.00  0.00    +0.240 C 
BRANCH  26  27
ATOM     27  C   UNL     1      37.629 -25.950 -15.173  0.00  0.00    +0.184 C 
BRANCH  27  28
ATOM     28  O   UNL     1      37.989 -27.200 -14.582  0.00  0.00    -0.378 OA
ATOM     29  H   UNL     1      37.938 -27.902 -15.251  0.00  0.00    +0.211 HD
ENDBRANCH  27  28
BRANCH  27  30
ATOM     30  C   UNL     1      38.612 -24.897 -14.679  0.00  0.00    +0.170 C 
BRANCH  30  31
ATOM     31  O   UNL     1      38.604 -23.796 -15.582  0.00  0.00    -0.379 OA
ATOM     32  H   UNL     1      38.750 -22.973 -15.090  0.00  0.00    +0.211 HD
ENDBRANCH  30  31
ENDBRANCH  27  30
ENDBRANCH  26  27
ENDBRANCH  25  26
ENDBRANCH  24  25
ENDBRANCH  18  24
ENDBRANCH   1  17
TORSDOF 10
ENDMDL
MODEL 3
REMARK VINA RESULT:     -10.4      9.134     12.915
REMARK  Name = 3360
REMARK  10 active torsions:
REMARK  status: ('A' for Active; 'I' for Inactive)
REMARK    1  A    between atoms: N_1  and  C_5
REMARK    2  A    between atoms: N_1  and  C_17
REMARK    3  A    between atoms: C_7  and  C_16
REMARK    4  A    between atoms: C_18  and  C_24
REMARK    5  A    between atoms: C_24  and  O_25
REMARK    6  A    between atoms: O_25  and  C_26
REMARK    7  A    between atoms: C_26  and  C_27
REMARK    8  A    between atoms: C_27  and  O_28
REMARK    9  A    between atoms: C_27  and  C_30
REMARK   10  A    between atoms: C_30  and  O_31
REMARK                            x       y       z     vdW  Elec       q    Type
REMARK                         _______ _______ _______ _____ _____    ______ ____
ROOT
ATOM      1  N   UNL     1      32.972 -12.871 -24.000  0.00  0.00    -0.312 N 
ATOM      2  H   UNL     1      32.050 -12.800 -23.663  0.00  0.00    +0.152 HD
ENDROOT
BRANCH   1   5
ATOM      3  N   UNL     1      34.289 -16.818 -24.551  0.00  0.00    -0.244 NA
ATOM      4  C   UNL     1      33.912 -14.950 -23.076  0.00  0.00    +0.031 C 
ATOM      5  C   UNL     1      33.421 -14.204 -24.157  0.00  0.00    +0.051 C 
ATOM      6  C   UNL     1      34.340 -16.271 -23.322  0.00  0.00    +0.086 C 
ATOM      7  C   UNL     1      34.826 -17.012 -22.248  0.00  0.00    +0.089 C 
ATOM      8  C   UNL     1      33.979 -14.410 -21.781  0.00  0.00    +0.003 C 
ATOM      9  C   UNL     1      33.368 -14.764 -25.425  0.00  0.00    +0.035 C 
ATOM     10  C   UNL     1      34.894 -16.476 -20.959  0.00  0.00    +0.005 C 
ATOM     11  C   UNL     1      34.470 -15.174 -20.725  0.00  0.00    +0.000 C 
ATOM     12  C   UNL     1      33.810 -16.064 -25.567  0.00  0.00    +0.100 C 
BRANCH   7  16
ATOM     13  F   UNL     1      36.122 -18.566 -23.523  0.00  0.00    -0.166 F 
ATOM     14  F   UNL     1      35.990 -18.916 -21.387  0.00  0.00    -0.166 F 
ATOM     15  F   UNL     1      34.263 -19.286 -22.655  0.00  0.00    -0.166 F 
ATOM     16  C   UNL     1      35.295 -18.420 -22.450  0.00  0.00    +0.420 C 
ENDBRANCH   7  16
ENDBRANCH   1   5
BRANCH   1  17
ATOM     17  C   UNL     1      33.587 -11.629 -24.232  0.00  0.00    +0.055 C 
ATOM     18  C   UNL     1      33.236 -10.497 -23.489  0.00  0.00    +0.089 C 
ATOM     19  C   UNL     1      34.568 -11.524 -25.223  0.00  0.00    +0.015 C 
ATOM     20  C   UNL     1      33.860  -9.274 -23.733  0.00  0.00    +0.008 C 
ATOM     21  C   UNL     1      35.192 -10.300 -25.468  0.00  0.00    +0.001 C 
ATOM     22  C   UNL     1      34.838  -9.176 -24.724  0.00  0.00    +0.000 C 
BRANCH  18  24
ATOM     23  O   UNL     1      31.841 -11.616 -21.912  0.00  0.00    -0.245 OA
ATOM     24  C   UNL     1      32.219 -10.568 -22.447  0.00  0.00    +0.342 C 
BRANCH  24  25
ATOM     25  O   UNL     1      31.736  -9.328 -22.136  0.00  0.00    -0.443 OA
BRANCH  25  26
ATOM     26  C   UNL     1      31.932  -8.879 -20.791  0.00  0.00    +0.240 C 
BRANCH  26  27
ATOM     27  C   UNL     1      32.734  -7.583 -20.788  0.00  0.00    +0.184 C 
BRANCH  27  28
ATOM     28  O   UNL     1      33.090  -7.266 -19.441  0.00  0.00    -0.378 OA
ATOM     29  H   UNL     1      32.541  -7.785 -18.831  0.00  0.00    +0.211 HD
ENDBRANCH  27  28
BRANCH  27  30
ATOM     30  C   UNL     1      31.921  -6.423 -21.345  0.00  0.00    +0.170 C 
BRANCH  30  31
ATOM     31  O   UNL     1      32.110  -6.359 -22.755  0.00  0.00    -0.379 OA
ATOM     32  H   UNL     1      31.275  -6.114 -23.183  0.00  0.00    +0.211 HD
ENDBRANCH  30  31
ENDBRANCH  27  30
ENDBRANCH  26  27
ENDBRANCH  25  26
ENDBRANCH  24  25
ENDBRANCH  18  24
ENDBRANCH   1  17
TORSDOF 10
ENDMDL
MODEL 4
REMARK VINA RESULT:     -10.3      1.987      2.917
REMARK  Name = 3360
REMARK  10 active torsions:
REMARK  status: ('A' for Active; 'I' for Inactive)
REMARK    1  A    between atoms: N_1  and  C_5
REMARK    2  A    between atoms: N_1  and  C_17
REMARK    3  A    between atoms: C_7  and  C_16
REMARK    4  A    between atoms: C_18  and  C_24
REMARK    5  A    between atoms: C_24  and  O_25
REMARK    6  A    between atoms: O_25  and  C_26
REMARK    7  A    between atoms: C_26  and  C_27
REMARK    8  A    between atoms: C_27  and  O_28
REMARK    9  A    between atoms: C_27  and  C_30
REMARK   10  A    between atoms: C_30  and  O_31
REMARK                            x       y       z     vdW  Elec       q    Type
REMARK                         _______ _______ _______ _____ _____    ______ ____
ROOT
ATOM      1  N   UNL     1      34.197 -22.647 -18.299  0.00  0.00    -0.312 N 
ATOM      2  H   UNL     1      34.927 -23.254 -18.559  0.00  0.00    +0.152 HD
ENDROOT
BRANCH   1   5
ATOM      3  N   UNL     1      33.451 -19.541 -21.022  0.00  0.00    -0.244 NA
ATOM      4  C   UNL     1      35.033 -20.874 -19.787  0.00  0.00    +0.031 C 
ATOM      5  C   UNL     1      33.974 -21.596 -19.220  0.00  0.00    +0.051 C 
ATOM      6  C   UNL     1      34.722 -19.842 -20.696  0.00  0.00    +0.086 C 
ATOM      7  C   UNL     1      35.775 -19.126 -21.260  0.00  0.00    +0.089 C 
ATOM      8  C   UNL     1      36.371 -21.161 -19.469  0.00  0.00    +0.003 C 
ATOM      9  C   UNL     1      32.663 -21.289 -19.553  0.00  0.00    +0.035 C 
ATOM     10  C   UNL     1      37.106 -19.410 -20.944  0.00  0.00    +0.005 C 
ATOM     11  C   UNL     1      37.405 -20.429 -20.048  0.00  0.00    +0.000 C 
ATOM     12  C   UNL     1      32.457 -20.261 -20.451  0.00  0.00    +0.100 C 
BRANCH   7  16
ATOM     13  F   UNL     1      34.644 -18.372 -23.229  0.00  0.00    -0.166 F 
ATOM     14  F   UNL     1      34.950 -16.915 -21.651  0.00  0.00    -0.166 F 
ATOM     15  F   UNL     1      36.635 -17.582 -22.851  0.00  0.00    -0.166 F 
ATOM     16  C   UNL     1      35.503 -18.018 -22.230  0.00  0.00    +0.420 C 
ENDBRANCH   7  16
ENDBRANCH   1   5
BRANCH   1  17
ATOM     17  C   UNL     1      33.578 -22.992 -17.086  0.00  0.00    +0.055 C 
ATOM     18  C   UNL     1      34.328 -23.215 -15.927  0.00  0.00    +0.089 C 
ATOM     19  C   UNL     1      32.185 -23.114 -17.037  0.00  0.00    +0.015 C 
ATOM     20  C   UNL     1      33.694 -23.555 -14.733  0.00  0.00    +0.008 C 
ATOM     21  C   UNL     1      31.551 -23.456 -15.842  0.00  0.00    +0.001 C 
ATOM     22  C   UNL     1      32.305 -23.676 -14.690  0.00  0.00    +0.000 C 
BRANCH  18  24
ATOM     23  O   UNL     1      36.393 -22.035 -16.103  0.00  0.00    -0.245 OA
ATOM     24  C   UNL     1      35.782 -23.096 -15.939  0.00  0.00    +0.342 C 
BRANCH  24  25
ATOM     25  O   UNL     1      36.383 -24.308 -15.746  0.00  0.00    -0.443 OA
BRANCH  25  26
ATOM     26  C   UNL     1      37.592 -24.312 -14.980  0.00  0.00    +0.240 C 
BRANCH  26  27
ATOM     27  C   UNL     1      37.992 -25.745 -14.650  0.00  0.00    +0.184 C 
BRANCH  27  28
ATOM     28  O   UNL     1      39.076 -26.127 -15.501  0.00  0.00    -0.378 OA
ATOM     29  H   UNL     1      39.808 -25.499 -15.393  0.00  0.00    +0.211 HD
ENDBRANCH  27  28
BRANCH  27  30
ATOM     30  C   UNL     1      36.843 -26.715 -14.891  0.00  0.00    +0.170 C 
BRANCH  30  31
ATOM     31  O   UNL     1      36.920 -27.201 -16.227  0.00  0.00    -0.379 OA
ATOM     32  H   UNL     1      37.838 -27.155 -16.536  0.00  0.00    +0.211 HD
ENDBRANCH  30  31
ENDBRANCH  27  30
ENDBRANCH  26  27
ENDBRANCH  25  26
ENDBRANCH  24  25
ENDBRANCH  18  24
ENDBRANCH   1  17
TORSDOF 10
ENDMDL
MODEL 5
REMARK VINA RESULT:     -10.2      9.469     12.922
REMARK  Name = 3360
REMARK  10 active torsions:
REMARK  status: ('A' for Active; 'I' for Inactive)
REMARK    1  A    between atoms: N_1  and  C_5
REMARK    2  A    between atoms: N_1  and  C_17
REMARK    3  A    between atoms: C_7  and  C_16
REMARK    4  A    between atoms: C_18  and  C_24
REMARK    5  A    between atoms: C_24  and  O_25
REMARK    6  A    between atoms: O_25  and  C_26
REMARK    7  A    between atoms: C_26  and  C_27
REMARK    8  A    between atoms: C_27  and  O_28
REMARK    9  A    between atoms: C_27  and  C_30
REMARK   10  A    between atoms: C_30  and  O_31
REMARK                            x       y       z     vdW  Elec       q    Type
REMARK                         _______ _______ _______ _____ _____    ______ ____
ROOT
ATOM      1  N   UNL     1      33.854 -12.066 -23.718  0.00  0.00    -0.312 N 
ATOM      2  H   UNL     1      34.750 -12.156 -23.318  0.00  0.00    +0.152 HD
ENDROOT
BRANCH   1   5
ATOM      3  N   UNL     1      31.425  -9.201 -21.843  0.00  0.00    -0.244 NA
ATOM      4  C   UNL     1      33.316  -9.711 -23.249  0.00  0.00    +0.031 C 
ATOM      5  C   UNL     1      33.051 -11.079 -23.098  0.00  0.00    +0.051 C 
ATOM      6  C   UNL     1      32.466  -8.794 -22.596  0.00  0.00    +0.086 C 
ATOM      7  C   UNL     1      32.728  -7.435 -22.747  0.00  0.00    +0.089 C 
ATOM      8  C   UNL     1      34.392  -9.251 -24.026  0.00  0.00    +0.003 C 
ATOM      9  C   UNL     1      31.980 -11.501 -22.324  0.00  0.00    +0.035 C 
ATOM     10  C   UNL     1      33.799  -6.977 -23.519  0.00  0.00    +0.005 C 
ATOM     11  C   UNL     1      34.632  -7.886 -24.160  0.00  0.00    +0.000 C 
ATOM     12  C   UNL     1      31.205 -10.530 -21.723  0.00  0.00    +0.100 C 
BRANCH   7  16
ATOM     13  F   UNL     1      30.542  -6.521 -22.415  0.00  0.00    -0.166 F 
ATOM     14  F   UNL     1      31.889  -6.493 -20.714  0.00  0.00    -0.166 F 
ATOM     15  F   UNL     1      32.222  -5.140 -22.383  0.00  0.00    -0.166 F 
ATOM     16  C   UNL     1      31.859  -6.417 -22.076  0.00  0.00    +0.420 C 
ENDBRANCH   7  16
ENDBRANCH   1   5
BRANCH   1  17
ATOM     17  C   UNL     1      33.622 -12.940 -24.793  0.00  0.00    +0.055 C 
ATOM     18  C   UNL     1      33.452 -14.313 -24.586  0.00  0.00    +0.089 C 
ATOM     19  C   UNL     1      33.559 -12.427 -26.092  0.00  0.00    +0.015 C 
ATOM     20  C   UNL     1      33.221 -15.163 -25.666  0.00  0.00    +0.008 C 
ATOM     21  C   UNL     1      33.329 -13.279 -27.173  0.00  0.00    +0.001 C 
ATOM     22  C   UNL     1      33.160 -14.646 -26.961  0.00  0.00    +0.000 C 
BRANCH  18  24
ATOM     23  O   UNL     1      32.612 -14.778 -22.404  0.00  0.00    -0.245 OA
ATOM     24  C   UNL     1      33.510 -14.884 -23.245  0.00  0.00    +0.342 C 
BRANCH  24  25
ATOM     25  O   UNL     1      34.685 -15.551 -23.038  0.00  0.00    -0.443 OA
BRANCH  25  26
ATOM     26  C   UNL     1      34.888 -16.107 -21.735  0.00  0.00    +0.240 C 
BRANCH  26  27
ATOM     27  C   UNL     1      34.879 -17.629 -21.813  0.00  0.00    +0.184 C 
BRANCH  27  28
ATOM     28  O   UNL     1      35.613 -18.150 -20.702  0.00  0.00    -0.378 OA
ATOM     29  H   UNL     1      35.071 -18.087 -19.899  0.00  0.00    +0.211 HD
ENDBRANCH  27  28
BRANCH  27  30
ATOM     30  C   UNL     1      35.545 -18.126 -23.089  0.00  0.00    +0.170 C 
BRANCH  30  31
ATOM     31  O   UNL     1      34.561 -18.237 -24.112  0.00  0.00    -0.379 OA
ATOM     32  H   UNL     1      34.181 -19.129 -24.099  0.00  0.00    +0.211 HD
ENDBRANCH  30  31
ENDBRANCH  27  30
ENDBRANCH  26  27
ENDBRANCH  25  26
ENDBRANCH  24  25
ENDBRANCH  18  24
ENDBRANCH   1  17
TORSDOF 10
ENDMDL
MODEL 6
REMARK VINA RESULT:     -10.1      9.120     12.757
REMARK  Name = 3360
REMARK  10 active torsions:
REMARK  status: ('A' for Active; 'I' for Inactive)
REMARK    1  A    between atoms: N_1  and  C_5
REMARK    2  A    between atoms: N_1  and  C_17
REMARK    3  A    between atoms: C_7  and  C_16
REMARK    4  A    between atoms: C_18  and  C_24
REMARK    5  A    between atoms: C_24  and  O_25
REMARK    6  A    between atoms: O_25  and  C_26
REMARK    7  A    between atoms: C_26  and  C_27
REMARK    8  A    between atoms: C_27  and  O_28
REMARK    9  A    between atoms: C_27  and  C_30
REMARK   10  A    between atoms: C_30  and  O_31
REMARK                            x       y       z     vdW  Elec       q    Type
REMARK                         _______ _______ _______ _____ _____    ______ ____
ROOT
ATOM      1  N   UNL     1      32.816 -12.941 -23.256  0.00  0.00    -0.312 N 
ATOM      2  H   UNL     1      31.836 -12.989 -23.338  0.00  0.00    +0.152 HD
ENDROOT
BRANCH   1   5
ATOM      3  N   UNL     1      34.551 -16.393 -21.616  0.00  0.00    -0.244 NA
ATOM      4  C   UNL     1      33.738 -15.204 -23.548  0.00  0.00    +0.031 C 
ATOM      5  C   UNL     1      33.403 -14.116 -22.730  0.00  0.00    +0.051 C 
ATOM      6  C   UNL     1      34.318 -16.337 -22.942  0.00  0.00    +0.086 C 
ATOM      7  C   UNL     1      34.652 -17.417 -23.755  0.00  0.00    +0.089 C 
ATOM      8  C   UNL     1      33.509 -15.179 -24.934  0.00  0.00    +0.003 C 
ATOM      9  C   UNL     1      33.641 -14.171 -21.365  0.00  0.00    +0.035 C 
ATOM     10  C   UNL     1      34.424 -17.394 -25.133  0.00  0.00    +0.005 C 
ATOM     11  C   UNL     1      33.852 -16.274 -25.724  0.00  0.00    +0.000 C 
ATOM     12  C   UNL     1      34.212 -15.323 -20.862  0.00  0.00    +0.100 C 
BRANCH   7  16
ATOM     13  F   UNL     1      35.357 -19.685 -24.044  0.00  0.00    -0.166 F 
ATOM     14  F   UNL     1      36.541 -18.448 -22.713  0.00  0.00    -0.166 F 
ATOM     15  F   UNL     1      34.567 -19.121 -22.098  0.00  0.00    -0.166 F 
ATOM     16  C   UNL     1      35.270 -18.646 -23.165  0.00  0.00    +0.420 C 
ENDBRANCH   7  16
ENDBRANCH   1   5
BRANCH   1  17
ATOM     17  C   UNL     1      33.360 -11.719 -23.686  0.00  0.00    +0.055 C 
ATOM     18  C   UNL     1      32.940 -10.505 -23.134  0.00  0.00    +0.089 C 
ATOM     19  C   UNL     1      34.341 -11.719 -24.684  0.00  0.00    +0.015 C 
ATOM     20  C   UNL     1      33.495  -9.303 -23.573  0.00  0.00    +0.008 C 
ATOM     21  C   UNL     1      34.895 -10.516 -25.124  0.00  0.00    +0.001 C 
ATOM     22  C   UNL     1      34.473  -9.309 -24.569  0.00  0.00    +0.000 C 
BRANCH  18  24
ATOM     23  O   UNL     1      31.430 -11.467 -21.560  0.00  0.00    -0.245 OA
ATOM     24  C   UNL     1      31.921 -10.466 -22.092  0.00  0.00    +0.342 C 
BRANCH  24  25
ATOM     25  O   UNL     1      31.578  -9.180 -21.778  0.00  0.00    -0.443 OA
BRANCH  25  26
ATOM     26  C   UNL     1      31.984  -8.702 -20.491  0.00  0.00    +0.240 C 
BRANCH  26  27
ATOM     27  C   UNL     1      32.689  -7.359 -20.635  0.00  0.00    +0.184 C 
BRANCH  27  28
ATOM     28  O   UNL     1      33.156  -6.946 -19.350  0.00  0.00    -0.378 OA
ATOM     29  H   UNL     1      34.114  -7.090 -19.292  0.00  0.00    +0.211 HD
ENDBRANCH  27  28
BRANCH  27  30
ATOM     30  C   UNL     1      31.743  -6.286 -21.158  0.00  0.00    +0.170 C 
BRANCH  30  31
ATOM     31  O   UNL     1      31.662  -6.391 -22.575  0.00  0.00    -0.379 OA
ATOM     32  H   UNL     1      32.531  -6.634 -22.932  0.00  0.00    +0.211 HD
ENDBRANCH  30  31
ENDBRANCH  27  30
ENDBRANCH  26  27
ENDBRANCH  25  26
ENDBRANCH  24  25
ENDBRANCH  18  24
ENDBRANCH   1  17
TORSDOF 10
ENDMDL
MODEL 7
REMARK VINA RESULT:     -10.1      2.625      4.395
REMARK  Name = 3360
REMARK  10 active torsions:
REMARK  status: ('A' for Active; 'I' for Inactive)
REMARK    1  A    between atoms: N_1  and  C_5
REMARK    2  A    between atoms: N_1  and  C_17
REMARK    3  A    between atoms: C_7  and  C_16
REMARK    4  A    between atoms: C_18  and  C_24
REMARK    5  A    between atoms: C_24  and  O_25
REMARK    6  A    between atoms: O_25  and  C_26
REMARK    7  A    between atoms: C_26  and  C_27
REMARK    8  A    between atoms: C_27  and  O_28
REMARK    9  A    between atoms: C_27  and  C_30
REMARK   10  A    between atoms: C_30  and  O_31
REMARK                            x       y       z     vdW  Elec       q    Type
REMARK                         _______ _______ _______ _____ _____    ______ ____
ROOT
ATOM      1  N   UNL     1      34.216 -22.829 -17.915  0.00  0.00    -0.312 N 
ATOM      2  H   UNL     1      33.538 -23.292 -18.458  0.00  0.00    +0.152 HD
ENDROOT
BRANCH   1   5
ATOM      3  N   UNL     1      36.602 -20.111 -20.047  0.00  0.00    -0.244 NA
ATOM      4  C   UNL     1      34.424 -21.038 -19.590  0.00  0.00    +0.031 C 
ATOM      5  C   UNL     1      34.997 -21.902 -18.646  0.00  0.00    +0.051 C 
ATOM      6  C   UNL     1      35.275 -20.146 -20.275  0.00  0.00    +0.086 C 
ATOM      7  C   UNL     1      34.706 -19.286 -21.211  0.00  0.00    +0.089 C 
ATOM      8  C   UNL     1      33.044 -21.047 -19.853  0.00  0.00    +0.003 C 
ATOM      9  C   UNL     1      36.363 -21.869 -18.408  0.00  0.00    +0.035 C 
ATOM     10  C   UNL     1      33.334 -19.295 -21.475  0.00  0.00    +0.005 C 
ATOM     11  C   UNL     1      32.501 -20.176 -20.795  0.00  0.00    +0.000 C 
ATOM     12  C   UNL     1      37.114 -20.963 -19.129  0.00  0.00    +0.100 C 
BRANCH   7  16
ATOM     13  F   UNL     1      36.811 -18.794 -22.235  0.00  0.00    -0.166 F 
ATOM     14  F   UNL     1      35.041 -17.971 -23.181  0.00  0.00    -0.166 F 
ATOM     15  F   UNL     1      35.744 -17.149 -21.295  0.00  0.00    -0.166 F 
ATOM     16  C   UNL     1      35.561 -18.319 -21.969  0.00  0.00    +0.420 C 
ENDBRANCH   7  16
ENDBRANCH   1   5
BRANCH   1  17
ATOM     17  C   UNL     1      34.221 -23.215 -16.564  0.00  0.00    +0.055 C 
ATOM     18  C   UNL     1      33.028 -23.356 -15.848  0.00  0.00    +0.089 C 
ATOM     19  C   UNL     1      35.440 -23.464 -15.926  0.00  0.00    +0.015 C 
ATOM     20  C   UNL     1      33.054 -23.742 -14.508  0.00  0.00    +0.008 C 
ATOM     21  C   UNL     1      35.465 -23.850 -14.585  0.00  0.00    +0.001 C 
ATOM     22  C   UNL     1      34.273 -23.989 -13.876  0.00  0.00    +0.000 C 
BRANCH  18  24
ATOM     23  O   UNL     1      31.596 -22.597 -17.596  0.00  0.00    -0.245 OA
ATOM     24  C   UNL     1      31.738 -23.106 -16.479  0.00  0.00    +0.342 C 
BRANCH  24  25
ATOM     25  O   UNL     1      30.705 -23.506 -15.678  0.00  0.00    -0.443 OA
BRANCH  25  26
ATOM     26  C   UNL     1      29.880 -24.567 -16.173  0.00  0.00    +0.240 C 
BRANCH  26  27
ATOM     27  C   UNL     1      28.418 -24.139 -16.153  0.00  0.00    +0.184 C 
BRANCH  27  28
ATOM     28  O   UNL     1      27.847 -24.399 -17.437  0.00  0.00    -0.378 OA
ATOM     29  H   UNL     1      27.543 -25.320 -17.476  0.00  0.00    +0.211 HD
ENDBRANCH  27  28
BRANCH  27  30
ATOM     30  C   UNL     1      28.276 -22.650 -15.868  0.00  0.00    +0.170 C 
BRANCH  30  31
ATOM     31  O   UNL     1      28.584 -21.921 -17.052  0.00  0.00    -0.379 OA
ATOM     32  H   UNL     1      27.782 -21.485 -17.381  0.00  0.00    +0.211 HD
ENDBRANCH  30  31
ENDBRANCH  27  30
ENDBRANCH  26  27
ENDBRANCH  25  26
ENDBRANCH  24  25
ENDBRANCH  18  24
ENDBRANCH   1  17
TORSDOF 10
ENDMDL
MODEL 8
REMARK VINA RESULT:      -9.8      2.248      3.961
REMARK  Name = 3360
REMARK  10 active torsions:
REMARK  status: ('A' for Active; 'I' for Inactive)
REMARK    1  A    between atoms: N_1  and  C_5
REMARK    2  A    between atoms: N_1  and  C_17
REMARK    3  A    between atoms: C_7  and  C_16
REMARK    4  A    between atoms: C_18  and  C_24
REMARK    5  A    between atoms: C_24  and  O_25
REMARK    6  A    between atoms: O_25  and  C_26
REMARK    7  A    between atoms: C_26  and  C_27
REMARK    8  A    between atoms: C_27  and  O_28
REMARK    9  A    between atoms: C_27  and  C_30
REMARK   10  A    between atoms: C_30  and  O_31
REMARK                            x       y       z     vdW  Elec       q    Type
REMARK                         _______ _______ _______ _____ _____    ______ ____
ROOT
ATOM      1  N   UNL     1      35.203 -22.125 -19.121  0.00  0.00    -0.312 N 
ATOM      2  H   UNL     1      35.360 -22.929 -19.667  0.00  0.00    +0.152 HD
ENDROOT
BRANCH   1   5
ATOM      3  N   UNL     1      33.292 -19.014 -21.193  0.00  0.00    -0.244 NA
ATOM      4  C   UNL     1      35.332 -20.126 -20.550  0.00  0.00    +0.031 C 
ATOM      5  C   UNL     1      34.584 -21.067 -19.829  0.00  0.00    +0.051 C 
ATOM      6  C   UNL     1      34.636 -19.103 -21.227  0.00  0.00    +0.086 C 
ATOM      7  C   UNL     1      35.378 -18.169 -21.944  0.00  0.00    +0.089 C 
ATOM      8  C   UNL     1      36.734 -20.188 -20.608  0.00  0.00    +0.003 C 
ATOM      9  C   UNL     1      33.200 -20.979 -19.792  0.00  0.00    +0.035 C 
ATOM     10  C   UNL     1      36.773 -18.229 -22.001  0.00  0.00    +0.005 C 
ATOM     11  C   UNL     1      37.452 -19.240 -21.332  0.00  0.00    +0.000 C 
ATOM     12  C   UNL     1      32.608 -19.942 -20.484  0.00  0.00    +0.100 C 
BRANCH   7  16
ATOM     13  F   UNL     1      35.542 -16.080 -23.100  0.00  0.00    -0.166 F 
ATOM     14  F   UNL     1      34.042 -17.480 -23.805  0.00  0.00    -0.166 F 
ATOM     15  F   UNL     1      33.750 -16.436 -21.920  0.00  0.00    -0.166 F 
ATOM     16  C   UNL     1      34.692 -17.061 -22.682  0.00  0.00    +0.420 C 
ENDBRANCH   7  16
ENDBRANCH   1   5
BRANCH   1  17
ATOM     17  C   UNL     1      35.635 -22.250 -17.790  0.00  0.00    +0.055 C 
ATOM     18  C   UNL     1      34.819 -22.836 -16.816  0.00  0.00    +0.089 C 
ATOM     19  C   UNL     1      36.903 -21.781 -17.434  0.00  0.00    +0.015 C 
ATOM     20  C   UNL     1      35.268 -22.953 -15.501  0.00  0.00    +0.008 C 
ATOM     21  C   UNL     1      37.351 -21.898 -16.117  0.00  0.00    +0.001 C 
ATOM     22  C   UNL     1      36.534 -22.483 -15.151  0.00  0.00    +0.000 C 
BRANCH  18  24
ATOM     23  O   UNL     1      33.255 -24.122 -18.075  0.00  0.00    -0.245 OA
ATOM     24  C   UNL     1      33.491 -23.337 -17.150  0.00  0.00    +0.342 C 
BRANCH  24  25
ATOM     25  O   UNL     1      32.541 -22.829 -16.310  0.00  0.00    -0.443 OA
BRANCH  25  26
ATOM     26  C   UNL     1      31.448 -23.692 -15.977  0.00  0.00    +0.240 C 
BRANCH  26  27
ATOM     27  C   UNL     1      31.266 -23.737 -14.464  0.00  0.00    +0.184 C 
BRANCH  27  28
ATOM     28  O   UNL     1      32.144 -22.780 -13.868  0.00  0.00    -0.378 OA
ATOM     29  H   UNL     1      31.688 -21.926 -13.792  0.00  0.00    +0.211 HD
ENDBRANCH  27  28
BRANCH  27  30
ATOM     30  C   UNL     1      31.615 -25.109 -13.901  0.00  0.00    +0.170 C 
BRANCH  30  31
ATOM     31  O   UNL     1      32.762 -24.989 -13.067  0.00  0.00    -0.379 OA
ATOM     32  H   UNL     1      33.365 -24.326 -13.439  0.00  0.00    +0.211 HD
ENDBRANCH  30  31
ENDBRANCH  27  30
ENDBRANCH  26  27
ENDBRANCH  25  26
ENDBRANCH  24  25
ENDBRANCH  18  24
ENDBRANCH   1  17
TORSDOF 10
ENDMDL
MODEL 9
REMARK VINA RESULT:      -9.8      3.471      5.389
REMARK  Name = 3360
REMARK  10 active torsions:
REMARK  status: ('A' for Active; 'I' for Inactive)
REMARK    1  A    between atoms: N_1  and  C_5
REMARK    2  A    between atoms: N_1  and  C_17
REMARK    3  A    between atoms: C_7  and  C_16
REMARK    4  A    between atoms: C_18  and  C_24
REMARK    5  A    between atoms: C_24  and  O_25
REMARK    6  A    between atoms: O_25  and  C_26
REMARK    7  A    between atoms: C_26  and  C_27
REMARK    8  A    between atoms: C_27  and  O_28
REMARK    9  A    between atoms: C_27  and  C_30
REMARK   10  A    between atoms: C_30  and  O_31
REMARK                            x       y       z     vdW  Elec       q    Type
REMARK                         _______ _______ _______ _____ _____    ______ ____
ROOT
ATOM      1  N   UNL     1      35.381 -19.383 -21.150  0.00  0.00    -0.312 N 
ATOM      2  H   UNL     1      36.332 -19.347 -20.899  0.00  0.00    +0.152 HD
ENDROOT
BRANCH   1   5
ATOM      3  N   UNL     1      34.381 -16.892 -24.377  0.00  0.00    -0.244 NA
ATOM      4  C   UNL     1      34.706 -17.177 -22.006  0.00  0.00    +0.031 C 
ATOM      5  C   UNL     1      35.041 -18.521 -22.220  0.00  0.00    +0.051 C 
ATOM      6  C   UNL     1      34.379 -16.388 -23.129  0.00  0.00    +0.086 C 
ATOM      7  C   UNL     1      34.046 -15.052 -22.917  0.00  0.00    +0.089 C 
ATOM      8  C   UNL     1      34.693 -16.618 -20.718  0.00  0.00    +0.003 C 
ATOM      9  C   UNL     1      35.044 -19.044 -23.504  0.00  0.00    +0.035 C 
ATOM     10  C   UNL     1      34.033 -14.495 -21.635  0.00  0.00    +0.005 C 
ATOM     11  C   UNL     1      34.357 -15.279 -20.534  0.00  0.00    +0.000 C 
ATOM     12  C   UNL     1      34.709 -18.195 -24.540  0.00  0.00    +0.100 C 
BRANCH   7  16
ATOM     13  F   UNL     1      32.367 -13.844 -24.118  0.00  0.00    -0.166 F 
ATOM     14  F   UNL     1      34.354 -12.977 -24.065  0.00  0.00    -0.166 F 
ATOM     15  F   UNL     1      33.974 -14.744 -25.273  0.00  0.00    -0.166 F 
ATOM     16  C   UNL     1      33.690 -14.168 -24.071  0.00  0.00    +0.420 C 
ENDBRANCH   7  16
ENDBRANCH   1   5
BRANCH   1  17
ATOM     17  C   UNL     1      34.624 -20.280 -20.377  0.00  0.00    +0.055 C 
ATOM     18  C   UNL     1      35.242 -21.206 -19.531  0.00  0.00    +0.089 C 
ATOM     19  C   UNL     1      33.228 -20.244 -20.456  0.00  0.00    +0.015 C 
ATOM     20  C   UNL     1      34.473 -22.087 -18.771  0.00  0.00    +0.008 C 
ATOM     21  C   UNL     1      32.459 -21.126 -19.696  0.00  0.00    +0.001 C 
ATOM     22  C   UNL     1      33.081 -22.047 -18.854  0.00  0.00    +0.000 C 
BRANCH  18  24
ATOM     23  O   UNL     1      37.478 -20.751 -20.223  0.00  0.00    -0.245 OA
ATOM     24  C   UNL     1      36.695 -21.272 -19.422  0.00  0.00    +0.342 C 
BRANCH  24  25
ATOM     25  O   UNL     1      37.080 -21.984 -18.321  0.00  0.00    -0.443 OA
BRANCH  25  26
ATOM     26  C   UNL     1      37.193 -21.258 -17.092  0.00  0.00    +0.240 C 
BRANCH  26  27
ATOM     27  C   UNL     1      37.353 -22.230 -15.929  0.00  0.00    +0.184 C 
BRANCH  27  28
ATOM     28  O   UNL     1      38.471 -23.081 -16.193  0.00  0.00    -0.378 OA
ATOM     29  H   UNL     1      38.785 -23.470 -15.361  0.00  0.00    +0.211 HD
ENDBRANCH  27  28
BRANCH  27  30
ATOM     30  C   UNL     1      36.122 -23.111 -15.764  0.00  0.00    +0.170 C 
BRANCH  30  31
ATOM     31  O   UNL     1      36.528 -24.475 -15.747  0.00  0.00    -0.379 OA
ATOM     32  H   UNL     1      36.181 -24.906 -14.951  0.00  0.00    +0.211 HD
ENDBRANCH  30  31
ENDBRANCH  27  30
ENDBRANCH  26  27
ENDBRANCH  25  26
ENDBRANCH  24  25
ENDBRANCH  18  24
ENDBRANCH   1  17
TORSDOF 10
ENDMDL
