MODEL 1
REMARK VINA RESULT:     -10.5      0.000      0.000
REMARK  Name = 5288685
REMARK  3 active torsions:
REMARK  status: ('A' for Active; 'I' for Inactive)
REMARK    1  A    between atoms: C_4  and  C_16
REMARK    2  A    between atoms: C_6  and  C_10
REMARK    3  A    between atoms: C_19  and  O_22
REMARK                            x       y       z     vdW  Elec       q    Type
REMARK                         _______ _______ _______ _____ _____    ______ ____
ROOT
ATOM      1  O   UNL     1      35.684 -19.141 -24.154  0.00  0.00    -0.273 OA
ATOM      2  N   UNL     1      34.666 -17.358 -23.097  0.00  0.00    -0.178 N 
ATOM      3  N   UNL     1      33.878 -16.250 -23.203  0.00  0.00    -0.180 NA
ATOM      4  C   UNL     1      35.190 -17.561 -21.744  0.00  0.00    +0.127 C 
ATOM      5  C   UNL     1      34.833 -16.262 -21.033  0.00  0.00    +0.074 C 
ATOM      6  C   UNL     1      33.920 -15.637 -22.059  0.00  0.00    +0.079 C 
ATOM      7  C   UNL     1      34.948 -18.153 -24.191  0.00  0.00    +0.245 C 
ATOM      8  C   UNL     1      34.286 -17.737 -25.481  0.00  0.00    +0.097 C 
ENDROOT
BRANCH   6  10
ATOM      9 CL   UNL     1      33.360 -13.713 -24.411  0.00  0.00    -0.082 Cl
ATOM     10  C   UNL     1      33.165 -14.397 -21.777  0.00  0.00    +0.026 C 
ATOM     11  C   UNL     1      32.862 -13.466 -22.776  0.00  0.00    +0.059 C 
ATOM     12  C   UNL     1      32.745 -14.161 -20.465  0.00  0.00    +0.002 C 
ATOM     13  C   UNL     1      32.146 -12.310 -22.465  0.00  0.00    +0.011 C 
ATOM     14  C   UNL     1      32.028 -13.005 -20.154  0.00  0.00    +0.000 C 
ATOM     15  C   UNL     1      31.730 -12.079 -21.154  0.00  0.00    +0.001 C 
ENDBRANCH   6  10
BRANCH   4  16
ATOM     16  C   UNL     1      34.604 -18.788 -21.075  0.00  0.00    +0.001 C 
ATOM     17  C   UNL     1      35.448 -19.787 -20.592  0.00  0.00    +0.034 C 
ATOM     18  C   UNL     1      33.223 -18.916 -20.945  0.00  0.00    -0.002 C 
ATOM     19  C   UNL     1      34.909 -20.916 -19.976  0.00  0.00    +0.133 C 
ATOM     20  C   UNL     1      32.683 -20.045 -20.328  0.00  0.00    +0.003 C 
ATOM     21  C   UNL     1      33.526 -21.045 -19.844  0.00  0.00    +0.037 C 
BRANCH  19  22
ATOM     22  O   UNL     1      35.731 -21.893 -19.504  0.00  0.00    -0.506 OA
ATOM     23  H   UNL     1      35.414 -22.504 -18.867  0.00  0.00    +0.292 HD
ENDBRANCH  19  22
ENDBRANCH   4  16
TORSDOF 3
ENDMDL
MODEL 2
REMARK VINA RESULT:     -10.0      1.312      1.668
REMARK  Name = 5288685
REMARK  3 active torsions:
REMARK  status: ('A' for Active; 'I' for Inactive)
REMARK    1  A    between atoms: C_4  and  C_16
REMARK    2  A    between atoms: C_6  and  C_10
REMARK    3  A    between atoms: C_19  and  O_22
REMARK                            x       y       z     vdW  Elec       q    Type
REMARK                         _______ _______ _______ _____ _____    ______ ____
ROOT
ATOM      1  O   UNL     1      35.537 -20.225 -24.166  0.00  0.00    -0.273 OA
ATOM      2  N   UNL     1      34.753 -18.210 -23.353  0.00  0.00    -0.178 N 
ATOM      3  N   UNL     1      34.060 -17.060 -23.593  0.00  0.00    -0.180 NA
ATOM      4  C   UNL     1      35.346 -18.255 -22.014  0.00  0.00    +0.127 C 
ATOM      5  C   UNL     1      35.152 -16.834 -21.500  0.00  0.00    +0.074 C 
ATOM      6  C   UNL     1      34.233 -16.287 -22.564  0.00  0.00    +0.079 C 
ATOM      7  C   UNL     1      34.891 -19.187 -24.321  0.00  0.00    +0.245 C 
ATOM      8  C   UNL     1      34.184 -18.911 -25.625  0.00  0.00    +0.097 C 
ENDROOT
BRANCH   6  10
ATOM      9 CL   UNL     1      32.092 -15.878 -20.375  0.00  0.00    -0.082 Cl
ATOM     10  C   UNL     1      33.610 -14.950 -22.443  0.00  0.00    +0.026 C 
ATOM     11  C   UNL     1      32.633 -14.669 -21.483  0.00  0.00    +0.059 C 
ATOM     12  C   UNL     1      34.022 -13.945 -23.322  0.00  0.00    +0.002 C 
ATOM     13  C   UNL     1      32.073 -13.394 -21.403  0.00  0.00    +0.011 C 
ATOM     14  C   UNL     1      33.462 -12.669 -23.243  0.00  0.00    +0.000 C 
ATOM     15  C   UNL     1      32.487 -12.395 -22.284  0.00  0.00    +0.001 C 
ENDBRANCH   6  10
BRANCH   4  16
ATOM     16  C   UNL     1      34.699 -19.302 -21.130  0.00  0.00    +0.001 C 
ATOM     17  C   UNL     1      35.489 -20.259 -20.493  0.00  0.00    +0.034 C 
ATOM     18  C   UNL     1      33.317 -19.308 -20.956  0.00  0.00    -0.002 C 
ATOM     19  C   UNL     1      34.894 -21.222 -19.679  0.00  0.00    +0.133 C 
ATOM     20  C   UNL     1      32.721 -20.271 -20.142  0.00  0.00    +0.003 C 
ATOM     21  C   UNL     1      33.510 -21.229 -19.504  0.00  0.00    +0.037 C 
BRANCH  19  22
ATOM     22  O   UNL     1      35.662 -22.157 -19.057  0.00  0.00    -0.506 OA
ATOM     23  H   UNL     1      35.267 -22.936 -18.715  0.00  0.00    +0.292 HD
ENDBRANCH  19  22
ENDBRANCH   4  16
TORSDOF 3
ENDMDL
MODEL 3
REMARK VINA RESULT:      -9.9      4.657      7.734
REMARK  Name = 5288685
REMARK  3 active torsions:
REMARK  status: ('A' for Active; 'I' for Inactive)
REMARK    1  A    between atoms: C_4  and  C_16
REMARK    2  A    between atoms: C_6  and  C_10
REMARK    3  A    between atoms: C_19  and  O_22
REMARK                            x       y       z     vdW  Elec       q    Type
REMARK                         _______ _______ _______ _____ _____    ______ ____
ROOT
ATOM      1  O   UNL     1      32.894  -9.053 -23.868  0.00  0.00    -0.273 OA
ATOM      2  N   UNL     1      33.255 -11.315 -23.570  0.00  0.00    -0.178 N 
ATOM      3  N   UNL     1      34.069 -12.390 -23.774  0.00  0.00    -0.180 NA
ATOM      4  C   UNL     1      31.994 -11.666 -22.915  0.00  0.00    +0.127 C 
ATOM      5  C   UNL     1      31.993 -13.189 -22.955  0.00  0.00    +0.074 C 
ATOM      6  C   UNL     1      33.409 -13.446 -23.408  0.00  0.00    +0.079 C 
ATOM      7  C   UNL     1      33.609 -10.048 -23.995  0.00  0.00    +0.245 C 
ATOM      8  C   UNL     1      34.966  -9.939 -24.645  0.00  0.00    +0.097 C 
ENDROOT
BRANCH   6  10
ATOM      9 CL   UNL     1      34.512 -14.654 -20.787  0.00  0.00    -0.082 Cl
ATOM     10  C   UNL     1      33.975 -14.812 -23.457  0.00  0.00    +0.026 C 
ATOM     11  C   UNL     1      34.497 -15.442 -22.324  0.00  0.00    +0.059 C 
ATOM     12  C   UNL     1      33.981 -15.483 -24.683  0.00  0.00    +0.002 C 
ATOM     13  C   UNL     1      35.020 -16.732 -22.415  0.00  0.00    +0.011 C 
ATOM     14  C   UNL     1      34.504 -16.773 -24.776  0.00  0.00    +0.000 C 
ATOM     15  C   UNL     1      35.025 -17.397 -23.641  0.00  0.00    +0.001 C 
ENDBRANCH   6  10
BRANCH   4  16
ATOM     16  C   UNL     1      31.896 -11.106 -21.510  0.00  0.00    +0.001 C 
ATOM     17  C   UNL     1      32.047  -9.737 -21.295  0.00  0.00    +0.034 C 
ATOM     18  C   UNL     1      31.657 -11.961 -20.436  0.00  0.00    -0.002 C 
ATOM     19  C   UNL     1      31.956  -9.222 -20.002  0.00  0.00    +0.133 C 
ATOM     20  C   UNL     1      31.566 -11.447 -19.143  0.00  0.00    +0.003 C 
ATOM     21  C   UNL     1      31.717 -10.077 -18.926  0.00  0.00    +0.037 C 
BRANCH  19  22
ATOM     22  O   UNL     1      32.104  -7.887 -19.789  0.00  0.00    -0.506 OA
ATOM     23  H   UNL     1      32.950  -7.489 -19.873  0.00  0.00    +0.292 HD
ENDBRANCH  19  22
ENDBRANCH   4  16
TORSDOF 3
ENDMDL
MODEL 4
REMARK VINA RESULT:      -9.9      4.753      7.688
REMARK  Name = 5288685
REMARK  3 active torsions:
REMARK  status: ('A' for Active; 'I' for Inactive)
REMARK    1  A    between atoms: C_4  and  C_16
REMARK    2  A    between atoms: C_6  and  C_10
REMARK    3  A    between atoms: C_19  and  O_22
REMARK                            x       y       z     vdW  Elec       q    Type
REMARK                         _______ _______ _______ _____ _____    ______ ____
ROOT
ATOM      1  O   UNL     1      32.958  -8.874 -23.806  0.00  0.00    -0.273 OA
ATOM      2  N   UNL     1      33.267 -11.155 -23.629  0.00  0.00    -0.178 N 
ATOM      3  N   UNL     1      34.059 -12.236 -23.885  0.00  0.00    -0.180 NA
ATOM      4  C   UNL     1      31.994 -11.513 -23.001  0.00  0.00    +0.127 C 
ATOM      5  C   UNL     1      31.960 -13.032 -23.122  0.00  0.00    +0.074 C 
ATOM      6  C   UNL     1      33.374 -13.296 -23.580  0.00  0.00    +0.079 C 
ATOM      7  C   UNL     1      33.652  -9.876 -23.982  0.00  0.00    +0.245 C 
ATOM      8  C   UNL     1      35.016  -9.762 -24.617  0.00  0.00    +0.097 C 
ENDROOT
BRANCH   6  10
ATOM      9 CL   UNL     1      32.892 -14.816 -26.225  0.00  0.00    -0.082 Cl
ATOM     10  C   UNL     1      33.910 -14.669 -23.699  0.00  0.00    +0.026 C 
ATOM     11  C   UNL     1      33.743 -15.435 -24.856  0.00  0.00    +0.059 C 
ATOM     12  C   UNL     1      34.606 -15.205 -22.612  0.00  0.00    +0.002 C 
ATOM     13  C   UNL     1      34.268 -16.726 -24.926  0.00  0.00    +0.011 C 
ATOM     14  C   UNL     1      35.130 -16.497 -22.681  0.00  0.00    +0.000 C 
ATOM     15  C   UNL     1      34.960 -17.257 -23.838  0.00  0.00    +0.001 C 
ENDBRANCH   6  10
BRANCH   4  16
ATOM     16  C   UNL     1      31.897 -11.028 -21.568  0.00  0.00    +0.001 C 
ATOM     17  C   UNL     1      32.074  -9.675 -21.279  0.00  0.00    +0.034 C 
ATOM     18  C   UNL     1      31.635 -11.934 -20.543  0.00  0.00    -0.002 C 
ATOM     19  C   UNL     1      31.985  -9.229 -19.961  0.00  0.00    +0.133 C 
ATOM     20  C   UNL     1      31.546 -11.488 -19.225  0.00  0.00    +0.003 C 
ATOM     21  C   UNL     1      31.721 -10.135 -18.934  0.00  0.00    +0.037 C 
BRANCH  19  22
ATOM     22  O   UNL     1      32.157  -7.909 -19.676  0.00  0.00    -0.506 OA
ATOM     23  H   UNL     1      32.218  -7.627 -18.784  0.00  0.00    +0.292 HD
ENDBRANCH  19  22
ENDBRANCH   4  16
TORSDOF 3
ENDMDL
MODEL 5
REMARK VINA RESULT:      -9.7      8.185     10.487
REMARK  Name = 5288685
REMARK  3 active torsions:
REMARK  status: ('A' for Active; 'I' for Inactive)
REMARK    1  A    between atoms: C_4  and  C_16
REMARK    2  A    between atoms: C_6  and  C_10
REMARK    3  A    between atoms: C_19  and  O_22
REMARK                            x       y       z     vdW  Elec       q    Type
REMARK                         _______ _______ _______ _____ _____    ______ ____
ROOT
ATOM      1  O   UNL     1      37.170 -22.294 -16.288  0.00  0.00    -0.273 OA
ATOM      2  N   UNL     1      34.978 -22.909 -15.898  0.00  0.00    -0.178 N 
ATOM      3  N   UNL     1      33.702 -22.994 -16.371  0.00  0.00    -0.180 NA
ATOM      4  C   UNL     1      35.102 -23.333 -14.502  0.00  0.00    +0.127 C 
ATOM      5  C   UNL     1      33.653 -23.465 -14.048  0.00  0.00    +0.074 C 
ATOM      6  C   UNL     1      32.944 -23.336 -15.374  0.00  0.00    +0.079 C 
ATOM      7  C   UNL     1      36.009 -22.425 -16.680  0.00  0.00    +0.245 C 
ATOM      8  C   UNL     1      35.631 -22.052 -18.092  0.00  0.00    +0.097 C 
ENDROOT
BRANCH   6  10
ATOM      9 CL   UNL     1      31.611 -25.377 -13.475  0.00  0.00    -0.082 Cl
ATOM     10  C   UNL     1      31.487 -23.554 -15.502  0.00  0.00    +0.026 C 
ATOM     11  C   UNL     1      30.795 -24.456 -14.688  0.00  0.00    +0.059 C 
ATOM     12  C   UNL     1      30.791 -22.828 -16.472  0.00  0.00    +0.002 C 
ATOM     13  C   UNL     1      29.419 -24.630 -14.842  0.00  0.00    +0.011 C 
ATOM     14  C   UNL     1      29.415 -23.001 -16.627  0.00  0.00    +0.000 C 
ATOM     15  C   UNL     1      28.729 -23.903 -15.812  0.00  0.00    +0.001 C 
ENDBRANCH   6  10
BRANCH   4  16
ATOM     16  C   UNL     1      35.891 -24.619 -14.355  0.00  0.00    +0.001 C 
ATOM     17  C   UNL     1      36.013 -25.488 -15.439  0.00  0.00    +0.034 C 
ATOM     18  C   UNL     1      36.492 -24.930 -13.137  0.00  0.00    -0.002 C 
ATOM     19  C   UNL     1      36.739 -26.670 -15.304  0.00  0.00    +0.133 C 
ATOM     20  C   UNL     1      37.219 -26.113 -13.002  0.00  0.00    +0.003 C 
ATOM     21  C   UNL     1      37.342 -26.983 -14.085  0.00  0.00    +0.037 C 
BRANCH  19  22
ATOM     22  O   UNL     1      36.859 -27.520 -16.360  0.00  0.00    -0.506 OA
ATOM     23  H   UNL     1      37.698 -27.875 -16.583  0.00  0.00    +0.292 HD
ENDBRANCH  19  22
ENDBRANCH   4  16
TORSDOF 3
ENDMDL
MODEL 6
REMARK VINA RESULT:      -9.5      2.021      2.828
REMARK  Name = 5288685
REMARK  3 active torsions:
REMARK  status: ('A' for Active; 'I' for Inactive)
REMARK    1  A    between atoms: C_4  and  C_16
REMARK    2  A    between atoms: C_6  and  C_10
REMARK    3  A    between atoms: C_19  and  O_22
REMARK                            x       y       z     vdW  Elec       q    Type
REMARK                         _______ _______ _______ _____ _____    ______ ____
ROOT
ATOM      1  O   UNL     1      34.776 -16.972 -25.846  0.00  0.00    -0.273 OA
ATOM      2  N   UNL     1      33.977 -15.491 -24.264  0.00  0.00    -0.178 N 
ATOM      3  N   UNL     1      33.057 -14.540 -23.935  0.00  0.00    -0.180 NA
ATOM      4  C   UNL     1      34.983 -15.703 -23.221  0.00  0.00    +0.127 C 
ATOM      5  C   UNL     1      34.732 -14.550 -22.257  0.00  0.00    +0.074 C 
ATOM      6  C   UNL     1      33.429 -14.021 -22.804  0.00  0.00    +0.079 C 
ATOM      7  C   UNL     1      33.948 -16.134 -25.487  0.00  0.00    +0.245 C 
ATOM      8  C   UNL     1      32.808 -15.745 -26.396  0.00  0.00    +0.097 C 
ENDROOT
BRANCH   6  10
ATOM      9 CL   UNL     1      32.477 -14.583 -19.919  0.00  0.00    -0.082 Cl
ATOM     10  C   UNL     1      32.664 -12.964 -22.108  0.00  0.00    +0.026 C 
ATOM     11  C   UNL     1      32.191 -13.126 -20.802  0.00  0.00    +0.059 C 
ATOM     12  C   UNL     1      32.412 -11.770 -22.788  0.00  0.00    +0.002 C 
ATOM     13  C   UNL     1      31.475 -12.103 -20.182  0.00  0.00    +0.011 C 
ATOM     14  C   UNL     1      31.694 -10.746 -22.169  0.00  0.00    +0.000 C 
ATOM     15  C   UNL     1      31.225 -10.913 -20.866  0.00  0.00    +0.001 C 
ENDBRANCH   6  10
BRANCH   4  16
ATOM     16  C   UNL     1      34.861 -17.064 -22.566  0.00  0.00    +0.001 C 
ATOM     17  C   UNL     1      33.715 -17.387 -21.840  0.00  0.00    +0.034 C 
ATOM     18  C   UNL     1      35.895 -17.989 -22.689  0.00  0.00    -0.002 C 
ATOM     19  C   UNL     1      33.603 -18.639 -21.238  0.00  0.00    +0.133 C 
ATOM     20  C   UNL     1      35.784 -19.243 -22.086  0.00  0.00    +0.003 C 
ATOM     21  C   UNL     1      34.637 -19.568 -21.361  0.00  0.00    +0.037 C 
BRANCH  19  22
ATOM     22  O   UNL     1      32.486 -18.956 -20.529  0.00  0.00    -0.506 OA
ATOM     23  H   UNL     1      32.061 -18.303 -20.007  0.00  0.00    +0.292 HD
ENDBRANCH  19  22
ENDBRANCH   4  16
TORSDOF 3
ENDMDL
MODEL 7
REMARK VINA RESULT:      -9.3      1.958      2.845
REMARK  Name = 5288685
REMARK  3 active torsions:
REMARK  status: ('A' for Active; 'I' for Inactive)
REMARK    1  A    between atoms: C_4  and  C_16
REMARK    2  A    between atoms: C_6  and  C_10
REMARK    3  A    between atoms: C_19  and  O_22
REMARK                            x       y       z     vdW  Elec       q    Type
REMARK                         _______ _______ _______ _____ _____    ______ ____
ROOT
ATOM      1  O   UNL     1      34.457 -16.380 -26.051  0.00  0.00    -0.273 OA
ATOM      2  N   UNL     1      33.731 -14.911 -24.423  0.00  0.00    -0.178 N 
ATOM      3  N   UNL     1      32.861 -13.923 -24.066  0.00  0.00    -0.180 NA
ATOM      4  C   UNL     1      34.719 -15.210 -23.385  0.00  0.00    +0.127 C 
ATOM      5  C   UNL     1      34.526 -14.077 -22.384  0.00  0.00    +0.074 C 
ATOM      6  C   UNL     1      33.256 -13.462 -22.917  0.00  0.00    +0.079 C 
ATOM      7  C   UNL     1      33.673 -15.511 -25.667  0.00  0.00    +0.245 C 
ATOM      8  C   UNL     1      32.559 -15.032 -26.566  0.00  0.00    +0.097 C 
ENDROOT
BRANCH   6  10
ATOM      9 CL   UNL     1      33.204 -10.641 -24.176  0.00  0.00    -0.082 Cl
ATOM     10  C   UNL     1      32.544 -12.390 -22.189  0.00  0.00    +0.026 C 
ATOM     11  C   UNL     1      32.466 -11.082 -22.678  0.00  0.00    +0.059 C 
ATOM     12  C   UNL     1      31.933 -12.707 -20.972  0.00  0.00    +0.002 C 
ATOM     13  C   UNL     1      31.783 -10.102 -21.959  0.00  0.00    +0.011 C 
ATOM     14  C   UNL     1      31.250 -11.727 -20.251  0.00  0.00    +0.000 C 
ATOM     15  C   UNL     1      31.176 -10.424 -20.745  0.00  0.00    +0.001 C 
ENDBRANCH   6  10
BRANCH   4  16
ATOM     16  C   UNL     1      34.522 -16.584 -22.776  0.00  0.00    +0.001 C 
ATOM     17  C   UNL     1      34.918 -17.720 -23.481  0.00  0.00    +0.034 C 
ATOM     18  C   UNL     1      33.945 -16.708 -21.514  0.00  0.00    -0.002 C 
ATOM     19  C   UNL     1      34.736 -18.984 -22.920  0.00  0.00    +0.133 C 
ATOM     20  C   UNL     1      33.764 -17.972 -20.953  0.00  0.00    +0.003 C 
ATOM     21  C   UNL     1      34.159 -19.110 -21.656  0.00  0.00    +0.037 C 
BRANCH  19  22
ATOM     22  O   UNL     1      35.121 -20.094 -23.606  0.00  0.00    -0.506 OA
ATOM     23  H   UNL     1      35.887 -20.069 -24.146  0.00  0.00    +0.292 HD
ENDBRANCH  19  22
ENDBRANCH   4  16
TORSDOF 3
ENDMDL
MODEL 8
REMARK VINA RESULT:      -9.2      6.655      9.831
REMARK  Name = 5288685
REMARK  3 active torsions:
REMARK  status: ('A' for Active; 'I' for Inactive)
REMARK    1  A    between atoms: C_4  and  C_16
REMARK    2  A    between atoms: C_6  and  C_10
REMARK    3  A    between atoms: C_19  and  O_22
REMARK                            x       y       z     vdW  Elec       q    Type
REMARK                         _______ _______ _______ _____ _____    ______ ____
ROOT
ATOM      1  O   UNL     1      31.901  -9.083 -19.898  0.00  0.00    -0.273 OA
ATOM      2  N   UNL     1      31.977  -7.840 -21.843  0.00  0.00    -0.178 N 
ATOM      3  N   UNL     1      32.339  -6.677 -22.456  0.00  0.00    -0.180 NA
ATOM      4  C   UNL     1      31.264  -8.760 -22.733  0.00  0.00    +0.127 C 
ATOM      5  C   UNL     1      30.983  -7.906 -23.963  0.00  0.00    +0.074 C 
ATOM      6  C   UNL     1      31.831  -6.697 -23.651  0.00  0.00    +0.079 C 
ATOM      7  C   UNL     1      32.240  -8.066 -20.506  0.00  0.00    +0.245 C 
ATOM      8  C   UNL     1      32.991  -6.965 -19.799  0.00  0.00    +0.097 C 
ENDROOT
BRANCH   6  10
ATOM      9 CL   UNL     1      34.458  -6.674 -25.276  0.00  0.00    -0.082 Cl
ATOM     10  C   UNL     1      32.029  -5.610 -24.634  0.00  0.00    +0.026 C 
ATOM     11  C   UNL     1      33.185  -5.516 -25.415  0.00  0.00    +0.059 C 
ATOM     12  C   UNL     1      31.021  -4.653 -24.776  0.00  0.00    +0.002 C 
ATOM     13  C   UNL     1      33.330  -4.474 -26.332  0.00  0.00    +0.011 C 
ATOM     14  C   UNL     1      31.165  -3.610 -25.692  0.00  0.00    +0.000 C 
ATOM     15  C   UNL     1      32.321  -3.521 -26.470  0.00  0.00    +0.001 C 
ENDBRANCH   6  10
BRANCH   4  16
ATOM     16  C   UNL     1      32.070 -10.006 -23.044  0.00  0.00    +0.001 C 
ATOM     17  C   UNL     1      31.688 -11.233 -22.504  0.00  0.00    +0.034 C 
ATOM     18  C   UNL     1      33.190  -9.921 -23.867  0.00  0.00    -0.002 C 
ATOM     19  C   UNL     1      32.429 -12.379 -22.790  0.00  0.00    +0.133 C 
ATOM     20  C   UNL     1      33.932 -11.067 -24.154  0.00  0.00    +0.003 C 
ATOM     21  C   UNL     1      33.552 -12.296 -23.615  0.00  0.00    +0.037 C 
BRANCH  19  22
ATOM     22  O   UNL     1      32.060 -13.578 -22.263  0.00  0.00    -0.506 OA
ATOM     23  H   UNL     1      32.100 -14.353 -22.790  0.00  0.00    +0.292 HD
ENDBRANCH  19  22
ENDBRANCH   4  16
TORSDOF 3
ENDMDL
MODEL 9
REMARK VINA RESULT:      -9.2      7.629     10.313
REMARK  Name = 5288685
REMARK  3 active torsions:
REMARK  status: ('A' for Active; 'I' for Inactive)
REMARK    1  A    between atoms: C_4  and  C_16
REMARK    2  A    between atoms: C_6  and  C_10
REMARK    3  A    between atoms: C_19  and  O_22
REMARK                            x       y       z     vdW  Elec       q    Type
REMARK                         _______ _______ _______ _____ _____    ______ ____
ROOT
ATOM      1  O   UNL     1      37.262 -21.978 -16.881  0.00  0.00    -0.273 OA
ATOM      2  N   UNL     1      35.259 -22.853 -16.133  0.00  0.00    -0.178 N 
ATOM      3  N   UNL     1      33.950 -23.129 -16.398  0.00  0.00    -0.180 NA
ATOM      4  C   UNL     1      35.649 -23.184 -14.761  0.00  0.00    +0.127 C 
ATOM      5  C   UNL     1      34.318 -23.480 -14.082  0.00  0.00    +0.074 C 
ATOM      6  C   UNL     1      33.406 -23.515 -15.284  0.00  0.00    +0.079 C 
ATOM      7  C   UNL     1      36.084 -22.281 -17.082  0.00  0.00    +0.245 C 
ATOM      8  C   UNL     1      35.449 -22.034 -18.429  0.00  0.00    +0.097 C 
ENDROOT
BRANCH   6  10
ATOM      9 CL   UNL     1      31.402 -22.380 -17.344  0.00  0.00    -0.082 Cl
ATOM     10  C   UNL     1      31.990 -23.929 -15.176  0.00  0.00    +0.026 C 
ATOM     11  C   UNL     1      31.011 -23.468 -16.061  0.00  0.00    +0.059 C 
ATOM     12  C   UNL     1      31.633 -24.809 -14.150  0.00  0.00    +0.002 C 
ATOM     13  C   UNL     1      29.687 -23.885 -15.923  0.00  0.00    +0.011 C 
ATOM     14  C   UNL     1      30.309 -25.226 -14.011  0.00  0.00    +0.000 C 
ATOM     15  C   UNL     1      29.335 -24.763 -14.898  0.00  0.00    +0.001 C 
ENDBRANCH   6  10
BRANCH   4  16
ATOM     16  C   UNL     1      36.621 -24.346 -14.699  0.00  0.00    +0.001 C 
ATOM     17  C   UNL     1      37.939 -24.129 -14.298  0.00  0.00    +0.034 C 
ATOM     18  C   UNL     1      36.196 -25.626 -15.045  0.00  0.00    -0.002 C 
ATOM     19  C   UNL     1      38.833 -25.198 -14.241  0.00  0.00    +0.133 C 
ATOM     20  C   UNL     1      37.090 -26.696 -14.988  0.00  0.00    +0.003 C 
ATOM     21  C   UNL     1      38.408 -26.482 -14.586  0.00  0.00    +0.037 C 
BRANCH  19  22
ATOM     22  O   UNL     1      40.119 -24.990 -13.851  0.00  0.00    -0.506 OA
ATOM     23  H   UNL     1      40.303 -24.418 -13.130  0.00  0.00    +0.292 HD
ENDBRANCH  19  22
ENDBRANCH   4  16
TORSDOF 3
ENDMDL
