MODEL 1
REMARK VINA RESULT:     -10.9      0.000      0.000
REMARK  Name = 650361
REMARK  5 active torsions:
REMARK  status: ('A' for Active; 'I' for Inactive)
REMARK    1  A    between atoms: N_1  and  S_7
REMARK    2  A    between atoms: N_2  and  S_20
REMARK    3  A    between atoms: S_7  and  C_12
REMARK    4  A    between atoms: S_20  and  C_23
REMARK    5  A    between atoms: C_28  and  O_29
REMARK                            x       y       z     vdW  Elec       q    Type
REMARK                         _______ _______ _______ _____ _____    ______ ____
ROOT
ATOM      1  N   UNL     1      34.262 -21.311 -19.553  0.00  0.00    -0.153 NA
ATOM      2  N   UNL     1      35.194 -19.648 -21.682  0.00  0.00    -0.153 NA
ATOM      3  C   UNL     1      33.294 -20.607 -20.444  0.00  0.00    +0.115 C 
ATOM      4  C   UNL     1      35.531 -21.637 -20.270  0.00  0.00    +0.115 C 
ATOM      5  C   UNL     1      33.927 -19.322 -20.964  0.00  0.00    +0.115 C 
ATOM      6  C   UNL     1      36.163 -20.353 -20.791  0.00  0.00    +0.115 C 
ENDROOT
BRANCH   1   7
ATOM      7  S   UNL     1      33.603 -22.583 -18.613  0.00  0.00    +0.063 S 
ATOM      8  O   UNL     1      33.680 -23.816 -19.369  0.00  0.00    -0.153 OA
ATOM      9  O   UNL     1      32.354 -22.140 -18.032  0.00  0.00    -0.153 OA
BRANCH   7  12
ATOM     10  O   UNL     1      35.134 -24.144 -14.020  0.00  0.00    -0.468 OA
ATOM     11  O   UNL     1      37.644 -22.756 -14.303  0.00  0.00    -0.468 OA
ATOM     12  C   UNL     1      34.796 -22.665 -17.332  0.00  0.00    +0.125 C 
ATOM     13  C   UNL     1      34.512 -23.364 -16.158  0.00  0.00    +0.060 C 
ATOM     14  C   UNL     1      36.026 -22.025 -17.485  0.00  0.00    +0.023 C 
ATOM     15  C   UNL     1      35.462 -23.424 -15.139  0.00  0.00    +0.174 C 
ATOM     16  C   UNL     1      36.683 -22.761 -15.281  0.00  0.00    +0.172 C 
ATOM     17  C   UNL     1      36.972 -22.074 -16.460  0.00  0.00    +0.041 C 
ATOM     18  C   UNL     1      36.280 -24.428 -13.213  0.00  0.00    +0.253 C 
ATOM     19  C   UNL     1      37.123 -23.180 -13.040  0.00  0.00    +0.253 C 
ENDBRANCH   7  12
ENDBRANCH   1   7
BRANCH   2  20
ATOM     20  S   UNL     1      35.854 -18.376 -22.621  0.00  0.00    +0.063 S 
ATOM     21  O   UNL     1      35.506 -18.586 -24.010  0.00  0.00    -0.153 OA
ATOM     22  O   UNL     1      37.228 -18.162 -22.221  0.00  0.00    -0.153 OA
BRANCH  20  23
ATOM     23  C   UNL     1      34.895 -17.021 -22.022  0.00  0.00    +0.122 C 
ATOM     24  C   UNL     1      34.027 -16.371 -22.884  0.00  0.00    +0.023 C 
ATOM     25  C   UNL     1      35.025 -16.629 -20.699  0.00  0.00    +0.023 C 
ATOM     26  C   UNL     1      33.268 -15.301 -22.410  0.00  0.00    +0.038 C 
ATOM     27  C   UNL     1      34.267 -15.560 -20.226  0.00  0.00    +0.038 C 
ATOM     28  C   UNL     1      33.388 -14.895 -21.082  0.00  0.00    +0.139 C 
BRANCH  28  29
ATOM     29  O   UNL     1      32.648 -13.850 -20.619  0.00  0.00    -0.471 OA
ATOM     30  C   UNL     1      32.083 -12.974 -21.592  0.00  0.00    +0.252 C 
ENDBRANCH  28  29
ENDBRANCH  20  23
ENDBRANCH   2  20
TORSDOF 5
ENDMDL
MODEL 2
REMARK VINA RESULT:     -10.4      0.621      8.956
REMARK  Name = 650361
REMARK  5 active torsions:
REMARK  status: ('A' for Active; 'I' for Inactive)
REMARK    1  A    between atoms: N_1  and  S_7
REMARK    2  A    between atoms: N_2  and  S_20
REMARK    3  A    between atoms: S_7  and  C_12
REMARK    4  A    between atoms: S_20  and  C_23
REMARK    5  A    between atoms: C_28  and  O_29
REMARK                            x       y       z     vdW  Elec       q    Type
REMARK                         _______ _______ _______ _____ _____    ______ ____
ROOT
ATOM      1  N   UNL     1      35.289 -19.676 -21.716  0.00  0.00    -0.153 NA
ATOM      2  N   UNL     1      34.311 -21.293 -19.572  0.00  0.00    -0.153 NA
ATOM      3  C   UNL     1      34.008 -19.333 -21.031  0.00  0.00    +0.115 C 
ATOM      4  C   UNL     1      36.238 -20.364 -20.792  0.00  0.00    +0.115 C 
ATOM      5  C   UNL     1      33.362 -20.606 -20.497  0.00  0.00    +0.115 C 
ATOM      6  C   UNL     1      35.592 -21.636 -20.257  0.00  0.00    +0.115 C 
ENDROOT
BRANCH   1   7
ATOM      7  S   UNL     1      35.970 -18.426 -22.669  0.00  0.00    +0.063 S 
ATOM      8  O   UNL     1      35.617 -18.645 -24.056  0.00  0.00    -0.153 OA
ATOM      9  O   UNL     1      37.347 -18.229 -22.271  0.00  0.00    -0.153 OA
BRANCH   7  12
ATOM     10  O   UNL     1      33.014 -14.364 -23.469  0.00  0.00    -0.468 OA
ATOM     11  O   UNL     1      32.912 -13.790 -20.646  0.00  0.00    -0.468 OA
ATOM     12  C   UNL     1      35.040 -17.059 -22.089  0.00  0.00    +0.125 C 
ATOM     13  C   UNL     1      34.387 -16.224 -22.996  0.00  0.00    +0.060 C 
ATOM     14  C   UNL     1      34.959 -16.803 -20.719  0.00  0.00    +0.023 C 
ATOM     15  C   UNL     1      33.650 -15.134 -22.531  0.00  0.00    +0.174 C 
ATOM     16  C   UNL     1      33.592 -14.863 -21.162  0.00  0.00    +0.172 C 
ATOM     17  C   UNL     1      34.233 -15.706 -20.254  0.00  0.00    +0.041 C 
ATOM     18  C   UNL     1      32.028 -13.512 -22.879  0.00  0.00    +0.253 C 
ATOM     19  C   UNL     1      32.594 -12.825 -21.652  0.00  0.00    +0.253 C 
ENDBRANCH   7  12
ENDBRANCH   1   7
BRANCH   2  20
ATOM     20  S   UNL     1      33.631 -22.544 -18.620  0.00  0.00    +0.063 S 
ATOM     21  O   UNL     1      33.709 -23.790 -19.353  0.00  0.00    -0.153 OA
ATOM     22  O   UNL     1      32.376 -22.083 -18.066  0.00  0.00    -0.153 OA
BRANCH  20  23
ATOM     23  C   UNL     1      34.812 -22.612 -17.310  0.00  0.00    +0.122 C 
ATOM     24  C   UNL     1      34.464 -23.215 -16.113  0.00  0.00    +0.023 C 
ATOM     25  C   UNL     1      36.069 -22.062 -17.501  0.00  0.00    +0.023 C 
ATOM     26  C   UNL     1      35.398 -23.269 -15.078  0.00  0.00    +0.038 C 
ATOM     27  C   UNL     1      37.003 -22.115 -16.467  0.00  0.00    +0.038 C 
ATOM     28  C   UNL     1      36.667 -22.719 -15.255  0.00  0.00    +0.139 C 
BRANCH  28  29
ATOM     29  O   UNL     1      37.579 -22.772 -14.246  0.00  0.00    -0.471 OA
ATOM     30  C   UNL     1      37.194 -23.464 -13.059  0.00  0.00    +0.252 C 
ENDBRANCH  28  29
ENDBRANCH  20  23
ENDBRANCH   2  20
TORSDOF 5
ENDMDL
MODEL 3
REMARK VINA RESULT:      -9.7      3.631      7.009
REMARK  Name = 650361
REMARK  5 active torsions:
REMARK  status: ('A' for Active; 'I' for Inactive)
REMARK    1  A    between atoms: N_1  and  S_7
REMARK    2  A    between atoms: N_2  and  S_20
REMARK    3  A    between atoms: S_7  and  C_12
REMARK    4  A    between atoms: S_20  and  C_23
REMARK    5  A    between atoms: C_28  and  O_29
REMARK                            x       y       z     vdW  Elec       q    Type
REMARK                         _______ _______ _______ _____ _____    ______ ____
ROOT
ATOM      1  N   UNL     1      33.880 -15.862 -22.618  0.00  0.00    -0.153 NA
ATOM      2  N   UNL     1      32.813 -13.273 -22.043  0.00  0.00    -0.153 NA
ATOM      3  C   UNL     1      33.462 -14.951 -23.724  0.00  0.00    +0.115 C 
ATOM      4  C   UNL     1      34.349 -15.096 -21.425  0.00  0.00    +0.115 C 
ATOM      5  C   UNL     1      32.343 -14.039 -23.235  0.00  0.00    +0.115 C 
ATOM      6  C   UNL     1      33.231 -14.184 -20.936  0.00  0.00    +0.115 C 
ENDROOT
BRANCH   1   7
ATOM      7  S   UNL     1      34.876 -17.175 -23.085  0.00  0.00    +0.063 S 
ATOM      8  O   UNL     1      36.254 -16.854 -22.777  0.00  0.00    -0.153 OA
ATOM      9  O   UNL     1      34.489 -17.611 -24.409  0.00  0.00    -0.153 OA
BRANCH   7  12
ATOM     10  O   UNL     1      35.734 -21.219 -20.121  0.00  0.00    -0.468 OA
ATOM     11  O   UNL     1      32.979 -21.278 -19.277  0.00  0.00    -0.468 OA
ATOM     12  C   UNL     1      34.339 -18.387 -21.938  0.00  0.00    +0.125 C 
ATOM     13  C   UNL     1      35.235 -19.349 -21.470  0.00  0.00    +0.060 C 
ATOM     14  C   UNL     1      33.015 -18.392 -21.500  0.00  0.00    +0.023 C 
ATOM     15  C   UNL     1      34.803 -20.315 -20.560  0.00  0.00    +0.174 C 
ATOM     16  C   UNL     1      33.470 -20.337 -20.143  0.00  0.00    +0.172 C 
ATOM     17  C   UNL     1      32.579 -19.366 -20.601  0.00  0.00    +0.041 C 
ATOM     18  C   UNL     1      35.287 -21.921 -18.957  0.00  0.00    +0.253 C 
ATOM     19  C   UNL     1      33.860 -22.397 -19.147  0.00  0.00    +0.253 C 
ENDBRANCH   7  12
ENDBRANCH   1   7
BRANCH   2  20
ATOM     20  S   UNL     1      31.816 -11.960 -21.575  0.00  0.00    +0.063 S 
ATOM     21  O   UNL     1      31.934 -11.766 -20.146  0.00  0.00    -0.153 OA
ATOM     22  O   UNL     1      30.522 -12.107 -22.204  0.00  0.00    -0.153 OA
BRANCH  20  23
ATOM     23  C   UNL     1      32.662 -10.632 -22.373  0.00  0.00    +0.122 C 
ATOM     24  C   UNL     1      33.525 -10.910 -23.420  0.00  0.00    +0.023 C 
ATOM     25  C   UNL     1      32.450  -9.334 -21.937  0.00  0.00    +0.023 C 
ATOM     26  C   UNL     1      34.193  -9.859 -24.050  0.00  0.00    +0.038 C 
ATOM     27  C   UNL     1      33.118  -8.285 -22.567  0.00  0.00    +0.038 C 
ATOM     28  C   UNL     1      33.990  -8.548 -23.624  0.00  0.00    +0.139 C 
BRANCH  28  29
ATOM     29  O   UNL     1      34.642  -7.523 -24.239  0.00  0.00    -0.471 OA
ATOM     30  C   UNL     1      33.840  -6.467 -24.767  0.00  0.00    +0.252 C 
ENDBRANCH  28  29
ENDBRANCH  20  23
ENDBRANCH   2  20
TORSDOF 5
ENDMDL
MODEL 4
REMARK VINA RESULT:      -9.7      3.615      8.649
REMARK  Name = 650361
REMARK  5 active torsions:
REMARK  status: ('A' for Active; 'I' for Inactive)
REMARK    1  A    between atoms: N_1  and  S_7
REMARK    2  A    between atoms: N_2  and  S_20
REMARK    3  A    between atoms: S_7  and  C_12
REMARK    4  A    between atoms: S_20  and  C_23
REMARK    5  A    between atoms: C_28  and  O_29
REMARK                            x       y       z     vdW  Elec       q    Type
REMARK                         _______ _______ _______ _____ _____    ______ ____
ROOT
ATOM      1  N   UNL     1      34.492 -22.500 -17.958  0.00  0.00    -0.153 NA
ATOM      2  N   UNL     1      33.040 -23.678 -15.797  0.00  0.00    -0.153 NA
ATOM      3  C   UNL     1      35.203 -22.967 -16.732  0.00  0.00    +0.115 C 
ATOM      4  C   UNL     1      33.264 -23.307 -18.221  0.00  0.00    +0.115 C 
ATOM      5  C   UNL     1      34.266 -22.869 -15.534  0.00  0.00    +0.115 C 
ATOM      6  C   UNL     1      32.328 -23.211 -17.023  0.00  0.00    +0.115 C 
ENDROOT
BRANCH   1   7
ATOM      7  S   UNL     1      35.489 -22.215 -19.322  0.00  0.00    +0.063 S 
ATOM      8  O   UNL     1      35.289 -23.281 -20.281  0.00  0.00    -0.153 OA
ATOM      9  O   UNL     1      36.815 -21.858 -18.868  0.00  0.00    -0.153 OA
BRANCH   7  12
ATOM     10  O   UNL     1      35.727 -17.632 -21.515  0.00  0.00    -0.468 OA
ATOM     11  O   UNL     1      32.863 -17.340 -21.387  0.00  0.00    -0.468 OA
ATOM     12  C   UNL     1      34.729 -20.771 -19.959  0.00  0.00    +0.125 C 
ATOM     13  C   UNL     1      35.514 -19.745 -20.487  0.00  0.00    +0.060 C 
ATOM     14  C   UNL     1      33.340 -20.646 -19.933  0.00  0.00    +0.023 C 
ATOM     15  C   UNL     1      34.905 -18.595 -20.990  0.00  0.00    +0.174 C 
ATOM     16  C   UNL     1      33.516 -18.458 -20.939  0.00  0.00    +0.172 C 
ATOM     17  C   UNL     1      32.732 -19.490 -20.424  0.00  0.00    +0.041 C 
ATOM     18  C   UNL     1      35.002 -16.682 -22.301  0.00  0.00    +0.253 C 
ATOM     19  C   UNL     1      33.754 -16.236 -21.566  0.00  0.00    +0.253 C 
ENDBRANCH   7  12
ENDBRANCH   1   7
BRANCH   2  20
ATOM     20  S   UNL     1      32.042 -23.961 -14.433  0.00  0.00    +0.063 S 
ATOM     21  O   UNL     1      32.319 -22.956 -13.430  0.00  0.00    -0.153 OA
ATOM     22  O   UNL     1      32.081 -25.371 -14.108  0.00  0.00    -0.153 OA
BRANCH  20  23
ATOM     23  C   UNL     1      30.459 -23.607 -15.131  0.00  0.00    +0.122 C 
ATOM     24  C   UNL     1      29.881 -22.369 -14.905  0.00  0.00    +0.023 C 
ATOM     25  C   UNL     1      29.821 -24.573 -15.892  0.00  0.00    +0.023 C 
ATOM     26  C   UNL     1      28.631 -22.089 -15.457  0.00  0.00    +0.038 C 
ATOM     27  C   UNL     1      28.572 -24.293 -16.443  0.00  0.00    +0.038 C 
ATOM     28  C   UNL     1      27.976 -23.051 -16.225  0.00  0.00    +0.139 C 
BRANCH  28  29
ATOM     29  O   UNL     1      26.756 -22.777 -16.764  0.00  0.00    -0.471 OA
ATOM     30  C   UNL     1      26.640 -21.583 -17.536  0.00  0.00    +0.252 C 
ENDBRANCH  28  29
ENDBRANCH  20  23
ENDBRANCH   2  20
TORSDOF 5
ENDMDL
MODEL 5
REMARK VINA RESULT:      -9.6      6.310     10.569
REMARK  Name = 650361
REMARK  5 active torsions:
REMARK  status: ('A' for Active; 'I' for Inactive)
REMARK    1  A    between atoms: N_1  and  S_7
REMARK    2  A    between atoms: N_2  and  S_20
REMARK    3  A    between atoms: S_7  and  C_12
REMARK    4  A    between atoms: S_20  and  C_23
REMARK    5  A    between atoms: C_28  and  O_29
REMARK                            x       y       z     vdW  Elec       q    Type
REMARK                         _______ _______ _______ _____ _____    ______ ____
ROOT
ATOM      1  N   UNL     1      33.451 -12.104 -24.064  0.00  0.00    -0.153 NA
ATOM      2  N   UNL     1      33.203  -9.348 -23.350  0.00  0.00    -0.153 NA
ATOM      3  C   UNL     1      32.201 -11.596 -23.428  0.00  0.00    +0.115 C 
ATOM      4  C   UNL     1      34.122 -11.047 -24.878  0.00  0.00    +0.115 C 
ATOM      5  C   UNL     1      32.534 -10.406 -22.536  0.00  0.00    +0.115 C 
ATOM      6  C   UNL     1      34.454  -9.856 -23.987  0.00  0.00    +0.115 C 
ENDROOT
BRANCH   1   7
ATOM      7  S   UNL     1      33.321 -13.637 -24.819  0.00  0.00    +0.063 S 
ATOM      8  O   UNL     1      34.237 -13.691 -25.939  0.00  0.00    -0.153 OA
ATOM      9  O   UNL     1      31.921 -13.962 -24.984  0.00  0.00    -0.153 OA
BRANCH   7  12
ATOM     10  O   UNL     1      35.606 -17.895 -23.231  0.00  0.00    -0.468 OA
ATOM     11  O   UNL     1      35.411 -17.061 -20.478  0.00  0.00    -0.468 OA
ATOM     12  C   UNL     1      33.966 -14.658 -23.549  0.00  0.00    +0.125 C 
ATOM     13  C   UNL     1      34.533 -15.892 -23.867  0.00  0.00    +0.060 C 
ATOM     14  C   UNL     1      33.906 -14.237 -22.220  0.00  0.00    +0.023 C 
ATOM     15  C   UNL     1      35.042 -16.704 -22.853  0.00  0.00    +0.174 C 
ATOM     16  C   UNL     1      34.958 -16.295 -21.520  0.00  0.00    +0.172 C 
ATOM     17  C   UNL     1      34.403 -15.055 -21.204  0.00  0.00    +0.041 C 
ATOM     18  C   UNL     1      36.392 -18.469 -22.182  0.00  0.00    +0.253 C 
ATOM     19  C   UNL     1      35.633 -18.419 -20.870  0.00  0.00    +0.253 C 
ENDBRANCH   7  12
ENDBRANCH   1   7
BRANCH   2  20
ATOM     20  S   UNL     1      33.335  -7.816 -22.595  0.00  0.00    +0.063 S 
ATOM     21  O   UNL     1      34.648  -7.697 -21.998  0.00  0.00    -0.153 OA
ATOM     22  O   UNL     1      32.138  -7.569 -21.821  0.00  0.00    -0.153 OA
BRANCH  20  23
ATOM     23  C   UNL     1      33.291  -6.768 -24.016  0.00  0.00    +0.122 C 
ATOM     24  C   UNL     1      32.128  -6.077 -24.312  0.00  0.00    +0.023 C 
ATOM     25  C   UNL     1      34.419  -6.656 -24.812  0.00  0.00    +0.023 C 
ATOM     26  C   UNL     1      32.093  -5.249 -25.434  0.00  0.00    +0.038 C 
ATOM     27  C   UNL     1      34.385  -5.829 -25.933  0.00  0.00    +0.038 C 
ATOM     28  C   UNL     1      33.221  -5.125 -26.245  0.00  0.00    +0.139 C 
BRANCH  28  29
ATOM     29  O   UNL     1      33.188  -4.317 -27.340  0.00  0.00    -0.471 OA
ATOM     30  C   UNL     1      32.147  -3.343 -27.397  0.00  0.00    +0.252 C 
ENDBRANCH  28  29
ENDBRANCH  20  23
ENDBRANCH   2  20
TORSDOF 5
ENDMDL
MODEL 6
REMARK VINA RESULT:      -9.5      2.449      3.687
REMARK  Name = 650361
REMARK  5 active torsions:
REMARK  status: ('A' for Active; 'I' for Inactive)
REMARK    1  A    between atoms: N_1  and  S_7
REMARK    2  A    between atoms: N_2  and  S_20
REMARK    3  A    between atoms: S_7  and  C_12
REMARK    4  A    between atoms: S_20  and  C_23
REMARK    5  A    between atoms: C_28  and  O_29
REMARK                            x       y       z     vdW  Elec       q    Type
REMARK                         _______ _______ _______ _____ _____    ______ ____
ROOT
ATOM      1  N   UNL     1      35.269 -19.799 -20.397  0.00  0.00    -0.153 NA
ATOM      2  N   UNL     1      34.083 -17.336 -21.231  0.00  0.00    -0.153 NA
ATOM      3  C   UNL     1      33.893 -19.777 -20.974  0.00  0.00    +0.115 C 
ATOM      4  C   UNL     1      36.114 -18.701 -20.953  0.00  0.00    +0.115 C 
ATOM      5  C   UNL     1      33.239 -18.433 -20.674  0.00  0.00    +0.115 C 
ATOM      6  C   UNL     1      35.460 -17.357 -20.654  0.00  0.00    +0.115 C 
ENDROOT
BRANCH   1   7
ATOM      7  S   UNL     1      36.016 -21.340 -20.337  0.00  0.00    +0.063 S 
ATOM      8  O   UNL     1      37.419 -21.171 -20.023  0.00  0.00    -0.153 OA
ATOM      9  O   UNL     1      35.596 -22.110 -21.488  0.00  0.00    -0.153 OA
BRANCH   7  12
ATOM     10  O   UNL     1      36.076 -22.885 -15.491  0.00  0.00    -0.468 OA
ATOM     11  O   UNL     1      33.304 -23.663 -15.628  0.00  0.00    -0.468 OA
ATOM     12  C   UNL     1      35.225 -22.007 -18.923  0.00  0.00    +0.125 C 
ATOM     13  C   UNL     1      35.949 -22.202 -17.746  0.00  0.00    +0.060 C 
ATOM     14  C   UNL     1      33.874 -22.348 -18.977  0.00  0.00    +0.023 C 
ATOM     15  C   UNL     1      35.318 -22.737 -16.623  0.00  0.00    +0.174 C 
ATOM     16  C   UNL     1      33.971 -23.104 -16.686  0.00  0.00    +0.172 C 
ATOM     17  C   UNL     1      33.245 -22.895 -17.858  0.00  0.00    +0.041 C 
ATOM     18  C   UNL     1      35.267 -23.102 -14.332  0.00  0.00    +0.253 C 
ATOM     19  C   UNL     1      34.202 -24.141 -14.622  0.00  0.00    +0.253 C 
ENDBRANCH   7  12
ENDBRANCH   1   7
BRANCH   2  20
ATOM     20  S   UNL     1      33.338 -15.794 -21.290  0.00  0.00    +0.063 S 
ATOM     21  O   UNL     1      34.183 -14.836 -20.610  0.00  0.00    -0.153 OA
ATOM     22  O   UNL     1      31.940 -15.936 -20.942  0.00  0.00    -0.153 OA
BRANCH  20  23
ATOM     23  C   UNL     1      33.438 -15.470 -23.022  0.00  0.00    +0.122 C 
ATOM     24  C   UNL     1      32.935 -14.278 -23.519  0.00  0.00    +0.023 C 
ATOM     25  C   UNL     1      34.017 -16.412 -23.857  0.00  0.00    +0.023 C 
ATOM     26  C   UNL     1      33.015 -14.022 -24.888  0.00  0.00    +0.038 C 
ATOM     27  C   UNL     1      34.096 -16.156 -25.225  0.00  0.00    +0.038 C 
ATOM     28  C   UNL     1      33.594 -14.961 -25.741  0.00  0.00    +0.139 C 
BRANCH  28  29
ATOM     29  O   UNL     1      33.672 -14.711 -27.077  0.00  0.00    -0.471 OA
ATOM     30  C   UNL     1      33.382 -13.381 -27.506  0.00  0.00    +0.252 C 
ENDBRANCH  28  29
ENDBRANCH  20  23
ENDBRANCH   2  20
TORSDOF 5
ENDMDL
MODEL 7
REMARK VINA RESULT:      -9.5      1.900      2.524
REMARK  Name = 650361
REMARK  5 active torsions:
REMARK  status: ('A' for Active; 'I' for Inactive)
REMARK    1  A    between atoms: N_1  and  S_7
REMARK    2  A    between atoms: N_2  and  S_20
REMARK    3  A    between atoms: S_7  and  C_12
REMARK    4  A    between atoms: S_20  and  C_23
REMARK    5  A    between atoms: C_28  and  O_29
REMARK                            x       y       z     vdW  Elec       q    Type
REMARK                         _______ _______ _______ _____ _____    ______ ____
ROOT
ATOM      1  N   UNL     1      34.333 -21.494 -19.183  0.00  0.00    -0.153 NA
ATOM      2  N   UNL     1      35.569 -19.586 -20.916  0.00  0.00    -0.153 NA
ATOM      3  C   UNL     1      33.510 -20.680 -20.125  0.00  0.00    +0.115 C 
ATOM      4  C   UNL     1      35.704 -21.736 -19.722  0.00  0.00    +0.115 C 
ATOM      5  C   UNL     1      34.199 -19.344 -20.376  0.00  0.00    +0.115 C 
ATOM      6  C   UNL     1      36.393 -20.400 -19.974  0.00  0.00    +0.115 C 
ENDROOT
BRANCH   1   7
ATOM      7  S   UNL     1      33.551 -22.868 -18.523  0.00  0.00    +0.063 S 
ATOM      8  O   UNL     1      33.865 -24.024 -19.337  0.00  0.00    -0.153 OA
ATOM      9  O   UNL     1      32.181 -22.525 -18.212  0.00  0.00    -0.153 OA
BRANCH   7  12
ATOM     10  O   UNL     1      33.819 -24.213 -13.625  0.00  0.00    -0.468 OA
ATOM     11  O   UNL     1      36.542 -23.288 -13.443  0.00  0.00    -0.468 OA
ATOM     12  C   UNL     1      34.427 -23.021 -17.013  0.00  0.00    +0.125 C 
ATOM     13  C   UNL     1      33.791 -23.550 -15.889  0.00  0.00    +0.060 C 
ATOM     14  C   UNL     1      35.757 -22.609 -16.935  0.00  0.00    +0.023 C 
ATOM     15  C   UNL     1      34.490 -23.667 -14.687  0.00  0.00    +0.174 C 
ATOM     16  C   UNL     1      35.814 -23.229 -14.602  0.00  0.00    +0.172 C 
ATOM     17  C   UNL     1      36.453 -22.714 -15.730  0.00  0.00    +0.041 C 
ATOM     18  C   UNL     1      34.709 -24.603 -12.575  0.00  0.00    +0.253 C 
ATOM     19  C   UNL     1      35.710 -23.499 -12.299  0.00  0.00    +0.253 C 
ENDBRANCH   7  12
ENDBRANCH   1   7
BRANCH   2  20
ATOM     20  S   UNL     1      36.351 -18.211 -21.574  0.00  0.00    +0.063 S 
ATOM     21  O   UNL     1      37.666 -18.596 -22.040  0.00  0.00    -0.153 OA
ATOM     22  O   UNL     1      36.177 -17.095 -20.670  0.00  0.00    -0.153 OA
BRANCH  20  23
ATOM     23  C   UNL     1      35.337 -17.928 -22.991  0.00  0.00    +0.122 C 
ATOM     24  C   UNL     1      34.918 -16.640 -23.278  0.00  0.00    +0.023 C 
ATOM     25  C   UNL     1      34.976 -19.000 -23.792  0.00  0.00    +0.023 C 
ATOM     26  C   UNL     1      34.117 -16.417 -24.398  0.00  0.00    +0.038 C 
ATOM     27  C   UNL     1      34.176 -18.777 -24.911  0.00  0.00    +0.038 C 
ATOM     28  C   UNL     1      33.745 -17.485 -25.214  0.00  0.00    +0.139 C 
BRANCH  28  29
ATOM     29  O   UNL     1      32.963 -17.267 -26.307  0.00  0.00    -0.471 OA
ATOM     30  C   UNL     1      32.610 -15.915 -26.593  0.00  0.00    +0.252 C 
ENDBRANCH  28  29
ENDBRANCH  20  23
ENDBRANCH   2  20
TORSDOF 5
ENDMDL
MODEL 8
REMARK VINA RESULT:      -9.4      1.974      9.465
REMARK  Name = 650361
REMARK  5 active torsions:
REMARK  status: ('A' for Active; 'I' for Inactive)
REMARK    1  A    between atoms: N_1  and  S_7
REMARK    2  A    between atoms: N_2  and  S_20
REMARK    3  A    between atoms: S_7  and  C_12
REMARK    4  A    between atoms: S_20  and  C_23
REMARK    5  A    between atoms: C_28  and  O_29
REMARK                            x       y       z     vdW  Elec       q    Type
REMARK                         _______ _______ _______ _____ _____    ______ ____
ROOT
ATOM      1  N   UNL     1      35.503 -19.679 -20.789  0.00  0.00    -0.153 NA
ATOM      2  N   UNL     1      34.252 -21.606 -19.088  0.00  0.00    -0.153 NA
ATOM      3  C   UNL     1      34.130 -19.441 -20.254  0.00  0.00    +0.115 C 
ATOM      4  C   UNL     1      36.320 -20.508 -19.853  0.00  0.00    +0.115 C 
ATOM      5  C   UNL     1      33.436 -20.778 -20.024  0.00  0.00    +0.115 C 
ATOM      6  C   UNL     1      35.625 -21.845 -19.623  0.00  0.00    +0.115 C 
ENDROOT
BRANCH   1   7
ATOM      7  S   UNL     1      36.293 -18.299 -21.426  0.00  0.00    +0.063 S 
ATOM      8  O   UNL     1      37.637 -18.665 -21.819  0.00  0.00    -0.153 OA
ATOM      9  O   UNL     1      36.052 -17.173 -20.549  0.00  0.00    -0.153 OA
BRANCH   7  12
ATOM     10  O   UNL     1      33.889 -15.291 -24.750  0.00  0.00    -0.468 OA
ATOM     11  O   UNL     1      33.065 -17.563 -26.322  0.00  0.00    -0.468 OA
ATOM     12  C   UNL     1      35.354 -18.057 -22.886  0.00  0.00    +0.125 C 
ATOM     13  C   UNL     1      34.969 -16.770 -23.261  0.00  0.00    +0.060 C 
ATOM     14  C   UNL     1      34.988 -19.153 -23.667  0.00  0.00    +0.023 C 
ATOM     15  C   UNL     1      34.219 -16.581 -24.422  0.00  0.00    +0.174 C 
ATOM     16  C   UNL     1      33.829 -17.681 -25.190  0.00  0.00    +0.172 C 
ATOM     17  C   UNL     1      34.226 -18.966 -24.821  0.00  0.00    +0.041 C 
ATOM     18  C   UNL     1      33.439 -15.184 -26.104  0.00  0.00    +0.253 C 
ATOM     19  C   UNL     1      32.438 -16.281 -26.413  0.00  0.00    +0.253 C 
ENDBRANCH   7  12
ENDBRANCH   1   7
BRANCH   2  20
ATOM     20  S   UNL     1      33.463 -22.987 -18.452  0.00  0.00    +0.063 S 
ATOM     21  O   UNL     1      33.834 -24.145 -19.237  0.00  0.00    -0.153 OA
ATOM     22  O   UNL     1      32.073 -22.664 -18.211  0.00  0.00    -0.153 OA
BRANCH  20  23
ATOM     23  C   UNL     1      34.273 -23.112 -16.888  0.00  0.00    +0.122 C 
ATOM     24  C   UNL     1      35.599 -22.729 -16.780  0.00  0.00    +0.023 C 
ATOM     25  C   UNL     1      33.568 -23.590 -15.795  0.00  0.00    +0.023 C 
ATOM     26  C   UNL     1      36.239 -22.827 -15.544  0.00  0.00    +0.038 C 
ATOM     27  C   UNL     1      34.208 -23.688 -14.561  0.00  0.00    +0.038 C 
ATOM     28  C   UNL     1      35.544 -23.307 -14.435  0.00  0.00    +0.139 C 
BRANCH  28  29
ATOM     29  O   UNL     1      36.168 -23.403 -13.228  0.00  0.00    -0.471 OA
ATOM     30  C   UNL     1      35.375 -23.824 -12.119  0.00  0.00    +0.252 C 
ENDBRANCH  28  29
ENDBRANCH  20  23
ENDBRANCH   2  20
TORSDOF 5
ENDMDL
MODEL 9
REMARK VINA RESULT:      -9.4      2.831      9.719
REMARK  Name = 650361
REMARK  5 active torsions:
REMARK  status: ('A' for Active; 'I' for Inactive)
REMARK    1  A    between atoms: N_1  and  S_7
REMARK    2  A    between atoms: N_2  and  S_20
REMARK    3  A    between atoms: S_7  and  C_12
REMARK    4  A    between atoms: S_20  and  C_23
REMARK    5  A    between atoms: C_28  and  O_29
REMARK                            x       y       z     vdW  Elec       q    Type
REMARK                         _______ _______ _______ _____ _____    ______ ____
ROOT
ATOM      1  N   UNL     1      34.406 -22.705 -17.169  0.00  0.00    -0.153 NA
ATOM      2  N   UNL     1      36.018 -23.339 -14.895  0.00  0.00    -0.153 NA
ATOM      3  C   UNL     1      35.895 -22.630 -17.250  0.00  0.00    +0.115 C 
ATOM      4  C   UNL     1      33.962 -23.741 -16.191  0.00  0.00    +0.115 C 
ATOM      5  C   UNL     1      36.461 -22.303 -15.873  0.00  0.00    +0.115 C 
ATOM      6  C   UNL     1      34.529 -23.415 -14.814  0.00  0.00    +0.115 C 
ENDROOT
BRANCH   1   7
ATOM      7  S   UNL     1      33.589 -22.720 -18.675  0.00  0.00    +0.063 S 
ATOM      8  O   UNL     1      32.231 -22.258 -18.479  0.00  0.00    -0.153 OA
ATOM      9  O   UNL     1      33.861 -23.974 -19.345  0.00  0.00    -0.153 OA
BRANCH   7  12
ATOM     10  O   UNL     1      33.747 -18.397 -21.351  0.00  0.00    -0.468 OA
ATOM     11  O   UNL     1      36.619 -18.537 -21.547  0.00  0.00    -0.468 OA
ATOM     12  C   UNL     1      34.470 -21.458 -19.513  0.00  0.00    +0.125 C 
ATOM     13  C   UNL     1      33.777 -20.411 -20.122  0.00  0.00    +0.060 C 
ATOM     14  C   UNL     1      35.862 -21.505 -19.575  0.00  0.00    +0.023 C 
ATOM     15  C   UNL     1      34.481 -19.410 -20.791  0.00  0.00    +0.174 C 
ATOM     16  C   UNL     1      35.874 -19.472 -20.877  0.00  0.00    +0.172 C 
ATOM     17  C   UNL     1      36.567 -20.511 -20.256  0.00  0.00    +0.041 C 
ATOM     18  C   UNL     1      34.563 -17.274 -21.694  0.00  0.00    +0.253 C 
ATOM     19  C   UNL     1      35.814 -17.734 -22.415  0.00  0.00    +0.253 C 
ENDBRANCH   7  12
ENDBRANCH   1   7
BRANCH   2  20
ATOM     20  S   UNL     1      36.834 -23.324 -13.389  0.00  0.00    +0.063 S 
ATOM     21  O   UNL     1      36.000 -23.966 -12.395  0.00  0.00    -0.153 OA
ATOM     22  O   UNL     1      37.378 -22.002 -13.164  0.00  0.00    -0.153 OA
BRANCH  20  23
ATOM     23  C   UNL     1      38.175 -24.411 -13.754  0.00  0.00    +0.122 C 
ATOM     24  C   UNL     1      38.789 -24.338 -14.993  0.00  0.00    +0.023 C 
ATOM     25  C   UNL     1      38.592 -25.320 -12.795  0.00  0.00    +0.023 C 
ATOM     26  C   UNL     1      39.850 -25.197 -15.282  0.00  0.00    +0.038 C 
ATOM     27  C   UNL     1      39.652 -26.179 -13.083  0.00  0.00    +0.038 C 
ATOM     28  C   UNL     1      40.281 -26.117 -14.327  0.00  0.00    +0.139 C 
BRANCH  28  29
ATOM     29  O   UNL     1      41.316 -26.956 -14.608  0.00  0.00    -0.471 OA
ATOM     30  C   UNL     1      41.847 -27.717 -13.524  0.00  0.00    +0.252 C 
ENDBRANCH  28  29
ENDBRANCH  20  23
ENDBRANCH   2  20
TORSDOF 5
ENDMDL
