MODEL 1
REMARK VINA RESULT:     -11.5      0.000      0.000
REMARK  Name = 54676038
REMARK  4 active torsions:
REMARK  status: ('A' for Active; 'I' for Inactive)
REMARK    1  A    between atoms: C_1  and  C_4
REMARK    2  A    between atoms: C_1  and  C_17
REMARK    3  A    between atoms: C_5  and  O_13
REMARK    4  A    between atoms: C_18  and  O_26
REMARK                            x       y       z     vdW  Elec       q    Type
REMARK                         _______ _______ _______ _____ _____    ______ ____
ROOT
ATOM      1  C   UNL     1      35.952 -18.196 -22.851  0.00  0.00    +0.072 C 
ENDROOT
BRANCH   1   4
ATOM      2  O   UNL     1      33.590 -15.527 -24.071  0.00  0.00    -0.421 OA
ATOM      3  O   UNL     1      34.709 -17.211 -25.115  0.00  0.00    -0.245 OA
ATOM      4  C   UNL     1      35.036 -17.031 -22.763  0.00  0.00    +0.092 A 
ATOM      5  C   UNL     1      34.725 -16.361 -21.638  0.00  0.00    +0.139 A 
ATOM      6  C   UNL     1      33.814 -15.214 -21.671  0.00  0.00    +0.068 A 
ATOM      7  C   UNL     1      33.272 -14.830 -22.893  0.00  0.00    +0.152 A 
ATOM      8  C   UNL     1      34.450 -16.618 -24.072  0.00  0.00    +0.345 A 
ATOM      9  C   UNL     1      33.455 -14.477 -20.535  0.00  0.00    +0.006 C 
ATOM     10  C   UNL     1      32.397 -13.749 -23.013  0.00  0.00    +0.038 C 
ATOM     11  C   UNL     1      32.579 -13.391 -20.637  0.00  0.00    +0.000 C 
ATOM     12  C   UNL     1      32.051 -13.027 -21.876  0.00  0.00    +0.003 C 
BRANCH   5  13
ATOM     13  O   UNL     1      35.208 -16.670 -20.384  0.00  0.00    -0.506 OA
ATOM     14  H   UNL     1      35.867 -16.133 -19.991  0.00  0.00    +0.292 HD
ENDBRANCH   5  13
ENDBRANCH   1   4
BRANCH   1  17
ATOM     15  O   UNL     1      36.877 -20.359 -19.885  0.00  0.00    -0.421 OA
ATOM     16  O   UNL     1      38.068 -18.957 -21.224  0.00  0.00    -0.245 OA
ATOM     17  C   UNL     1      35.747 -19.160 -21.714  0.00  0.00    +0.092 A 
ATOM     18  C   UNL     1      34.576 -19.732 -21.374  0.00  0.00    +0.139 A 
ATOM     19  C   UNL     1      34.495 -20.669 -20.250  0.00  0.00    +0.068 A 
ATOM     20  C   UNL     1      35.654 -20.956 -19.537  0.00  0.00    +0.152 A 
ATOM     21  C   UNL     1      36.987 -19.467 -20.943  0.00  0.00    +0.345 A 
ATOM     22  C   UNL     1      33.308 -21.297 -19.850  0.00  0.00    +0.006 C 
ATOM     23  C   UNL     1      35.664 -21.836 -18.454  0.00  0.00    +0.038 C 
ATOM     24  C   UNL     1      33.300 -22.184 -18.768  0.00  0.00    +0.000 C 
ATOM     25  C   UNL     1      34.477 -22.453 -18.071  0.00  0.00    +0.003 C 
BRANCH  18  26
ATOM     26  O   UNL     1      33.379 -19.507 -22.018  0.00  0.00    -0.506 OA
ATOM     27  H   UNL     1      33.312 -18.826 -22.657  0.00  0.00    +0.292 HD
ENDBRANCH  18  26
ENDBRANCH   1  17
TORSDOF 4
ENDMDL
MODEL 2
REMARK VINA RESULT:     -11.5      0.028      6.682
REMARK  Name = 54676038
REMARK  4 active torsions:
REMARK  status: ('A' for Active; 'I' for Inactive)
REMARK    1  A    between atoms: C_1  and  C_4
REMARK    2  A    between atoms: C_1  and  C_17
REMARK    3  A    between atoms: C_5  and  O_13
REMARK    4  A    between atoms: C_18  and  O_26
REMARK                            x       y       z     vdW  Elec       q    Type
REMARK                         _______ _______ _______ _____ _____    ______ ____
ROOT
ATOM      1  C   UNL     1      35.931 -18.211 -22.868  0.00  0.00    +0.072 C 
ENDROOT
BRANCH   1   4
ATOM      2  O   UNL     1      36.880 -20.356 -19.921  0.00  0.00    -0.421 OA
ATOM      3  O   UNL     1      38.061 -18.957 -21.271  0.00  0.00    -0.245 OA
ATOM      4  C   UNL     1      35.736 -19.160 -21.744  0.00  0.00    +0.092 A 
ATOM      5  C   UNL     1      34.568 -19.731 -21.394  0.00  0.00    +0.139 A 
ATOM      6  C   UNL     1      34.495 -20.666 -20.268  0.00  0.00    +0.068 A 
ATOM      7  C   UNL     1      35.659 -20.952 -19.562  0.00  0.00    +0.152 A 
ATOM      8  C   UNL     1      36.982 -19.466 -20.982  0.00  0.00    +0.345 A 
ATOM      9  C   UNL     1      33.310 -21.293 -19.859  0.00  0.00    +0.006 C 
ATOM     10  C   UNL     1      35.676 -21.831 -18.479  0.00  0.00    +0.038 C 
ATOM     11  C   UNL     1      33.310 -22.177 -18.775  0.00  0.00    +0.000 C 
ATOM     12  C   UNL     1      34.492 -22.445 -18.086  0.00  0.00    +0.003 C 
BRANCH   5  13
ATOM     13  O   UNL     1      33.366 -19.507 -22.030  0.00  0.00    -0.506 OA
ATOM     14  H   UNL     1      33.013 -18.640 -22.071  0.00  0.00    +0.292 HD
ENDBRANCH   5  13
ENDBRANCH   1   4
BRANCH   1  17
ATOM     15  O   UNL     1      33.568 -15.506 -24.064  0.00  0.00    -0.421 OA
ATOM     16  O   UNL     1      34.672 -17.191 -25.121  0.00  0.00    -0.245 OA
ATOM     17  C   UNL     1      35.010 -17.025 -22.771  0.00  0.00    +0.092 A 
ATOM     18  C   UNL     1      34.707 -16.359 -21.640  0.00  0.00    +0.139 A 
ATOM     19  C   UNL     1      33.803 -15.207 -21.664  0.00  0.00    +0.068 A 
ATOM     20  C   UNL     1      33.259 -14.813 -22.882  0.00  0.00    +0.152 A 
ATOM     21  C   UNL     1      34.420 -16.602 -24.074  0.00  0.00    +0.345 A 
ATOM     22  C   UNL     1      33.452 -14.474 -20.523  0.00  0.00    +0.006 C 
ATOM     23  C   UNL     1      32.389 -13.727 -22.993  0.00  0.00    +0.038 C 
ATOM     24  C   UNL     1      32.583 -13.381 -20.616  0.00  0.00    +0.000 C 
ATOM     25  C   UNL     1      32.053 -13.008 -21.851  0.00  0.00    +0.003 C 
BRANCH  18  26
ATOM     26  O   UNL     1      35.194 -16.678 -20.390  0.00  0.00    -0.506 OA
ATOM     27  H   UNL     1      35.777 -17.403 -20.286  0.00  0.00    +0.292 HD
ENDBRANCH  18  26
ENDBRANCH   1  17
TORSDOF 4
ENDMDL
MODEL 3
REMARK VINA RESULT:     -10.7      1.800      3.521
REMARK  Name = 54676038
REMARK  4 active torsions:
REMARK  status: ('A' for Active; 'I' for Inactive)
REMARK    1  A    between atoms: C_1  and  C_4
REMARK    2  A    between atoms: C_1  and  C_17
REMARK    3  A    between atoms: C_5  and  O_13
REMARK    4  A    between atoms: C_18  and  O_26
REMARK                            x       y       z     vdW  Elec       q    Type
REMARK                         _______ _______ _______ _____ _____    ______ ____
ROOT
ATOM      1  C   UNL     1      34.852 -20.576 -21.312  0.00  0.00    +0.072 C 
ENDROOT
BRANCH   1   4
ATOM      2  O   UNL     1      35.730 -16.914 -21.415  0.00  0.00    -0.421 OA
ATOM      3  O   UNL     1      36.937 -18.814 -21.747  0.00  0.00    -0.245 OA
ATOM      4  C   UNL     1      34.631 -19.110 -21.230  0.00  0.00    +0.092 A 
ATOM      5  C   UNL     1      33.460 -18.508 -20.952  0.00  0.00    +0.139 A 
ATOM      6  C   UNL     1      33.361 -17.048 -20.886  0.00  0.00    +0.068 A 
ATOM      7  C   UNL     1      34.505 -16.291 -21.120  0.00  0.00    +0.152 A 
ATOM      8  C   UNL     1      35.856 -18.296 -21.485  0.00  0.00    +0.345 A 
ATOM      9  C   UNL     1      32.172 -16.365 -20.598  0.00  0.00    +0.006 C 
ATOM     10  C   UNL     1      34.497 -14.897 -21.076  0.00  0.00    +0.038 C 
ATOM     11  C   UNL     1      32.147 -14.967 -20.550  0.00  0.00    +0.000 C 
ATOM     12  C   UNL     1      33.309 -14.234 -20.789  0.00  0.00    +0.003 C 
BRANCH   5  13
ATOM     13  O   UNL     1      32.277 -19.172 -20.711  0.00  0.00    -0.506 OA
ATOM     14  H   UNL     1      32.188 -20.074 -20.950  0.00  0.00    +0.292 HD
ENDBRANCH   5  13
ENDBRANCH   1   4
BRANCH   1  17
ATOM     15  O   UNL     1      33.826 -22.453 -18.189  0.00  0.00    -0.421 OA
ATOM     16  O   UNL     1      32.731 -21.897 -20.104  0.00  0.00    -0.245 OA
ATOM     17  C   UNL     1      35.002 -21.200 -19.952  0.00  0.00    +0.092 A 
ATOM     18  C   UNL     1      36.123 -21.190 -19.204  0.00  0.00    +0.139 A 
ATOM     19  C   UNL     1      36.152 -21.822 -17.883  0.00  0.00    +0.068 A 
ATOM     20  C   UNL     1      34.997 -22.436 -17.413  0.00  0.00    +0.152 A 
ATOM     21  C   UNL     1      33.766 -21.865 -19.445  0.00  0.00    +0.345 A 
ATOM     22  C   UNL     1      37.286 -21.842 -17.059  0.00  0.00    +0.006 C 
ATOM     23  C   UNL     1      34.940 -23.061 -16.166  0.00  0.00    +0.038 C 
ATOM     24  C   UNL     1      37.246 -22.462 -15.806  0.00  0.00    +0.000 C 
ATOM     25  C   UNL     1      36.073 -23.070 -15.360  0.00  0.00    +0.003 C 
BRANCH  18  26
ATOM     26  O   UNL     1      37.313 -20.610 -19.587  0.00  0.00    -0.506 OA
ATOM     27  H   UNL     1      38.093 -20.770 -19.093  0.00  0.00    +0.292 HD
ENDBRANCH  18  26
ENDBRANCH   1  17
TORSDOF 4
ENDMDL
MODEL 4
REMARK VINA RESULT:     -10.7      1.810      6.975
REMARK  Name = 54676038
REMARK  4 active torsions:
REMARK  status: ('A' for Active; 'I' for Inactive)
REMARK    1  A    between atoms: C_1  and  C_4
REMARK    2  A    between atoms: C_1  and  C_17
REMARK    3  A    between atoms: C_5  and  O_13
REMARK    4  A    between atoms: C_18  and  O_26
REMARK                            x       y       z     vdW  Elec       q    Type
REMARK                         _______ _______ _______ _____ _____    ______ ____
ROOT
ATOM      1  C   UNL     1      34.860 -20.606 -21.282  0.00  0.00    +0.072 C 
ENDROOT
BRANCH   1   4
ATOM      2  O   UNL     1      33.812 -22.474 -18.183  0.00  0.00    -0.421 OA
ATOM      3  O   UNL     1      32.733 -21.927 -20.110  0.00  0.00    -0.245 OA
ATOM      4  C   UNL     1      34.999 -21.217 -19.936  0.00  0.00    +0.092 A 
ATOM      5  C   UNL     1      36.112 -21.199 -19.178  0.00  0.00    +0.139 A 
ATOM      6  C   UNL     1      36.132 -21.827 -17.855  0.00  0.00    +0.068 A 
ATOM      7  C   UNL     1      34.976 -22.449 -17.395  0.00  0.00    +0.152 A 
ATOM      8  C   UNL     1      33.761 -21.888 -19.441  0.00  0.00    +0.345 A 
ATOM      9  C   UNL     1      37.258 -21.838 -17.020  0.00  0.00    +0.006 C 
ATOM     10  C   UNL     1      34.910 -23.069 -16.147  0.00  0.00    +0.038 C 
ATOM     11  C   UNL     1      37.209 -22.456 -15.767  0.00  0.00    +0.000 C 
ATOM     12  C   UNL     1      36.036 -23.071 -15.330  0.00  0.00    +0.003 C 
BRANCH   5  13
ATOM     13  O   UNL     1      37.303 -20.613 -19.551  0.00  0.00    -0.506 OA
ATOM     14  H   UNL     1      37.722 -20.870 -20.348  0.00  0.00    +0.292 HD
ENDBRANCH   5  13
ENDBRANCH   1   4
BRANCH   1  17
ATOM     15  O   UNL     1      35.720 -16.921 -21.391  0.00  0.00    -0.421 OA
ATOM     16  O   UNL     1      36.937 -18.816 -21.712  0.00  0.00    -0.245 OA
ATOM     17  C   UNL     1      34.631 -19.121 -21.205  0.00  0.00    +0.092 A 
ATOM     18  C   UNL     1      33.455 -18.523 -20.934  0.00  0.00    +0.139 A 
ATOM     19  C   UNL     1      33.350 -17.063 -20.873  0.00  0.00    +0.068 A 
ATOM     20  C   UNL     1      34.491 -16.303 -21.104  0.00  0.00    +0.152 A 
ATOM     21  C   UNL     1      35.852 -18.301 -21.456  0.00  0.00    +0.345 A 
ATOM     22  C   UNL     1      32.157 -16.383 -20.594  0.00  0.00    +0.006 C 
ATOM     23  C   UNL     1      34.478 -14.908 -21.065  0.00  0.00    +0.038 C 
ATOM     24  C   UNL     1      32.125 -14.985 -20.550  0.00  0.00    +0.000 C 
ATOM     25  C   UNL     1      33.286 -14.249 -20.785  0.00  0.00    +0.003 C 
BRANCH  18  26
ATOM     26  O   UNL     1      32.274 -19.191 -20.696  0.00  0.00    -0.506 OA
ATOM     27  H   UNL     1      32.246 -19.885 -20.067  0.00  0.00    +0.292 HD
ENDBRANCH  18  26
ENDBRANCH   1  17
TORSDOF 4
ENDMDL
MODEL 5
REMARK VINA RESULT:     -10.5      0.584      6.657
REMARK  Name = 54676038
REMARK  4 active torsions:
REMARK  status: ('A' for Active; 'I' for Inactive)
REMARK    1  A    between atoms: C_1  and  C_4
REMARK    2  A    between atoms: C_1  and  C_17
REMARK    3  A    between atoms: C_5  and  O_13
REMARK    4  A    between atoms: C_18  and  O_26
REMARK                            x       y       z     vdW  Elec       q    Type
REMARK                         _______ _______ _______ _____ _____    ______ ____
ROOT
ATOM      1  C   UNL     1      36.010 -18.070 -22.754  0.00  0.00    +0.072 C 
ENDROOT
BRANCH   1   4
ATOM      2  O   UNL     1      33.702 -20.483 -21.012  0.00  0.00    -0.421 OA
ATOM      3  O   UNL     1      33.442 -19.094 -22.795  0.00  0.00    -0.245 OA
ATOM      4  C   UNL     1      35.588 -19.090 -21.761  0.00  0.00    +0.092 A 
ATOM      5  C   UNL     1      36.362 -19.603 -20.787  0.00  0.00    +0.139 A 
ATOM      6  C   UNL     1      35.835 -20.601 -19.853  0.00  0.00    +0.068 A 
ATOM      7  C   UNL     1      34.513 -21.013 -19.994  0.00  0.00    +0.152 A 
ATOM      8  C   UNL     1      34.172 -19.537 -21.913  0.00  0.00    +0.345 A 
ATOM      9  C   UNL     1      36.590 -21.168 -18.818  0.00  0.00    +0.006 C 
ATOM     10  C   UNL     1      33.933 -21.958 -19.147  0.00  0.00    +0.038 C 
ATOM     11  C   UNL     1      36.024 -22.117 -17.960  0.00  0.00    +0.000 C 
ATOM     12  C   UNL     1      34.697 -22.511 -18.124  0.00  0.00    +0.003 C 
BRANCH   5  13
ATOM     13  O   UNL     1      37.680 -19.260 -20.572  0.00  0.00    -0.506 OA
ATOM     14  H   UNL     1      38.161 -19.662 -19.876  0.00  0.00    +0.292 HD
ENDBRANCH   5  13
ENDBRANCH   1   4
BRANCH   1  17
ATOM     15  O   UNL     1      33.790 -15.368 -24.205  0.00  0.00    -0.421 OA
ATOM     16  O   UNL     1      34.975 -17.077 -25.130  0.00  0.00    -0.245 OA
ATOM     17  C   UNL     1      35.093 -16.877 -22.761  0.00  0.00    +0.092 A 
ATOM     18  C   UNL     1      34.691 -16.192 -21.672  0.00  0.00    +0.139 A 
ATOM     19  C   UNL     1      33.802 -15.034 -21.798  0.00  0.00    +0.068 A 
ATOM     20  C   UNL     1      33.377 -14.656 -23.067  0.00  0.00    +0.152 A 
ATOM     21  C   UNL     1      34.631 -16.470 -24.119  0.00  0.00    +0.345 A 
ATOM     22  C   UNL     1      33.352 -14.282 -20.705  0.00  0.00    +0.006 C 
ATOM     23  C   UNL     1      32.531 -13.566 -23.274  0.00  0.00    +0.038 C 
ATOM     24  C   UNL     1      32.504 -13.185 -20.895  0.00  0.00    +0.000 C 
ATOM     25  C   UNL     1      32.094 -12.828 -22.179  0.00  0.00    +0.003 C 
BRANCH  18  26
ATOM     26  O   UNL     1      35.056 -16.495 -20.379  0.00  0.00    -0.506 OA
ATOM     27  H   UNL     1      35.847 -16.143 -20.020  0.00  0.00    +0.292 HD
ENDBRANCH  18  26
ENDBRANCH   1  17
TORSDOF 4
ENDMDL
MODEL 6
REMARK VINA RESULT:     -10.5      1.937      7.367
REMARK  Name = 54676038
REMARK  4 active torsions:
REMARK  status: ('A' for Active; 'I' for Inactive)
REMARK    1  A    between atoms: C_1  and  C_4
REMARK    2  A    between atoms: C_1  and  C_17
REMARK    3  A    between atoms: C_5  and  O_13
REMARK    4  A    between atoms: C_18  and  O_26
REMARK                            x       y       z     vdW  Elec       q    Type
REMARK                         _______ _______ _______ _____ _____    ______ ____
ROOT
ATOM      1  C   UNL     1      34.816 -20.662 -21.129  0.00  0.00    +0.072 C 
ENDROOT
BRANCH   1   4
ATOM      2  O   UNL     1      36.862 -21.233 -18.018  0.00  0.00    -0.421 OA
ATOM      3  O   UNL     1      37.201 -19.998 -19.899  0.00  0.00    -0.245 OA
ATOM      4  C   UNL     1      35.151 -21.205 -19.788  0.00  0.00    +0.092 A 
ATOM      5  C   UNL     1      34.377 -22.033 -19.061  0.00  0.00    +0.139 A 
ATOM      6  C   UNL     1      34.816 -22.516 -17.750  0.00  0.00    +0.068 A 
ATOM      7  C   UNL     1      36.051 -22.099 -17.265  0.00  0.00    +0.152 A 
ATOM      8  C   UNL     1      36.475 -20.757 -19.264  0.00  0.00    +0.345 A 
ATOM      9  C   UNL     1      34.056 -23.380 -16.950  0.00  0.00    +0.006 C 
ATOM     10  C   UNL     1      36.544 -22.514 -16.027  0.00  0.00    +0.038 C 
ATOM     11  C   UNL     1      34.535 -23.804 -15.706  0.00  0.00    +0.000 C 
ATOM     12  C   UNL     1      35.778 -23.372 -15.245  0.00  0.00    +0.003 C 
BRANCH   5  13
ATOM     13  O   UNL     1      33.139 -22.494 -19.456  0.00  0.00    -0.506 OA
ATOM     14  H   UNL     1      33.069 -23.299 -19.930  0.00  0.00    +0.292 HD
ENDBRANCH   5  13
ENDBRANCH   1   4
BRANCH   1  17
ATOM     15  O   UNL     1      32.152 -18.014 -20.664  0.00  0.00    -0.421 OA
ATOM     16  O   UNL     1      32.123 -20.287 -20.574  0.00  0.00    -0.245 OA
ATOM     17  C   UNL     1      34.228 -19.280 -21.046  0.00  0.00    +0.092 A 
ATOM     18  C   UNL     1      34.905 -18.129 -21.222  0.00  0.00    +0.139 A 
ATOM     19  C   UNL     1      34.225 -16.834 -21.129  0.00  0.00    +0.068 A 
ATOM     20  C   UNL     1      32.862 -16.816 -20.852  0.00  0.00    +0.152 A 
ATOM     21  C   UNL     1      32.767 -19.255 -20.745  0.00  0.00    +0.345 A 
ATOM     22  C   UNL     1      34.873 -15.605 -21.304  0.00  0.00    +0.006 C 
ATOM     23  C   UNL     1      32.139 -15.627 -20.747  0.00  0.00    +0.038 C 
ATOM     24  C   UNL     1      34.164 -14.403 -21.203  0.00  0.00    +0.000 C 
ATOM     25  C   UNL     1      32.797 -14.415 -20.925  0.00  0.00    +0.003 C 
BRANCH  18  26
ATOM     26  O   UNL     1      36.253 -18.048 -21.495  0.00  0.00    -0.506 OA
ATOM     27  H   UNL     1      36.598 -18.441 -22.272  0.00  0.00    +0.292 HD
ENDBRANCH  18  26
ENDBRANCH   1  17
TORSDOF 4
ENDMDL
MODEL 7
REMARK VINA RESULT:     -10.5      1.879      3.083
REMARK  Name = 54676038
REMARK  4 active torsions:
REMARK  status: ('A' for Active; 'I' for Inactive)
REMARK    1  A    between atoms: C_1  and  C_4
REMARK    2  A    between atoms: C_1  and  C_17
REMARK    3  A    between atoms: C_5  and  O_13
REMARK    4  A    between atoms: C_18  and  O_26
REMARK                            x       y       z     vdW  Elec       q    Type
REMARK                         _______ _______ _______ _____ _____    ______ ____
ROOT
ATOM      1  C   UNL     1      34.780 -20.624 -21.198  0.00  0.00    +0.072 C 
ENDROOT
BRANCH   1   4
ATOM      2  O   UNL     1      32.186 -17.945 -20.665  0.00  0.00    -0.421 OA
ATOM      3  O   UNL     1      32.130 -20.215 -20.523  0.00  0.00    -0.245 OA
ATOM      4  C   UNL     1      34.224 -19.249 -21.119  0.00  0.00    +0.092 A 
ATOM      5  C   UNL     1      34.907 -18.113 -21.352  0.00  0.00    +0.139 A 
ATOM      6  C   UNL     1      34.250 -16.807 -21.255  0.00  0.00    +0.068 A 
ATOM      7  C   UNL     1      32.903 -16.762 -20.913  0.00  0.00    +0.152 A 
ATOM      8  C   UNL     1      32.779 -19.198 -20.748  0.00  0.00    +0.345 A 
ATOM      9  C   UNL     1      34.907 -15.591 -21.489  0.00  0.00    +0.006 C 
ATOM     10  C   UNL     1      32.202 -15.560 -20.800  0.00  0.00    +0.038 C 
ATOM     11  C   UNL     1      34.220 -14.378 -21.380  0.00  0.00    +0.000 C 
ATOM     12  C   UNL     1      32.869 -14.363 -21.036  0.00  0.00    +0.003 C 
BRANCH   5  13
ATOM     13  O   UNL     1      36.242 -18.058 -21.692  0.00  0.00    -0.506 OA
ATOM     14  H   UNL     1      36.715 -18.848 -21.861  0.00  0.00    +0.292 HD
ENDBRANCH   5  13
ENDBRANCH   1   4
BRANCH   1  17
ATOM     15  O   UNL     1      36.879 -21.163 -18.094  0.00  0.00    -0.421 OA
ATOM     16  O   UNL     1      37.179 -19.933 -19.985  0.00  0.00    -0.245 OA
ATOM     17  C   UNL     1      35.145 -21.162 -19.841  0.00  0.00    +0.092 A 
ATOM     18  C   UNL     1      34.390 -21.996 -19.100  0.00  0.00    +0.139 A 
ATOM     19  C   UNL     1      34.852 -22.468 -17.792  0.00  0.00    +0.068 A 
ATOM     20  C   UNL     1      36.089 -22.035 -17.328  0.00  0.00    +0.152 A 
ATOM     21  C   UNL     1      36.470 -20.697 -19.336  0.00  0.00    +0.345 A 
ATOM     22  C   UNL     1      34.114 -23.336 -16.978  0.00  0.00    +0.006 C 
ATOM     23  C   UNL     1      36.603 -22.437 -16.094  0.00  0.00    +0.038 C 
ATOM     24  C   UNL     1      34.615 -23.751 -15.738  0.00  0.00    +0.000 C 
ATOM     25  C   UNL     1      35.859 -23.301 -15.297  0.00  0.00    +0.003 C 
BRANCH  18  26
ATOM     26  O   UNL     1      33.154 -22.474 -19.476  0.00  0.00    -0.506 OA
ATOM     27  H   UNL     1      32.386 -22.201 -19.014  0.00  0.00    +0.292 HD
ENDBRANCH  18  26
ENDBRANCH   1  17
TORSDOF 4
ENDMDL
MODEL 8
REMARK VINA RESULT:     -10.4      3.282      5.783
REMARK  Name = 54676038
REMARK  4 active torsions:
REMARK  status: ('A' for Active; 'I' for Inactive)
REMARK    1  A    between atoms: C_1  and  C_4
REMARK    2  A    between atoms: C_1  and  C_17
REMARK    3  A    between atoms: C_5  and  O_13
REMARK    4  A    between atoms: C_18  and  O_26
REMARK                            x       y       z     vdW  Elec       q    Type
REMARK                         _______ _______ _______ _____ _____    ______ ____
ROOT
ATOM      1  C   UNL     1      32.025 -13.387 -23.587  0.00  0.00    +0.072 C 
ENDROOT
BRANCH   1   4
ATOM      2  O   UNL     1      34.458 -10.782 -24.804  0.00  0.00    -0.421 OA
ATOM      3  O   UNL     1      34.027 -12.924 -25.437  0.00  0.00    -0.245 OA
ATOM      4  C   UNL     1      32.708 -12.070 -23.648  0.00  0.00    +0.092 A 
ATOM      5  C   UNL     1      32.445 -11.014 -22.856  0.00  0.00    +0.139 A 
ATOM      6  C   UNL     1      33.193  -9.762 -22.998  0.00  0.00    +0.068 A 
ATOM      7  C   UNL     1      34.182  -9.683 -23.973  0.00  0.00    +0.152 A 
ATOM      8  C   UNL     1      33.768 -11.981 -24.695  0.00  0.00    +0.345 A 
ATOM      9  C   UNL     1      32.967  -8.631 -22.202  0.00  0.00    +0.006 C 
ATOM     10  C   UNL     1      34.940  -8.529 -24.173  0.00  0.00    +0.038 C 
ATOM     11  C   UNL     1      33.717  -7.466 -22.389  0.00  0.00    +0.000 C 
ATOM     12  C   UNL     1      34.703  -7.415 -23.374  0.00  0.00    +0.003 C 
BRANCH   5  13
ATOM     13  O   UNL     1      31.484 -10.997 -21.868  0.00  0.00    -0.506 OA
ATOM     14  H   UNL     1      30.708 -10.483 -21.978  0.00  0.00    +0.292 HD
ENDBRANCH   5  13
ENDBRANCH   1   4
BRANCH   1  17
ATOM     15  O   UNL     1      33.787 -15.314 -20.847  0.00  0.00    -0.421 OA
ATOM     16  O   UNL     1      32.386 -13.522 -20.839  0.00  0.00    -0.245 OA
ATOM     17  C   UNL     1      32.899 -14.446 -22.972  0.00  0.00    +0.092 A 
ATOM     18  C   UNL     1      33.569 -15.399 -23.648  0.00  0.00    +0.139 A 
ATOM     19  C   UNL     1      34.403 -16.377 -22.943  0.00  0.00    +0.068 A 
ATOM     20  C   UNL     1      34.487 -16.304 -21.558  0.00  0.00    +0.152 A 
ATOM     21  C   UNL     1      32.989 -14.375 -21.484  0.00  0.00    +0.345 A 
ATOM     22  C   UNL     1      35.124 -17.388 -23.591  0.00  0.00    +0.006 C 
ATOM     23  C   UNL     1      35.258 -17.195 -20.810  0.00  0.00    +0.038 C 
ATOM     24  C   UNL     1      35.904 -18.290 -22.858  0.00  0.00    +0.000 C 
ATOM     25  C   UNL     1      35.970 -18.193 -21.468  0.00  0.00    +0.003 C 
BRANCH  18  26
ATOM     26  O   UNL     1      33.543 -15.552 -25.017  0.00  0.00    -0.506 OA
ATOM     27  H   UNL     1      33.498 -16.409 -25.393  0.00  0.00    +0.292 HD
ENDBRANCH  18  26
ENDBRANCH   1  17
TORSDOF 4
ENDMDL
MODEL 9
REMARK VINA RESULT:     -10.4      3.286      8.748
REMARK  Name = 54676038
REMARK  4 active torsions:
REMARK  status: ('A' for Active; 'I' for Inactive)
REMARK    1  A    between atoms: C_1  and  C_4
REMARK    2  A    between atoms: C_1  and  C_17
REMARK    3  A    between atoms: C_5  and  O_13
REMARK    4  A    between atoms: C_18  and  O_26
REMARK                            x       y       z     vdW  Elec       q    Type
REMARK                         _______ _______ _______ _____ _____    ______ ____
ROOT
ATOM      1  C   UNL     1      32.024 -13.403 -23.582  0.00  0.00    +0.072 C 
ENDROOT
BRANCH   1   4
ATOM      2  O   UNL     1      33.779 -15.313 -20.850  0.00  0.00    -0.421 OA
ATOM      3  O   UNL     1      32.375 -13.523 -20.842  0.00  0.00    -0.245 OA
ATOM      4  C   UNL     1      32.889 -14.447 -22.976  0.00  0.00    +0.092 A 
ATOM      5  C   UNL     1      33.560 -15.399 -23.652  0.00  0.00    +0.139 A 
ATOM      6  C   UNL     1      34.395 -16.375 -22.948  0.00  0.00    +0.068 A 
ATOM      7  C   UNL     1      34.480 -16.302 -21.561  0.00  0.00    +0.152 A 
ATOM      8  C   UNL     1      32.979 -14.374 -21.488  0.00  0.00    +0.345 A 
ATOM      9  C   UNL     1      35.118 -17.385 -23.596  0.00  0.00    +0.006 C 
ATOM     10  C   UNL     1      35.254 -17.192 -20.815  0.00  0.00    +0.038 C 
ATOM     11  C   UNL     1      35.898 -18.285 -22.863  0.00  0.00    +0.000 C 
ATOM     12  C   UNL     1      35.966 -18.188 -21.474  0.00  0.00    +0.003 C 
BRANCH   5  13
ATOM     13  O   UNL     1      33.533 -15.552 -25.021  0.00  0.00    -0.506 OA
ATOM     14  H   UNL     1      32.742 -15.817 -25.448  0.00  0.00    +0.292 HD
ENDBRANCH   5  13
ENDBRANCH   1   4
BRANCH   1  17
ATOM     15  O   UNL     1      34.469 -10.780 -24.794  0.00  0.00    -0.421 OA
ATOM     16  O   UNL     1      34.046 -12.926 -25.421  0.00  0.00    -0.245 OA
ATOM     17  C   UNL     1      32.715 -12.068 -23.645  0.00  0.00    +0.092 A 
ATOM     18  C   UNL     1      32.444 -11.008 -22.858  0.00  0.00    +0.139 A 
ATOM     19  C   UNL     1      33.191  -9.755 -23.001  0.00  0.00    +0.068 A 
ATOM     20  C   UNL     1      34.186  -9.680 -23.969  0.00  0.00    +0.152 A 
ATOM     21  C   UNL     1      33.780 -11.980 -24.685  0.00  0.00    +0.345 A 
ATOM     22  C   UNL     1      32.957  -8.621 -22.212  0.00  0.00    +0.006 C 
ATOM     23  C   UNL     1      34.943  -8.525 -24.170  0.00  0.00    +0.038 C 
ATOM     24  C   UNL     1      33.708  -7.455 -22.399  0.00  0.00    +0.000 C 
ATOM     25  C   UNL     1      34.700  -7.408 -23.378  0.00  0.00    +0.003 C 
BRANCH  18  26
ATOM     26  O   UNL     1      31.477 -10.989 -21.877  0.00  0.00    -0.506 OA
ATOM     27  H   UNL     1      30.968 -10.215 -21.736  0.00  0.00    +0.292 HD
ENDBRANCH  18  26
ENDBRANCH   1  17
TORSDOF 4
ENDMDL
