MODEL 1
REMARK VINA RESULT:      -9.0      0.000      0.000
REMARK  Name = 11987846
REMARK  4 active torsions:
REMARK  status: ('A' for Active; 'I' for Inactive)
REMARK    1  A    between atoms: C_3  and  C_18
REMARK    2  A    between atoms: C_14  and  O_16
REMARK    3  A    between atoms: C_18  and  C_19
REMARK    4  A    between atoms: C_19  and  C_20
REMARK                            x       y       z     vdW  Elec       q    Type
REMARK                         _______ _______ _______ _____ _____    ______ ____
ROOT
ATOM      1 BR   UNL     1      34.922 -18.311 -23.787  0.00  0.00    -0.046 Br
ATOM      2  O   UNL     1      35.142 -18.201 -20.780  0.00  0.00    -0.291 OA
ATOM      3  C   UNL     1      33.812 -14.505 -22.087  0.00  0.00    +0.024 C 
ATOM      4  C   UNL     1      34.028 -13.251 -22.970  0.00  0.00    +0.030 C 
ATOM      5  C   UNL     1      34.843 -14.565 -20.955  0.00  0.00    +0.013 C 
ATOM      6  C   UNL     1      34.013 -15.687 -23.041  0.00  0.00    -0.014 C 
ATOM      7  C   UNL     1      33.691 -13.770 -24.336  0.00  0.00    -0.019 C 
ATOM      8  C   UNL     1      33.690 -15.171 -24.384  0.00  0.00    -0.007 C 
ATOM      9  C   UNL     1      34.802 -15.909 -20.246  0.00  0.00    +0.070 C 
ATOM     10  C   UNL     1      34.519 -16.874 -22.660  0.00  0.00    +0.065 C 
ATOM     11  C   UNL     1      34.853 -17.081 -21.207  0.00  0.00    +0.179 C 
ATOM     12  C   UNL     1      33.428 -12.999 -25.460  0.00  0.00    +0.032 C 
ATOM     13  C   UNL     1      33.363 -15.813 -25.572  0.00  0.00    +0.002 C 
ATOM     14  C   UNL     1      33.125 -13.647 -26.656  0.00  0.00    +0.133 C 
ATOM     15  C   UNL     1      33.086 -15.045 -26.708  0.00  0.00    +0.037 C 
ENDROOT
BRANCH  14  16
ATOM     16  O   UNL     1      32.855 -12.919 -27.774  0.00  0.00    -0.506 OA
ATOM     17  H   UNL     1      32.779 -11.987 -27.719  0.00  0.00    +0.292 HD
ENDBRANCH  14  16
BRANCH   3  18
ATOM     18  C   UNL     1      32.372 -14.511 -21.529  0.00  0.00    +0.004 C 
BRANCH  18  19
ATOM     19  C   UNL     1      32.212 -13.455 -20.449  0.00  0.00    +0.000 C 
BRANCH  19  20
ATOM     20  C   UNL     1      31.520 -12.214 -21.011  0.00  0.00    +0.000 C 
ATOM     21  C   UNL     1      31.358 -11.137 -19.950  0.00  0.00    +0.000 C 
ENDBRANCH  19  20
ENDBRANCH  18  19
ENDBRANCH   3  18
TORSDOF 4
ENDMDL
MODEL 2
REMARK VINA RESULT:      -8.5      4.664      6.378
REMARK  Name = 11987846
REMARK  4 active torsions:
REMARK  status: ('A' for Active; 'I' for Inactive)
REMARK    1  A    between atoms: C_3  and  C_18
REMARK    2  A    between atoms: C_14  and  O_16
REMARK    3  A    between atoms: C_18  and  C_19
REMARK    4  A    between atoms: C_19  and  C_20
REMARK                            x       y       z     vdW  Elec       q    Type
REMARK                         _______ _______ _______ _____ _____    ______ ____
ROOT
ATOM      1 BR   UNL     1      31.907 -12.312 -21.249  0.00  0.00    -0.046 Br
ATOM      2  O   UNL     1      30.779 -10.297 -19.305  0.00  0.00    -0.291 OA
ATOM      3  C   UNL     1      32.882  -8.219 -22.204  0.00  0.00    +0.024 C 
ATOM      4  C   UNL     1      34.210  -7.972 -22.961  0.00  0.00    +0.030 C 
ATOM      5  C   UNL     1      32.989  -7.769 -20.743  0.00  0.00    +0.013 C 
ATOM      6  C   UNL     1      32.678  -9.736 -22.270  0.00  0.00    -0.014 C 
ATOM      7  C   UNL     1      34.275  -9.159 -23.874  0.00  0.00    -0.019 C 
ATOM      8  C   UNL     1      33.401 -10.181 -23.476  0.00  0.00    -0.007 C 
ATOM      9  C   UNL     1      31.791  -8.239 -19.934  0.00  0.00    +0.070 C 
ATOM     10  C   UNL     1      32.069 -10.449 -21.304  0.00  0.00    +0.065 C 
ATOM     11  C   UNL     1      31.502  -9.716 -20.118  0.00  0.00    +0.179 C 
ATOM     12  C   UNL     1      35.101  -9.294 -24.982  0.00  0.00    +0.032 C 
ATOM     13  C   UNL     1      33.314 -11.339 -24.237  0.00  0.00    +0.002 C 
ATOM     14  C   UNL     1      35.028 -10.467 -25.729  0.00  0.00    +0.133 C 
ATOM     15  C   UNL     1      34.135 -11.481 -25.362  0.00  0.00    +0.037 C 
ENDROOT
BRANCH  14  16
ATOM     16  O   UNL     1      35.819 -10.626 -26.825  0.00  0.00    -0.506 OA
ATOM     17  H   UNL     1      35.748 -10.031 -27.544  0.00  0.00    +0.292 HD
ENDBRANCH  14  16
BRANCH   3  18
ATOM     18  C   UNL     1      31.725  -7.495 -22.927  0.00  0.00    +0.004 C 
BRANCH  18  19
ATOM     19  C   UNL     1      32.217  -6.213 -23.575  0.00  0.00    +0.000 C 
BRANCH  19  20
ATOM     20  C   UNL     1      31.576  -4.996 -22.909  0.00  0.00    +0.000 C 
ATOM     21  C   UNL     1      30.440  -5.401 -21.983  0.00  0.00    +0.000 C 
ENDBRANCH  19  20
ENDBRANCH  18  19
ENDBRANCH   3  18
TORSDOF 4
ENDMDL
MODEL 3
REMARK VINA RESULT:      -8.5      4.888      6.646
REMARK  Name = 11987846
REMARK  4 active torsions:
REMARK  status: ('A' for Active; 'I' for Inactive)
REMARK    1  A    between atoms: C_3  and  C_18
REMARK    2  A    between atoms: C_14  and  O_16
REMARK    3  A    between atoms: C_18  and  C_19
REMARK    4  A    between atoms: C_19  and  C_20
REMARK                            x       y       z     vdW  Elec       q    Type
REMARK                         _______ _______ _______ _____ _____    ______ ____
ROOT
ATOM      1 BR   UNL     1      31.641 -10.793 -19.354  0.00  0.00    -0.046 Br
ATOM      2  O   UNL     1      31.634  -7.785 -19.123  0.00  0.00    -0.291 OA
ATOM      3  C   UNL     1      32.870  -8.758 -22.954  0.00  0.00    +0.024 C 
ATOM      4  C   UNL     1      33.859  -9.505 -23.881  0.00  0.00    +0.030 C 
ATOM      5  C   UNL     1      33.566  -7.607 -22.218  0.00  0.00    +0.013 C 
ATOM      6  C   UNL     1      32.407  -9.817 -21.948  0.00  0.00    -0.014 C 
ATOM      7  C   UNL     1      33.395 -10.924 -23.752  0.00  0.00    -0.019 C 
ATOM      8  C   UNL     1      32.566 -11.111 -22.637  0.00  0.00    -0.007 C 
ATOM      9  C   UNL     1      32.678  -7.036 -21.125  0.00  0.00    +0.070 C 
ATOM     10  C   UNL     1      32.077  -9.541 -20.673  0.00  0.00    +0.065 C 
ATOM     11  C   UNL     1      32.102  -8.107 -20.217  0.00  0.00    +0.179 C 
ATOM     12  C   UNL     1      33.734 -11.975 -24.595  0.00  0.00    +0.032 C 
ATOM     13  C   UNL     1      32.022 -12.366 -22.394  0.00  0.00    +0.002 C 
ATOM     14  C   UNL     1      33.205 -13.236 -24.334  0.00  0.00    +0.133 C 
ATOM     15  C   UNL     1      32.349 -13.429 -23.243  0.00  0.00    +0.037 C 
ENDROOT
BRANCH  14  16
ATOM     16  O   UNL     1      33.513 -14.284 -25.146  0.00  0.00    -0.506 OA
ATOM     17  H   UNL     1      33.015 -15.076 -25.097  0.00  0.00    +0.292 HD
ENDBRANCH  14  16
BRANCH   3  18
ATOM     18  C   UNL     1      31.667  -8.245 -23.776  0.00  0.00    +0.004 C 
BRANCH  18  19
ATOM     19  C   UNL     1      32.022  -6.958 -24.499  0.00  0.00    +0.000 C 
BRANCH  19  20
ATOM     20  C   UNL     1      30.935  -5.905 -24.282  0.00  0.00    +0.000 C 
ATOM     21  C   UNL     1      31.521  -4.593 -23.785  0.00  0.00    +0.000 C 
ENDBRANCH  19  20
ENDBRANCH  18  19
ENDBRANCH   3  18
TORSDOF 4
ENDMDL
MODEL 4
REMARK VINA RESULT:      -8.4      2.810      5.064
REMARK  Name = 11987846
REMARK  4 active torsions:
REMARK  status: ('A' for Active; 'I' for Inactive)
REMARK    1  A    between atoms: C_3  and  C_18
REMARK    2  A    between atoms: C_14  and  O_16
REMARK    3  A    between atoms: C_18  and  C_19
REMARK    4  A    between atoms: C_19  and  C_20
REMARK                            x       y       z     vdW  Elec       q    Type
REMARK                         _______ _______ _______ _____ _____    ______ ____
ROOT
ATOM      1 BR   UNL     1      33.526 -15.115 -25.774  0.00  0.00    -0.046 Br
ATOM      2  O   UNL     1      34.872 -17.813 -25.882  0.00  0.00    -0.291 OA
ATOM      3  C   UNL     1      34.336 -16.825 -21.897  0.00  0.00    +0.024 C 
ATOM      4  C   UNL     1      34.576 -15.837 -20.730  0.00  0.00    +0.030 C 
ATOM      5  C   UNL     1      35.645 -17.499 -22.326  0.00  0.00    +0.013 C 
ATOM      6  C   UNL     1      33.800 -15.953 -23.037  0.00  0.00    -0.014 C 
ATOM      7  C   UNL     1      33.616 -14.733 -21.053  0.00  0.00    -0.019 C 
ATOM      8  C   UNL     1      33.173 -14.790 -22.382  0.00  0.00    -0.007 C 
ATOM      9  C   UNL     1      35.466 -18.268 -23.625  0.00  0.00    +0.070 C 
ATOM     10  C   UNL     1      34.027 -16.205 -24.339  0.00  0.00    +0.065 C 
ATOM     11  C   UNL     1      34.798 -17.443 -24.708  0.00  0.00    +0.179 C 
ATOM     12  C   UNL     1      33.199 -13.732 -20.186  0.00  0.00    +0.032 C 
ATOM     13  C   UNL     1      32.249 -13.855 -22.834  0.00  0.00    +0.002 C 
ATOM     14  C   UNL     1      32.292 -12.783 -20.650  0.00  0.00    +0.133 C 
ATOM     15  C   UNL     1      31.815 -12.849 -21.965  0.00  0.00    +0.037 C 
ENDROOT
BRANCH  14  16
ATOM     16  O   UNL     1      31.859 -11.793 -19.822  0.00  0.00    -0.506 OA
ATOM     17  H   UNL     1      32.343 -10.994 -19.753  0.00  0.00    +0.292 HD
ENDBRANCH  14  16
BRANCH   3  18
ATOM     18  C   UNL     1      33.279 -17.873 -21.487  0.00  0.00    +0.004 C 
BRANCH  18  19
ATOM     19  C   UNL     1      33.947 -19.122 -20.939  0.00  0.00    +0.000 C 
BRANCH  19  20
ATOM     20  C   UNL     1      32.897 -20.151 -20.520  0.00  0.00    +0.000 C 
ATOM     21  C   UNL     1      33.499 -21.235 -19.640  0.00  0.00    +0.000 C 
ENDBRANCH  19  20
ENDBRANCH  18  19
ENDBRANCH   3  18
TORSDOF 4
ENDMDL
MODEL 5
REMARK VINA RESULT:      -7.9      9.834     12.686
REMARK  Name = 11987846
REMARK  4 active torsions:
REMARK  status: ('A' for Active; 'I' for Inactive)
REMARK    1  A    between atoms: C_3  and  C_18
REMARK    2  A    between atoms: C_14  and  O_16
REMARK    3  A    between atoms: C_18  and  C_19
REMARK    4  A    between atoms: C_19  and  C_20
REMARK                            x       y       z     vdW  Elec       q    Type
REMARK                         _______ _______ _______ _____ _____    ______ ____
ROOT
ATOM      1 BR   UNL     1      33.667 -21.892 -18.891  0.00  0.00    -0.046 Br
ATOM      2  O   UNL     1      36.676 -21.660 -18.852  0.00  0.00    -0.291 OA
ATOM      3  C   UNL     1      35.497 -23.437 -15.303  0.00  0.00    +0.024 C 
ATOM      4  C   UNL     1      34.655 -23.382 -14.005  0.00  0.00    +0.030 C 
ATOM      5  C   UNL     1      36.622 -22.396 -15.275  0.00  0.00    +0.013 C 
ATOM      6  C   UNL     1      34.504 -23.104 -16.421  0.00  0.00    -0.014 C 
ATOM      7  C   UNL     1      33.275 -23.665 -14.516  0.00  0.00    -0.019 C 
ATOM      8  C   UNL     1      33.181 -23.498 -15.905  0.00  0.00    -0.007 C 
ATOM      9  C   UNL     1      37.287 -22.269 -16.636  0.00  0.00    +0.070 C 
ATOM     10  C   UNL     1      34.844 -22.455 -17.550  0.00  0.00    +0.065 C 
ATOM     11  C   UNL     1      36.288 -22.086 -17.762  0.00  0.00    +0.179 C 
ATOM     12  C   UNL     1      32.178 -24.029 -13.747  0.00  0.00    +0.032 C 
ATOM     13  C   UNL     1      31.974 -23.756 -16.543  0.00  0.00    +0.002 C 
ATOM     14  C   UNL     1      30.963 -24.263 -14.388  0.00  0.00    +0.133 C 
ATOM     15  C   UNL     1      30.864 -24.133 -15.778  0.00  0.00    +0.037 C 
ENDROOT
BRANCH  14  16
ATOM     16  O   UNL     1      29.871 -24.628 -13.662  0.00  0.00    -0.506 OA
ATOM     17  H   UNL     1      29.819 -25.488 -13.294  0.00  0.00    +0.292 HD
ENDBRANCH  14  16
BRANCH   3  18
ATOM     18  C   UNL     1      36.061 -24.861 -15.500  0.00  0.00    +0.004 C 
BRANCH  18  19
ATOM     19  C   UNL     1      36.627 -25.399 -14.197  0.00  0.00    +0.000 C 
BRANCH  19  20
ATOM     20  C   UNL     1      38.018 -25.992 -14.422  0.00  0.00    +0.000 C 
ATOM     21  C   UNL     1      39.061 -25.317 -13.545  0.00  0.00    +0.000 C 
ENDBRANCH  19  20
ENDBRANCH  18  19
ENDBRANCH   3  18
TORSDOF 4
ENDMDL
MODEL 6
REMARK VINA RESULT:      -7.8      6.444      8.990
REMARK  Name = 11987846
REMARK  4 active torsions:
REMARK  status: ('A' for Active; 'I' for Inactive)
REMARK    1  A    between atoms: C_3  and  C_18
REMARK    2  A    between atoms: C_14  and  O_16
REMARK    3  A    between atoms: C_18  and  C_19
REMARK    4  A    between atoms: C_19  and  C_20
REMARK                            x       y       z     vdW  Elec       q    Type
REMARK                         _______ _______ _______ _____ _____    ______ ____
ROOT
ATOM      1 BR   UNL     1      34.569  -5.447 -26.611  0.00  0.00    -0.046 Br
ATOM      2  O   UNL     1      32.736  -3.167 -25.872  0.00  0.00    -0.291 OA
ATOM      3  C   UNL     1      31.736  -6.413 -23.504  0.00  0.00    +0.024 C 
ATOM      4  C   UNL     1      31.288  -7.891 -23.397  0.00  0.00    +0.030 C 
ATOM      5  C   UNL     1      30.615  -5.538 -24.077  0.00  0.00    +0.013 C 
ATOM      6  C   UNL     1      32.924  -6.439 -24.471  0.00  0.00    -0.014 C 
ATOM      7  C   UNL     1      32.550  -8.625 -23.737  0.00  0.00    -0.019 C 
ATOM      8  C   UNL     1      33.492  -7.796 -24.363  0.00  0.00    -0.007 C 
ATOM      9  C   UNL     1      31.125  -4.149 -24.423  0.00  0.00    +0.070 C 
ATOM     10  C   UNL     1      33.225  -5.431 -25.310  0.00  0.00    +0.065 C 
ATOM     11  C   UNL     1      32.390  -4.180 -25.261  0.00  0.00    +0.179 C 
ATOM     12  C   UNL     1      32.800  -9.971 -23.504  0.00  0.00    +0.032 C 
ATOM     13  C   UNL     1      34.732  -8.315 -24.713  0.00  0.00    +0.002 C 
ATOM     14  C   UNL     1      34.037 -10.493 -23.879  0.00  0.00    +0.133 C 
ATOM     15  C   UNL     1      34.998  -9.668 -24.474  0.00  0.00    +0.037 C 
ENDROOT
BRANCH  14  16
ATOM     16  O   UNL     1      34.315 -11.807 -23.657  0.00  0.00    -0.506 OA
ATOM     17  H   UNL     1      33.694 -12.348 -23.211  0.00  0.00    +0.292 HD
ENDBRANCH  14  16
BRANCH   3  18
ATOM     18  C   UNL     1      32.189  -5.901 -22.119  0.00  0.00    +0.004 C 
BRANCH  18  19
ATOM     19  C   UNL     1      31.560  -6.727 -21.011  0.00  0.00    +0.000 C 
BRANCH  19  20
ATOM     20  C   UNL     1      32.632  -7.505 -20.249  0.00  0.00    +0.000 C 
ATOM     21  C   UNL     1      32.176  -8.921 -19.934  0.00  0.00    +0.000 C 
ENDBRANCH  19  20
ENDBRANCH  18  19
ENDBRANCH   3  18
TORSDOF 4
ENDMDL
MODEL 7
REMARK VINA RESULT:      -7.5     10.190     13.224
REMARK  Name = 11987846
REMARK  4 active torsions:
REMARK  status: ('A' for Active; 'I' for Inactive)
REMARK    1  A    between atoms: C_3  and  C_18
REMARK    2  A    between atoms: C_14  and  O_16
REMARK    3  A    between atoms: C_18  and  C_19
REMARK    4  A    between atoms: C_19  and  C_20
REMARK                            x       y       z     vdW  Elec       q    Type
REMARK                         _______ _______ _______ _____ _____    ______ ____
ROOT
ATOM      1 BR   UNL     1      37.429 -22.251 -16.496  0.00  0.00    -0.046 Br
ATOM      2  O   UNL     1      35.326 -22.207 -18.660  0.00  0.00    -0.291 OA
ATOM      3  C   UNL     1      33.543 -23.595 -15.190  0.00  0.00    +0.024 C 
ATOM      4  C   UNL     1      33.508 -24.626 -14.035  0.00  0.00    +0.030 C 
ATOM      5  C   UNL     1      33.180 -24.253 -16.526  0.00  0.00    +0.013 C 
ATOM      6  C   UNL     1      34.994 -23.105 -15.226  0.00  0.00    -0.014 C 
ATOM      7  C   UNL     1      34.648 -24.170 -13.176  0.00  0.00    -0.019 C 
ATOM      8  C   UNL     1      35.511 -23.302 -13.859  0.00  0.00    -0.007 C 
ATOM      9  C   UNL     1      33.459 -23.318 -17.692  0.00  0.00    +0.070 C 
ATOM     10  C   UNL     1      35.625 -22.725 -16.352  0.00  0.00    +0.065 C 
ATOM     11  C   UNL     1      34.852 -22.719 -17.643  0.00  0.00    +0.179 C 
ATOM     12  C   UNL     1      34.884 -24.551 -11.862  0.00  0.00    +0.032 C 
ATOM     13  C   UNL     1      36.603 -22.761 -13.192  0.00  0.00    +0.002 C 
ATOM     14  C   UNL     1      35.993 -24.025 -11.204  0.00  0.00    +0.133 C 
ATOM     15  C   UNL     1      36.843 -23.130 -11.864  0.00  0.00    +0.037 C 
ENDROOT
BRANCH  14  16
ATOM     16  O   UNL     1      36.247 -24.373  -9.913  0.00  0.00    -0.506 OA
ATOM     17  H   UNL     1      36.218 -25.273  -9.656  0.00  0.00    +0.292 HD
ENDBRANCH  14  16
BRANCH   3  18
ATOM     18  C   UNL     1      32.593 -22.420 -14.872  0.00  0.00    +0.004 C 
BRANCH  18  19
ATOM     19  C   UNL     1      31.344 -22.916 -14.166  0.00  0.00    +0.000 C 
BRANCH  19  20
ATOM     20  C   UNL     1      30.142 -22.871 -15.109  0.00  0.00    +0.000 C 
ATOM     21  C   UNL     1      29.572 -24.259 -15.353  0.00  0.00    +0.000 C 
ENDBRANCH  19  20
ENDBRANCH  18  19
ENDBRANCH   3  18
TORSDOF 4
ENDMDL
MODEL 8
REMARK VINA RESULT:      -7.3      2.682      4.278
REMARK  Name = 11987846
REMARK  4 active torsions:
REMARK  status: ('A' for Active; 'I' for Inactive)
REMARK    1  A    between atoms: C_3  and  C_18
REMARK    2  A    between atoms: C_14  and  O_16
REMARK    3  A    between atoms: C_18  and  C_19
REMARK    4  A    between atoms: C_19  and  C_20
REMARK                            x       y       z     vdW  Elec       q    Type
REMARK                         _______ _______ _______ _____ _____    ______ ____
ROOT
ATOM      1 BR   UNL     1      31.913 -10.572 -22.250  0.00  0.00    -0.046 Br
ATOM      2  O   UNL     1      31.796 -12.022 -19.607  0.00  0.00    -0.291 OA
ATOM      3  C   UNL     1      33.257 -14.668 -22.437  0.00  0.00    +0.024 C 
ATOM      4  C   UNL     1      33.072 -15.406 -23.785  0.00  0.00    +0.030 C 
ATOM      5  C   UNL     1      32.261 -15.176 -21.389  0.00  0.00    +0.013 C 
ATOM      6  C   UNL     1      32.970 -13.198 -22.761  0.00  0.00    -0.014 C 
ATOM      7  C   UNL     1      33.339 -14.316 -24.778  0.00  0.00    -0.019 C 
ATOM      8  C   UNL     1      33.273 -13.042 -24.195  0.00  0.00    -0.007 C 
ATOM      9  C   UNL     1      32.261 -14.289 -20.155  0.00  0.00    +0.070 C 
ATOM     10  C   UNL     1      32.420 -12.335 -21.886  0.00  0.00    +0.065 C 
ATOM     11  C   UNL     1      32.124 -12.817 -20.490  0.00  0.00    +0.179 C 
ATOM     12  C   UNL     1      33.602 -14.489 -26.130  0.00  0.00    +0.032 C 
ATOM     13  C   UNL     1      33.530 -11.921 -24.974  0.00  0.00    +0.002 C 
ATOM     14  C   UNL     1      33.836 -13.360 -26.913  0.00  0.00    +0.133 C 
ATOM     15  C   UNL     1      33.806 -12.085 -26.336  0.00  0.00    +0.037 C 
ENDROOT
BRANCH  14  16
ATOM     16  O   UNL     1      34.104 -13.497 -28.241  0.00  0.00    -0.506 OA
ATOM     17  H   UNL     1      34.760 -14.101 -28.526  0.00  0.00    +0.292 HD
ENDBRANCH  14  16
BRANCH   3  18
ATOM     18  C   UNL     1      34.712 -14.829 -21.947  0.00  0.00    +0.004 C 
BRANCH  18  19
ATOM     19  C   UNL     1      35.231 -16.222 -22.258  0.00  0.00    +0.000 C 
BRANCH  19  20
ATOM     20  C   UNL     1      35.106 -17.126 -21.033  0.00  0.00    +0.000 C 
ATOM     21  C   UNL     1      34.321 -18.389 -21.349  0.00  0.00    +0.000 C 
ENDBRANCH  19  20
ENDBRANCH  18  19
ENDBRANCH   3  18
TORSDOF 4
ENDMDL
MODEL 9
REMARK VINA RESULT:      -7.2      2.780      5.926
REMARK  Name = 11987846
REMARK  4 active torsions:
REMARK  status: ('A' for Active; 'I' for Inactive)
REMARK    1  A    between atoms: C_3  and  C_18
REMARK    2  A    between atoms: C_14  and  O_16
REMARK    3  A    between atoms: C_18  and  C_19
REMARK    4  A    between atoms: C_19  and  C_20
REMARK                            x       y       z     vdW  Elec       q    Type
REMARK                         _______ _______ _______ _____ _____    ______ ____
ROOT
ATOM      1 BR   UNL     1      31.279 -11.535 -20.243  0.00  0.00    -0.046 Br
ATOM      2  O   UNL     1      31.334  -9.369 -22.342  0.00  0.00    -0.291 OA
ATOM      3  C   UNL     1      33.416 -12.624 -23.829  0.00  0.00    +0.024 C 
ATOM      4  C   UNL     1      34.569 -13.646 -23.676  0.00  0.00    +0.030 C 
ATOM      5  C   UNL     1      33.959 -11.214 -24.086  0.00  0.00    +0.013 C 
ATOM      6  C   UNL     1      32.685 -12.665 -22.483  0.00  0.00    -0.014 C 
ATOM      7  C   UNL     1      34.033 -14.567 -22.623  0.00  0.00    -0.019 C 
ATOM      8  C   UNL     1      32.954 -14.003 -21.927  0.00  0.00    -0.007 C 
ATOM      9  C   UNL     1      32.857 -10.173 -23.982  0.00  0.00    +0.070 C 
ATOM     10  C   UNL     1      32.069 -11.600 -21.937  0.00  0.00    +0.065 C 
ATOM     11  C   UNL     1      32.039 -10.310 -22.712  0.00  0.00    +0.179 C 
ATOM     12  C   UNL     1      34.524 -15.828 -22.313  0.00  0.00    +0.032 C 
ATOM     13  C   UNL     1      32.319 -14.744 -20.938  0.00  0.00    +0.002 C 
ATOM     14  C   UNL     1      33.899 -16.557 -21.304  0.00  0.00    +0.133 C 
ATOM     15  C   UNL     1      32.800 -16.020 -20.625  0.00  0.00    +0.037 C 
ENDROOT
BRANCH  14  16
ATOM     16  O   UNL     1      34.353 -17.800 -20.982  0.00  0.00    -0.506 OA
ATOM     17  H   UNL     1      34.107 -18.538 -21.505  0.00  0.00    +0.292 HD
ENDBRANCH  14  16
BRANCH   3  18
ATOM     18  C   UNL     1      32.467 -13.071 -24.962  0.00  0.00    +0.004 C 
BRANCH  18  19
ATOM     19  C   UNL     1      33.259 -13.544 -26.169  0.00  0.00    +0.000 C 
BRANCH  19  20
ATOM     20  C   UNL     1      32.762 -14.912 -26.633  0.00  0.00    +0.000 C 
ATOM     21  C   UNL     1      33.444 -16.040 -25.875  0.00  0.00    +0.000 C 
ENDBRANCH  19  20
ENDBRANCH  18  19
ENDBRANCH   3  18
TORSDOF 4
ENDMDL
