MODEL 1
REMARK VINA RESULT:      -4.4      0.000      0.000
REMARK  Name = 598
REMARK  3 active torsions:
REMARK  status: ('A' for Active; 'I' for Inactive)
REMARK    1  A    between atoms: S_1  and  C_5
REMARK    2  A    between atoms: C_5  and  C_6
REMARK    3  A    between atoms: C_6  and  S_7
REMARK                            x       y       z     vdW  Elec       q    Type
REMARK                         _______ _______ _______ _____ _____    ______ ____
ROOT
ATOM      1  S   UNL     1      27.983 -22.964 -16.461  0.00  0.00    +0.023 S 
ATOM      2  O   UNL     1      27.604 -23.997 -17.666  0.00  0.00    -0.069 OA
ATOM      3  O   UNL     1      28.966 -22.015 -16.950  0.00  0.00    -0.069 OA
ATOM      4  O   UNL     1      26.756 -22.525 -15.820  0.00  0.00    -0.069 OA
ENDROOT
BRANCH   1   5
ATOM      5  C   UNL     1      28.788 -24.130 -15.406  0.00  0.00    +0.169 C 
BRANCH   5   6
ATOM      6  C   UNL     1      30.297 -24.020 -15.528  0.00  0.00    +0.079 C 
BRANCH   6   7
ATOM      7  S   UNL     1      31.108 -24.886 -14.157  0.00  0.00    -0.166 S 
ATOM      8  H   UNL     1      30.359 -24.750 -13.029  0.00  0.00    +0.102 HD
ENDBRANCH   6   7
ENDBRANCH   5   6
ENDBRANCH   1   5
TORSDOF 3
ENDMDL
MODEL 2
REMARK VINA RESULT:      -4.3      0.538      1.540
REMARK  Name = 598
REMARK  3 active torsions:
REMARK  status: ('A' for Active; 'I' for Inactive)
REMARK    1  A    between atoms: S_1  and  C_5
REMARK    2  A    between atoms: C_5  and  C_6
REMARK    3  A    between atoms: C_6  and  S_7
REMARK                            x       y       z     vdW  Elec       q    Type
REMARK                         _______ _______ _______ _____ _____    ______ ____
ROOT
ATOM      1  S   UNL     1      28.196 -22.970 -16.590  0.00  0.00    +0.023 S 
ATOM      2  O   UNL     1      29.597 -22.324 -17.119  0.00  0.00    -0.069 OA
ATOM      3  O   UNL     1      27.478 -21.968 -15.824  0.00  0.00    -0.069 OA
ATOM      4  O   UNL     1      27.567 -23.683 -17.687  0.00  0.00    -0.069 OA
ENDROOT
BRANCH   1   5
ATOM      5  C   UNL     1      28.895 -24.150 -15.476  0.00  0.00    +0.169 C 
BRANCH   5   6
ATOM      6  C   UNL     1      30.244 -23.678 -14.963  0.00  0.00    +0.079 C 
BRANCH   6   7
ATOM      7  S   UNL     1      31.019 -24.963 -13.945  0.00  0.00    -0.166 S 
ATOM      8  H   UNL     1      30.235 -26.075 -13.944  0.00  0.00    +0.102 HD
ENDBRANCH   6   7
ENDBRANCH   5   6
ENDBRANCH   1   5
TORSDOF 3
ENDMDL
MODEL 3
REMARK VINA RESULT:      -4.2      8.422      8.917
REMARK  Name = 598
REMARK  3 active torsions:
REMARK  status: ('A' for Active; 'I' for Inactive)
REMARK    1  A    between atoms: S_1  and  C_5
REMARK    2  A    between atoms: C_5  and  C_6
REMARK    3  A    between atoms: C_6  and  S_7
REMARK                            x       y       z     vdW  Elec       q    Type
REMARK                         _______ _______ _______ _____ _____    ______ ____
ROOT
ATOM      1  S   UNL     1      36.136 -24.241 -11.000  0.00  0.00    +0.023 S 
ATOM      2  O   UNL     1      36.766 -25.636 -11.563  0.00  0.00    -0.069 OA
ATOM      3  O   UNL     1      35.315 -24.534  -9.840  0.00  0.00    -0.069 OA
ATOM      4  O   UNL     1      37.186 -23.240 -10.953  0.00  0.00    -0.069 OA
ENDROOT
BRANCH   1   5
ATOM      5  C   UNL     1      35.083 -23.895 -12.375  0.00  0.00    +0.169 C 
BRANCH   5   6
ATOM      6  C   UNL     1      35.897 -23.554 -13.609  0.00  0.00    +0.079 C 
BRANCH   6   7
ATOM      7  S   UNL     1      35.565 -24.746 -14.936  0.00  0.00    -0.166 S 
ATOM      8  H   UNL     1      34.667 -25.670 -14.500  0.00  0.00    +0.102 HD
ENDBRANCH   6   7
ENDBRANCH   5   6
ENDBRANCH   1   5
TORSDOF 3
ENDMDL
MODEL 4
REMARK VINA RESULT:      -4.1     14.836     15.650
REMARK  Name = 598
REMARK  3 active torsions:
REMARK  status: ('A' for Active; 'I' for Inactive)
REMARK    1  A    between atoms: S_1  and  C_5
REMARK    2  A    between atoms: C_5  and  C_6
REMARK    3  A    between atoms: C_6  and  S_7
REMARK                            x       y       z     vdW  Elec       q    Type
REMARK                         _______ _______ _______ _____ _____    ______ ____
ROOT
ATOM      1  S   UNL     1      41.708 -16.420 -16.691  0.00  0.00    +0.023 S 
ATOM      2  O   UNL     1      43.224 -16.237 -16.120  0.00  0.00    -0.069 OA
ATOM      3  O   UNL     1      41.518 -17.806 -17.078  0.00  0.00    -0.069 OA
ATOM      4  O   UNL     1      40.786 -15.749 -15.793  0.00  0.00    -0.069 OA
ENDROOT
BRANCH   1   5
ATOM      5  C   UNL     1      41.894 -15.440 -18.149  0.00  0.00    +0.169 C 
BRANCH   5   6
ATOM      6  C   UNL     1      41.171 -14.113 -18.006  0.00  0.00    +0.079 C 
BRANCH   6   7
ATOM      7  S   UNL     1      42.307 -12.834 -17.403  0.00  0.00    -0.166 S 
ATOM      8  H   UNL     1      41.648 -12.013 -16.542  0.00  0.00    +0.102 HD
ENDBRANCH   6   7
ENDBRANCH   5   6
ENDBRANCH   1   5
TORSDOF 3
ENDMDL
MODEL 5
REMARK VINA RESULT:      -4.1      8.966      9.348
REMARK  Name = 598
REMARK  3 active torsions:
REMARK  status: ('A' for Active; 'I' for Inactive)
REMARK    1  A    between atoms: S_1  and  C_5
REMARK    2  A    between atoms: C_5  and  C_6
REMARK    3  A    between atoms: C_6  and  S_7
REMARK                            x       y       z     vdW  Elec       q    Type
REMARK                         _______ _______ _______ _____ _____    ______ ____
ROOT
ATOM      1  S   UNL     1      36.856 -23.806 -11.223  0.00  0.00    +0.023 S 
ATOM      2  O   UNL     1      36.061 -24.127  -9.835  0.00  0.00    -0.069 OA
ATOM      3  O   UNL     1      37.275 -22.418 -11.211  0.00  0.00    -0.069 OA
ATOM      4  O   UNL     1      37.796 -24.882 -11.481  0.00  0.00    -0.069 OA
ENDROOT
BRANCH   1   5
ATOM      5  C   UNL     1      35.481 -23.980 -12.318  0.00  0.00    +0.169 C 
BRANCH   5   6
ATOM      6  C   UNL     1      35.897 -24.668 -13.606  0.00  0.00    +0.079 C 
BRANCH   6   7
ATOM      7  S   UNL     1      36.713 -23.490 -14.718  0.00  0.00    -0.166 S 
ATOM      8  H   UNL     1      37.169 -24.147 -15.819  0.00  0.00    +0.102 HD
ENDBRANCH   6   7
ENDBRANCH   5   6
ENDBRANCH   1   5
TORSDOF 3
ENDMDL
MODEL 6
REMARK VINA RESULT:      -4.1      8.939      9.812
REMARK  Name = 598
REMARK  3 active torsions:
REMARK  status: ('A' for Active; 'I' for Inactive)
REMARK    1  A    between atoms: S_1  and  C_5
REMARK    2  A    between atoms: C_5  and  C_6
REMARK    3  A    between atoms: C_6  and  S_7
REMARK                            x       y       z     vdW  Elec       q    Type
REMARK                         _______ _______ _______ _____ _____    ______ ____
ROOT
ATOM      1  S   UNL     1      37.290 -23.657 -11.799  0.00  0.00    +0.023 S 
ATOM      2  O   UNL     1      38.544 -22.626 -11.647  0.00  0.00    -0.069 OA
ATOM      3  O   UNL     1      36.845 -24.052 -10.475  0.00  0.00    -0.069 OA
ATOM      4  O   UNL     1      36.365 -23.125 -12.784  0.00  0.00    -0.069 OA
ENDROOT
BRANCH   1   5
ATOM      5  C   UNL     1      38.183 -24.997 -12.526  0.00  0.00    +0.169 C 
BRANCH   5   6
ATOM      6  C   UNL     1      37.258 -26.160 -12.836  0.00  0.00    +0.079 C 
BRANCH   6   7
ATOM      7  S   UNL     1      37.191 -26.456 -14.624  0.00  0.00    -0.166 S 
ATOM      8  H   UNL     1      36.644 -25.374 -15.242  0.00  0.00    +0.102 HD
ENDBRANCH   6   7
ENDBRANCH   5   6
ENDBRANCH   1   5
TORSDOF 3
ENDMDL
MODEL 7
REMARK VINA RESULT:      -4.1      9.227     10.125
REMARK  Name = 598
REMARK  3 active torsions:
REMARK  status: ('A' for Active; 'I' for Inactive)
REMARK    1  A    between atoms: S_1  and  C_5
REMARK    2  A    between atoms: C_5  and  C_6
REMARK    3  A    between atoms: C_6  and  S_7
REMARK                            x       y       z     vdW  Elec       q    Type
REMARK                         _______ _______ _______ _____ _____    ______ ____
ROOT
ATOM      1  S   UNL     1      37.455 -23.712 -11.957  0.00  0.00    +0.023 S 
ATOM      2  O   UNL     1      36.712 -24.089 -10.555  0.00  0.00    -0.069 OA
ATOM      3  O   UNL     1      36.463 -23.220 -12.895  0.00  0.00    -0.069 OA
ATOM      4  O   UNL     1      38.658 -22.956 -11.658  0.00  0.00    -0.069 OA
ENDROOT
BRANCH   1   5
ATOM      5  C   UNL     1      37.917 -25.353 -12.420  0.00  0.00    +0.169 C 
BRANCH   5   6
ATOM      6  C   UNL     1      38.204 -25.436 -13.908  0.00  0.00    +0.079 C 
BRANCH   6   7
ATOM      7  S   UNL     1      39.989 -25.558 -14.203  0.00  0.00    -0.166 S 
ATOM      8  H   UNL     1      40.213 -26.277 -15.336  0.00  0.00    +0.102 HD
ENDBRANCH   6   7
ENDBRANCH   5   6
ENDBRANCH   1   5
TORSDOF 3
ENDMDL
MODEL 8
REMARK VINA RESULT:      -4.1      6.235      7.113
REMARK  Name = 598
REMARK  3 active torsions:
REMARK  status: ('A' for Active; 'I' for Inactive)
REMARK    1  A    between atoms: S_1  and  C_5
REMARK    2  A    between atoms: C_5  and  C_6
REMARK    3  A    between atoms: C_6  and  S_7
REMARK                            x       y       z     vdW  Elec       q    Type
REMARK                         _______ _______ _______ _____ _____    ______ ____
ROOT
ATOM      1  S   UNL     1      33.844 -22.677 -18.522  0.00  0.00    +0.023 S 
ATOM      2  O   UNL     1      33.963 -23.909 -19.585  0.00  0.00    -0.069 OA
ATOM      3  O   UNL     1      32.441 -22.416 -18.264  0.00  0.00    -0.069 OA
ATOM      4  O   UNL     1      34.787 -22.902 -17.441  0.00  0.00    -0.069 OA
ENDROOT
BRANCH   1   5
ATOM      5  C   UNL     1      34.480 -21.407 -19.573  0.00  0.00    +0.169 C 
BRANCH   5   6
ATOM      6  C   UNL     1      33.353 -20.587 -20.174  0.00  0.00    +0.079 C 
BRANCH   6   7
ATOM      7  S   UNL     1      34.019 -19.298 -21.263  0.00  0.00    -0.166 S 
ATOM      8  H   UNL     1      35.348 -19.142 -21.019  0.00  0.00    +0.102 HD
ENDBRANCH   6   7
ENDBRANCH   5   6
ENDBRANCH   1   5
TORSDOF 3
ENDMDL
MODEL 9
REMARK VINA RESULT:      -4.1      8.793      9.464
REMARK  Name = 598
REMARK  3 active torsions:
REMARK  status: ('A' for Active; 'I' for Inactive)
REMARK    1  A    between atoms: S_1  and  C_5
REMARK    2  A    between atoms: C_5  and  C_6
REMARK    3  A    between atoms: C_6  and  S_7
REMARK                            x       y       z     vdW  Elec       q    Type
REMARK                         _______ _______ _______ _____ _____    ______ ____
ROOT
ATOM      1  S   UNL     1      37.279 -26.572 -14.938  0.00  0.00    +0.023 S 
ATOM      2  O   UNL     1      38.839 -26.173 -15.199  0.00  0.00    -0.069 OA
ATOM      3  O   UNL     1      36.782 -27.293 -16.095  0.00  0.00    -0.069 OA
ATOM      4  O   UNL     1      37.154 -27.110 -13.596  0.00  0.00    -0.069 OA
ENDROOT
BRANCH   1   5
ATOM      5  C   UNL     1      36.618 -24.934 -14.957  0.00  0.00    +0.169 C 
BRANCH   5   6
ATOM      6  C   UNL     1      37.729 -23.902 -15.019  0.00  0.00    +0.079 C 
BRANCH   6   7
ATOM      7  S   UNL     1      37.224 -22.489 -16.038  0.00  0.00    -0.166 S 
ATOM      8  H   UNL     1      37.957 -22.472 -17.184  0.00  0.00    +0.102 HD
ENDBRANCH   6   7
ENDBRANCH   5   6
ENDBRANCH   1   5
TORSDOF 3
ENDMDL
