MODEL 1
REMARK VINA RESULT:      -7.0      0.000      0.000
REMARK  Name = 445825
REMARK  6 active torsions:
REMARK  status: ('A' for Active; 'I' for Inactive)
REMARK    1  A    between atoms: C_2  and  O_12
REMARK    2  A    between atoms: C_3  and  O_14
REMARK    3  A    between atoms: C_4  and  O_16
REMARK    4  A    between atoms: C_5  and  C_18
REMARK    5  A    between atoms: C_6  and  C_9
REMARK    6  A    between atoms: C_18  and  O_19
REMARK                            x       y       z     vdW  Elec       q    Type
REMARK                         _______ _______ _______ _____ _____    ______ ____
ROOT
ATOM      1  O   UNL     1      38.331 -24.033 -13.703  0.00  0.00    -0.342 OA
ATOM      2  C   UNL     1      36.484 -26.119 -14.468  0.00  0.00    +0.169 C 
ATOM      3  C   UNL     1      37.972 -26.180 -14.818  0.00  0.00    +0.169 C 
ATOM      4  C   UNL     1      36.044 -24.671 -14.254  0.00  0.00    +0.176 C 
ATOM      5  C   UNL     1      38.807 -25.377 -13.814  0.00  0.00    +0.174 C 
ATOM      6  C   UNL     1      36.972 -23.919 -13.304  0.00  0.00    +0.220 C 
ENDROOT
BRANCH   6   9
ATOM      7  O   UNL     1      36.373 -25.415 -11.534  0.00  0.00    -0.273 OA
ATOM      8  N   UNL     1      37.220 -23.351 -10.972  0.00  0.00    -0.327 N 
ATOM      9  C   UNL     1      36.825 -24.320 -11.863  0.00  0.00    +0.249 C 
ATOM     10  H   UNL     1      37.163 -23.518 -10.004  0.00  0.00    +0.145 HD
ATOM     11  H   UNL     1      37.562 -22.488 -11.304  0.00  0.00    +0.145 HD
ENDBRANCH   6   9
BRANCH   2  12
ATOM     12  O   UNL     1      35.721 -26.657 -15.550  0.00  0.00    -0.379 OA
ATOM     13  H   UNL     1      34.901 -26.147 -15.652  0.00  0.00    +0.211 HD
ENDBRANCH   2  12
BRANCH   3  14
ATOM     14  O   UNL     1      38.409 -27.536 -14.802  0.00  0.00    -0.379 OA
ATOM     15  H   UNL     1      37.702 -28.108 -15.138  0.00  0.00    +0.211 HD
ENDBRANCH   3  14
BRANCH   4  16
ATOM     16  O   UNL     1      34.703 -24.645 -13.774  0.00  0.00    -0.379 OA
ATOM     17  H   UNL     1      34.093 -24.811 -14.510  0.00  0.00    +0.211 HD
ENDBRANCH   4  16
BRANCH   5  18
ATOM     18  C   UNL     1      40.272 -25.306 -14.236  0.00  0.00    +0.169 C 
BRANCH  18  19
ATOM     19  O   UNL     1      40.373 -25.730 -15.583  0.00  0.00    -0.379 OA
ATOM     20  H   UNL     1      40.893 -25.084 -16.086  0.00  0.00    +0.211 HD
ENDBRANCH  18  19
ENDBRANCH   5  18
TORSDOF 6
ENDMDL
MODEL 2
REMARK VINA RESULT:      -6.8      1.903      3.961
REMARK  Name = 445825
REMARK  6 active torsions:
REMARK  status: ('A' for Active; 'I' for Inactive)
REMARK    1  A    between atoms: C_2  and  O_12
REMARK    2  A    between atoms: C_3  and  O_14
REMARK    3  A    between atoms: C_4  and  O_16
REMARK    4  A    between atoms: C_5  and  C_18
REMARK    5  A    between atoms: C_6  and  C_9
REMARK    6  A    between atoms: C_18  and  O_19
REMARK                            x       y       z     vdW  Elec       q    Type
REMARK                         _______ _______ _______ _____ _____    ______ ____
ROOT
ATOM      1  O   UNL     1      36.858 -25.978 -12.165  0.00  0.00    -0.342 OA
ATOM      2  C   UNL     1      36.163 -24.809 -14.715  0.00  0.00    +0.169 C 
ATOM      3  C   UNL     1      35.408 -24.468 -13.429  0.00  0.00    +0.169 C 
ATOM      4  C   UNL     1      36.832 -26.177 -14.595  0.00  0.00    +0.176 C 
ATOM      5  C   UNL     1      36.300 -24.661 -12.198  0.00  0.00    +0.174 C 
ATOM      6  C   UNL     1      37.636 -26.318 -13.304  0.00  0.00    +0.220 C 
ENDROOT
BRANCH   6   9
ATOM      7  O   UNL     1      39.002 -24.417 -12.802  0.00  0.00    -0.273 OA
ATOM      8  N   UNL     1      39.967 -26.186 -13.912  0.00  0.00    -0.327 N 
ATOM      9  C   UNL     1      38.921 -25.538 -13.299  0.00  0.00    +0.249 C 
ATOM     10  H   UNL     1      40.852 -25.758 -13.960  0.00  0.00    +0.145 HD
ATOM     11  H   UNL     1      39.831 -27.080 -14.302  0.00  0.00    +0.145 HD
ENDBRANCH   6   9
BRANCH   2  12
ATOM     12  O   UNL     1      35.243 -24.861 -15.806  0.00  0.00    -0.379 OA
ATOM     13  H   UNL     1      35.621 -25.394 -16.523  0.00  0.00    +0.211 HD
ENDBRANCH   2  12
BRANCH   3  14
ATOM     14  O   UNL     1      34.976 -23.110 -13.476  0.00  0.00    -0.379 OA
ATOM     15  H   UNL     1      34.266 -22.974 -12.830  0.00  0.00    +0.211 HD
ENDBRANCH   3  14
BRANCH   4  16
ATOM     16  O   UNL     1      37.660 -26.407 -15.731  0.00  0.00    -0.379 OA
ATOM     17  H   UNL     1      38.517 -26.756 -15.440  0.00  0.00    +0.211 HD
ENDBRANCH   4  16
BRANCH   5  18
ATOM     18  C   UNL     1      35.515 -24.470 -10.902  0.00  0.00    +0.169 C 
BRANCH  18  19
ATOM     19  O   UNL     1      36.407 -24.017  -9.900  0.00  0.00    -0.379 OA
ATOM     20  H   UNL     1      36.260 -24.523  -9.086  0.00  0.00    +0.211 HD
ENDBRANCH  18  19
ENDBRANCH   5  18
TORSDOF 6
ENDMDL
MODEL 3
REMARK VINA RESULT:      -6.7      2.166      3.587
REMARK  Name = 445825
REMARK  6 active torsions:
REMARK  status: ('A' for Active; 'I' for Inactive)
REMARK    1  A    between atoms: C_2  and  O_12
REMARK    2  A    between atoms: C_3  and  O_14
REMARK    3  A    between atoms: C_4  and  O_16
REMARK    4  A    between atoms: C_5  and  C_18
REMARK    5  A    between atoms: C_6  and  C_9
REMARK    6  A    between atoms: C_18  and  O_19
REMARK                            x       y       z     vdW  Elec       q    Type
REMARK                         _______ _______ _______ _____ _____    ______ ____
ROOT
ATOM      1  O   UNL     1      37.905 -23.436 -13.872  0.00  0.00    -0.342 OA
ATOM      2  C   UNL     1      36.687 -26.042 -13.591  0.00  0.00    +0.169 C 
ATOM      3  C   UNL     1      36.979 -25.145 -12.387  0.00  0.00    +0.169 C 
ATOM      4  C   UNL     1      37.610 -25.689 -14.757  0.00  0.00    +0.176 C 
ATOM      5  C   UNL     1      36.996 -23.667 -12.792  0.00  0.00    +0.174 C 
ATOM      6  C   UNL     1      37.631 -24.189 -15.045  0.00  0.00    +0.220 C 
ENDROOT
BRANCH   6   9
ATOM      7  O   UNL     1      35.389 -24.388 -15.862  0.00  0.00    -0.273 OA
ATOM      8  N   UNL     1      36.464 -22.370 -16.117  0.00  0.00    -0.327 N 
ATOM      9  C   UNL     1      36.380 -23.678 -15.703  0.00  0.00    +0.249 C 
ATOM     10  H   UNL     1      35.695 -21.942 -16.559  0.00  0.00    +0.145 HD
ATOM     11  H   UNL     1      37.294 -21.861 -15.971  0.00  0.00    +0.145 HD
ENDBRANCH   6   9
BRANCH   2  12
ATOM     12  O   UNL     1      36.926 -27.405 -13.236  0.00  0.00    -0.379 OA
ATOM     13  H   UNL     1      37.425 -27.439 -12.404  0.00  0.00    +0.211 HD
ENDBRANCH   2  12
BRANCH   3  14
ATOM     14  O   UNL     1      35.975 -25.339 -11.394  0.00  0.00    -0.379 OA
ATOM     15  H   UNL     1      35.470 -26.142 -11.597  0.00  0.00    +0.211 HD
ENDBRANCH   3  14
BRANCH   4  16
ATOM     16  O   UNL     1      37.218 -26.419 -15.915  0.00  0.00    -0.379 OA
ATOM     17  H   UNL     1      37.585 -25.992 -16.705  0.00  0.00    +0.211 HD
ENDBRANCH   4  16
BRANCH   5  18
ATOM     18  C   UNL     1      37.433 -22.773 -11.634  0.00  0.00    +0.169 C 
BRANCH  18  19
ATOM     19  O   UNL     1      38.848 -22.739 -11.603  0.00  0.00    -0.379 OA
ATOM     20  H   UNL     1      39.200 -23.389 -12.231  0.00  0.00    +0.211 HD
ENDBRANCH  18  19
ENDBRANCH   5  18
TORSDOF 6
ENDMDL
MODEL 4
REMARK VINA RESULT:      -6.7      2.164      4.676
REMARK  Name = 445825
REMARK  6 active torsions:
REMARK  status: ('A' for Active; 'I' for Inactive)
REMARK    1  A    between atoms: C_2  and  O_12
REMARK    2  A    between atoms: C_3  and  O_14
REMARK    3  A    between atoms: C_4  and  O_16
REMARK    4  A    between atoms: C_5  and  C_18
REMARK    5  A    between atoms: C_6  and  C_9
REMARK    6  A    between atoms: C_18  and  O_19
REMARK                            x       y       z     vdW  Elec       q    Type
REMARK                         _______ _______ _______ _____ _____    ______ ____
ROOT
ATOM      1  O   UNL     1      35.919 -24.421 -14.752  0.00  0.00    -0.342 OA
ATOM      2  C   UNL     1      37.218 -24.761 -12.193  0.00  0.00    +0.169 C 
ATOM      3  C   UNL     1      35.760 -24.315 -12.314  0.00  0.00    +0.169 C 
ATOM      4  C   UNL     1      37.990 -24.414 -13.465  0.00  0.00    +0.176 C 
ATOM      5  C   UNL     1      35.137 -24.816 -13.622  0.00  0.00    +0.174 C 
ATOM      6  C   UNL     1      37.265 -24.877 -14.727  0.00  0.00    +0.220 C 
ENDROOT
BRANCH   6   9
ATOM      7  O   UNL     1      38.314 -27.029 -14.705  0.00  0.00    -0.273 OA
ATOM      8  N   UNL     1      36.139 -26.886 -15.442  0.00  0.00    -0.327 N 
ATOM      9  C   UNL     1      37.308 -26.364 -14.943  0.00  0.00    +0.249 C 
ATOM     10  H   UNL     1      36.066 -27.853 -15.617  0.00  0.00    +0.145 HD
ATOM     11  H   UNL     1      35.373 -26.294 -15.623  0.00  0.00    +0.145 HD
ENDBRANCH   6   9
BRANCH   2  12
ATOM     12  O   UNL     1      37.834 -24.075 -11.102  0.00  0.00    -0.379 OA
ATOM     13  H   UNL     1      38.068 -23.174 -11.377  0.00  0.00    +0.211 HD
ENDBRANCH   2  12
BRANCH   3  14
ATOM     14  O   UNL     1      35.011 -24.834 -11.218  0.00  0.00    -0.379 OA
ATOM     15  H   UNL     1      34.237 -24.271 -11.059  0.00  0.00    +0.211 HD
ENDBRANCH   3  14
BRANCH   4  16
ATOM     16  O   UNL     1      39.296 -24.977 -13.400  0.00  0.00    -0.379 OA
ATOM     17  H   UNL     1      39.903 -24.339 -12.993  0.00  0.00    +0.211 HD
ENDBRANCH   4  16
BRANCH   5  18
ATOM     18  C   UNL     1      33.732 -24.253 -13.825  0.00  0.00    +0.169 C 
BRANCH  18  19
ATOM     19  O   UNL     1      32.814 -25.078 -13.131  0.00  0.00    -0.379 OA
ATOM     20  H   UNL     1      33.026 -25.071 -12.184  0.00  0.00    +0.211 HD
ENDBRANCH  18  19
ENDBRANCH   5  18
TORSDOF 6
ENDMDL
MODEL 5
REMARK VINA RESULT:      -6.6      1.508      3.749
REMARK  Name = 445825
REMARK  6 active torsions:
REMARK  status: ('A' for Active; 'I' for Inactive)
REMARK    1  A    between atoms: C_2  and  O_12
REMARK    2  A    between atoms: C_3  and  O_14
REMARK    3  A    between atoms: C_4  and  O_16
REMARK    4  A    between atoms: C_5  and  C_18
REMARK    5  A    between atoms: C_6  and  C_9
REMARK    6  A    between atoms: C_18  and  O_19
REMARK                            x       y       z     vdW  Elec       q    Type
REMARK                         _______ _______ _______ _____ _____    ______ ____
ROOT
ATOM      1  O   UNL     1      36.087 -25.316 -12.534  0.00  0.00    -0.342 OA
ATOM      2  C   UNL     1      36.822 -25.987 -15.247  0.00  0.00    +0.169 C 
ATOM      3  C   UNL     1      35.446 -25.421 -14.892  0.00  0.00    +0.169 C 
ATOM      4  C   UNL     1      37.446 -26.675 -14.034  0.00  0.00    +0.176 C 
ATOM      5  C   UNL     1      35.511 -24.577 -13.615  0.00  0.00    +0.174 C 
ATOM      6  C   UNL     1      37.399 -25.800 -12.784  0.00  0.00    +0.220 C 
ENDROOT
BRANCH   6   9
ATOM      7  O   UNL     1      39.104 -24.439 -13.770  0.00  0.00    -0.273 OA
ATOM      8  N   UNL     1      38.375 -23.904 -11.655  0.00  0.00    -0.327 N 
ATOM      9  C   UNL     1      38.373 -24.655 -12.806  0.00  0.00    +0.249 C 
ATOM     10  H   UNL     1      38.978 -23.130 -11.571  0.00  0.00    +0.145 HD
ATOM     11  H   UNL     1      37.772 -24.140 -10.913  0.00  0.00    +0.145 HD
ENDBRANCH   6   9
BRANCH   2  12
ATOM     12  O   UNL     1      36.680 -26.961 -16.283  0.00  0.00    -0.379 OA
ATOM     13  H   UNL     1      36.222 -26.563 -17.040  0.00  0.00    +0.211 HD
ENDBRANCH   2  12
BRANCH   3  14
ATOM     14  O   UNL     1      34.977 -24.603 -15.961  0.00  0.00    -0.379 OA
ATOM     15  H   UNL     1      34.264 -24.030 -15.642  0.00  0.00    +0.211 HD
ENDBRANCH   3  14
BRANCH   4  16
ATOM     16  O   UNL     1      38.786 -27.053 -14.335  0.00  0.00    -0.379 OA
ATOM     17  H   UNL     1      39.397 -26.536 -13.787  0.00  0.00    +0.211 HD
ENDBRANCH   4  16
BRANCH   5  18
ATOM     18  C   UNL     1      34.121 -24.131 -13.167  0.00  0.00    +0.169 C 
BRANCH  18  19
ATOM     19  O   UNL     1      33.684 -23.094 -14.026  0.00  0.00    -0.379 OA
ATOM     20  H   UNL     1      32.792 -22.814 -13.767  0.00  0.00    +0.211 HD
ENDBRANCH  18  19
ENDBRANCH   5  18
TORSDOF 6
ENDMDL
MODEL 6
REMARK VINA RESULT:      -6.6      1.888      2.850
REMARK  Name = 445825
REMARK  6 active torsions:
REMARK  status: ('A' for Active; 'I' for Inactive)
REMARK    1  A    between atoms: C_2  and  O_12
REMARK    2  A    between atoms: C_3  and  O_14
REMARK    3  A    between atoms: C_4  and  O_16
REMARK    4  A    between atoms: C_5  and  C_18
REMARK    5  A    between atoms: C_6  and  C_9
REMARK    6  A    between atoms: C_18  and  O_19
REMARK                            x       y       z     vdW  Elec       q    Type
REMARK                         _______ _______ _______ _____ _____    ______ ____
ROOT
ATOM      1  O   UNL     1      36.139 -23.236 -13.862  0.00  0.00    -0.342 OA
ATOM      2  C   UNL     1      38.101 -25.358 -13.879  0.00  0.00    +0.169 C 
ATOM      3  C   UNL     1      37.934 -24.393 -15.055  0.00  0.00    +0.169 C 
ATOM      4  C   UNL     1      36.809 -25.442 -13.069  0.00  0.00    +0.176 C 
ATOM      5  C   UNL     1      37.357 -23.052 -14.589  0.00  0.00    +0.174 C 
ATOM      6  C   UNL     1      36.257 -24.064 -12.713  0.00  0.00    +0.220 C 
ENDROOT
BRANCH   6   9
ATOM      7  O   UNL     1      37.954 -22.575 -11.916  0.00  0.00    -0.273 OA
ATOM      8  N   UNL     1      36.648 -23.665 -10.367  0.00  0.00    -0.327 N 
ATOM      9  C   UNL     1      37.040 -23.351 -11.646  0.00  0.00    +0.249 C 
ATOM     10  H   UNL     1      37.100 -23.250  -9.597  0.00  0.00    +0.145 HD
ATOM     11  H   UNL     1      35.915 -24.306 -10.220  0.00  0.00    +0.145 HD
ENDBRANCH   6   9
BRANCH   2  12
ATOM     12  O   UNL     1      38.397 -26.664 -14.377  0.00  0.00    -0.379 OA
ATOM     13  H   UNL     1      39.168 -27.021 -13.908  0.00  0.00    +0.211 HD
ENDBRANCH   2  12
BRANCH   3  14
ATOM     14  O   UNL     1      39.200 -24.163 -15.666  0.00  0.00    -0.379 OA
ATOM     15  H   UNL     1      39.905 -24.310 -15.016  0.00  0.00    +0.211 HD
ENDBRANCH   3  14
BRANCH   4  16
ATOM     16  O   UNL     1      37.031 -26.214 -11.893  0.00  0.00    -0.379 OA
ATOM     17  H   UNL     1      37.585 -26.980 -12.110  0.00  0.00    +0.211 HD
ENDBRANCH   4  16
BRANCH   5  18
ATOM     18  C   UNL     1      37.045 -22.136 -15.771  0.00  0.00    +0.169 C 
BRANCH  18  19
ATOM     19  O   UNL     1      36.879 -22.936 -16.927  0.00  0.00    -0.379 OA
ATOM     20  H   UNL     1      36.136 -23.545 -16.793  0.00  0.00    +0.211 HD
ENDBRANCH  18  19
ENDBRANCH   5  18
TORSDOF 6
ENDMDL
MODEL 7
REMARK VINA RESULT:      -6.3      2.291      3.419
REMARK  Name = 445825
REMARK  6 active torsions:
REMARK  status: ('A' for Active; 'I' for Inactive)
REMARK    1  A    between atoms: C_2  and  O_12
REMARK    2  A    between atoms: C_3  and  O_14
REMARK    3  A    between atoms: C_4  and  O_16
REMARK    4  A    between atoms: C_5  and  C_18
REMARK    5  A    between atoms: C_6  and  C_9
REMARK    6  A    between atoms: C_18  and  O_19
REMARK                            x       y       z     vdW  Elec       q    Type
REMARK                         _______ _______ _______ _____ _____    ______ ____
ROOT
ATOM      1  O   UNL     1      37.977 -23.567 -13.695  0.00  0.00    -0.342 OA
ATOM      2  C   UNL     1      35.188 -24.136 -13.198  0.00  0.00    +0.169 C 
ATOM      3  C   UNL     1      35.650 -23.322 -14.408  0.00  0.00    +0.169 C 
ATOM      4  C   UNL     1      36.222 -24.061 -12.076  0.00  0.00    +0.176 C 
ATOM      5  C   UNL     1      37.083 -23.692 -14.805  0.00  0.00    +0.174 C 
ATOM      6  C   UNL     1      37.635 -24.364 -12.570  0.00  0.00    +0.220 C 
ENDROOT
BRANCH   6   9
ATOM      7  O   UNL     1      37.011 -26.672 -12.697  0.00  0.00    -0.273 OA
ATOM      8  N   UNL     1      39.136 -26.083 -13.351  0.00  0.00    -0.327 N 
ATOM      9  C   UNL     1      37.874 -25.816 -12.877  0.00  0.00    +0.249 C 
ATOM     10  H   UNL     1      39.391 -27.005 -13.583  0.00  0.00    +0.145 HD
ATOM     11  H   UNL     1      39.786 -25.351 -13.459  0.00  0.00    +0.145 HD
ENDBRANCH   6   9
BRANCH   2  12
ATOM     12  O   UNL     1      33.961 -23.596 -12.705  0.00  0.00    -0.379 OA
ATOM     13  H   UNL     1      33.279 -24.287 -12.707  0.00  0.00    +0.211 HD
ENDBRANCH   2  12
BRANCH   3  14
ATOM     14  O   UNL     1      34.786 -23.578 -15.512  0.00  0.00    -0.379 OA
ATOM     15  H   UNL     1      34.066 -24.163 -15.231  0.00  0.00    +0.211 HD
ENDBRANCH   3  14
BRANCH   4  16
ATOM     16  O   UNL     1      35.854 -24.949 -11.026  0.00  0.00    -0.379 OA
ATOM     17  H   UNL     1      36.644 -25.194 -10.519  0.00  0.00    +0.211 HD
ENDBRANCH   4  16
BRANCH   5  18
ATOM     18  C   UNL     1      37.609 -22.783 -15.914  0.00  0.00    +0.169 C 
BRANCH  18  19
ATOM     19  O   UNL     1      36.856 -21.584 -15.906  0.00  0.00    -0.379 OA
ATOM     20  H   UNL     1      37.372 -20.877 -16.324  0.00  0.00    +0.211 HD
ENDBRANCH  18  19
ENDBRANCH   5  18
TORSDOF 6
ENDMDL
MODEL 8
REMARK VINA RESULT:      -6.3      2.259      4.178
REMARK  Name = 445825
REMARK  6 active torsions:
REMARK  status: ('A' for Active; 'I' for Inactive)
REMARK    1  A    between atoms: C_2  and  O_12
REMARK    2  A    between atoms: C_3  and  O_14
REMARK    3  A    between atoms: C_4  and  O_16
REMARK    4  A    between atoms: C_5  and  C_18
REMARK    5  A    between atoms: C_6  and  C_9
REMARK    6  A    between atoms: C_18  and  O_19
REMARK                            x       y       z     vdW  Elec       q    Type
REMARK                         _______ _______ _______ _____ _____    ______ ____
ROOT
ATOM      1  O   UNL     1      36.547 -23.641 -14.551  0.00  0.00    -0.342 OA
ATOM      2  C   UNL     1      35.618 -24.682 -12.020  0.00  0.00    +0.169 C 
ATOM      3  C   UNL     1      34.657 -24.146 -13.083  0.00  0.00    +0.169 C 
ATOM      4  C   UNL     1      37.005 -24.064 -12.194  0.00  0.00    +0.176 C 
ATOM      5  C   UNL     1      35.264 -24.268 -14.485  0.00  0.00    +0.174 C 
ATOM      6  C   UNL     1      37.503 -24.156 -13.634  0.00  0.00    +0.220 C 
ENDROOT
BRANCH   6   9
ATOM      7  O   UNL     1      37.746 -26.517 -13.323  0.00  0.00    -0.273 OA
ATOM      8  N   UNL     1      38.514 -25.594 -15.286  0.00  0.00    -0.327 N 
ATOM      9  C   UNL     1      37.918 -25.540 -14.049  0.00  0.00    +0.249 C 
ATOM     10  H   UNL     1      38.821 -26.457 -15.648  0.00  0.00    +0.145 HD
ATOM     11  H   UNL     1      38.633 -24.770 -15.811  0.00  0.00    +0.145 HD
ENDBRANCH   6   9
BRANCH   2  12
ATOM     12  O   UNL     1      35.136 -24.326 -10.723  0.00  0.00    -0.379 OA
ATOM     13  H   UNL     1      35.875 -24.321 -10.094  0.00  0.00    +0.211 HD
ENDBRANCH   2  12
BRANCH   3  14
ATOM     14  O   UNL     1      33.441 -24.887 -13.041  0.00  0.00    -0.379 OA
ATOM     15  H   UNL     1      32.689 -24.275 -13.023  0.00  0.00    +0.211 HD
ENDBRANCH   3  14
BRANCH   4  16
ATOM     16  O   UNL     1      37.923 -24.691 -11.303  0.00  0.00    -0.379 OA
ATOM     17  H   UNL     1      38.523 -24.024 -10.935  0.00  0.00    +0.211 HD
ENDBRANCH   4  16
BRANCH   5  18
ATOM     18  C   UNL     1      34.380 -23.602 -15.537  0.00  0.00    +0.169 C 
BRANCH  18  19
ATOM     19  O   UNL     1      35.205 -23.147 -16.593  0.00  0.00    -0.379 OA
ATOM     20  H   UNL     1      35.478 -23.903 -17.137  0.00  0.00    +0.211 HD
ENDBRANCH  18  19
ENDBRANCH   5  18
TORSDOF 6
ENDMDL
MODEL 9
REMARK VINA RESULT:      -6.3      2.047      3.405
REMARK  Name = 445825
REMARK  6 active torsions:
REMARK  status: ('A' for Active; 'I' for Inactive)
REMARK    1  A    between atoms: C_2  and  O_12
REMARK    2  A    between atoms: C_3  and  O_14
REMARK    3  A    between atoms: C_4  and  O_16
REMARK    4  A    between atoms: C_5  and  C_18
REMARK    5  A    between atoms: C_6  and  C_9
REMARK    6  A    between atoms: C_18  and  O_19
REMARK                            x       y       z     vdW  Elec       q    Type
REMARK                         _______ _______ _______ _____ _____    ______ ____
ROOT
ATOM      1  O   UNL     1      36.871 -25.193 -14.089  0.00  0.00    -0.342 OA
ATOM      2  C   UNL     1      36.668 -23.621 -11.673  0.00  0.00    +0.169 C 
ATOM      3  C   UNL     1      37.974 -24.292 -12.101  0.00  0.00    +0.169 C 
ATOM      4  C   UNL     1      35.470 -24.346 -12.283  0.00  0.00    +0.176 C 
ATOM      5  C   UNL     1      38.022 -24.486 -13.620  0.00  0.00    +0.174 C 
ATOM      6  C   UNL     1      35.631 -24.570 -13.785  0.00  0.00    +0.220 C 
ENDROOT
BRANCH   6   9
ATOM      7  O   UNL     1      36.427 -22.746 -15.114  0.00  0.00    -0.273 OA
ATOM      8  N   UNL     1      34.166 -22.895 -14.715  0.00  0.00    -0.327 N 
ATOM      9  C   UNL     1      35.467 -23.323 -14.607  0.00  0.00    +0.249 C 
ATOM     10  H   UNL     1      33.954 -22.086 -15.235  0.00  0.00    +0.145 HD
ATOM     11  H   UNL     1      33.444 -23.397 -14.272  0.00  0.00    +0.145 HD
ENDBRANCH   6   9
BRANCH   2  12
ATOM     12  O   UNL     1      36.546 -23.684 -10.251  0.00  0.00    -0.379 OA
ATOM     13  H   UNL     1      37.040 -24.451  -9.918  0.00  0.00    +0.211 HD
ENDBRANCH   2  12
BRANCH   3  14
ATOM     14  O   UNL     1      39.078 -23.483 -11.704  0.00  0.00    -0.379 OA
ATOM     15  H   UNL     1      38.752 -22.691 -11.248  0.00  0.00    +0.211 HD
ENDBRANCH   3  14
BRANCH   4  16
ATOM     16  O   UNL     1      34.278 -23.616 -12.008  0.00  0.00    -0.379 OA
ATOM     17  H   UNL     1      34.132 -22.962 -12.709  0.00  0.00    +0.211 HD
ENDBRANCH   4  16
BRANCH   5  18
ATOM     18  C   UNL     1      39.250 -25.288 -14.044  0.00  0.00    +0.169 C 
BRANCH  18  19
ATOM     19  O   UNL     1      38.985 -25.884 -15.301  0.00  0.00    -0.379 OA
ATOM     20  H   UNL     1      38.085 -25.656 -15.582  0.00  0.00    +0.211 HD
ENDBRANCH  18  19
ENDBRANCH   5  18
TORSDOF 6
ENDMDL
