MODEL 1
REMARK VINA RESULT:      -8.7      0.000      0.000
REMARK  Name = 3034048
REMARK  7 active torsions:
REMARK  status: ('A' for Active; 'I' for Inactive)
REMARK    1  A    between atoms: C_3  and  C_9
REMARK    2  A    between atoms: C_4  and  S_17
REMARK    3  A    between atoms: C_7  and  C_12
REMARK    4  A    between atoms: C_9  and  O_10
REMARK    5  A    between atoms: C_12  and  C_14
REMARK    6  A    between atoms: C_14  and  S_15
REMARK    7  A    between atoms: S_17  and  C_18
REMARK                            x       y       z     vdW  Elec       q    Type
REMARK                         _______ _______ _______ _____ _____    ______ ____
ROOT
ATOM      1  O   UNL     1      34.046 -14.477 -24.278  0.00  0.00    -0.275 OA
ATOM      2  N   UNL     1      34.571 -16.123 -22.737  0.00  0.00    -0.271 N 
ATOM      3  C   UNL     1      35.432 -16.898 -23.618  0.00  0.00    +0.175 C 
ATOM      4  C   UNL     1      35.216 -18.043 -21.484  0.00  0.00    +0.074 C 
ATOM      5  C   UNL     1      36.121 -17.919 -22.715  0.00  0.00    +0.044 C 
ATOM      6  C   UNL     1      34.562 -16.668 -21.381  0.00  0.00    +0.105 C 
ATOM      7  C   UNL     1      34.022 -14.909 -23.125  0.00  0.00    +0.226 C 
ENDROOT
BRANCH   3   9
ATOM      8  O   UNL     1      34.036 -18.636 -24.550  0.00  0.00    -0.248 OA
ATOM      9  C   UNL     1      34.605 -17.563 -24.676  0.00  0.00    +0.332 C 
BRANCH   9  10
ATOM     10  O   UNL     1      34.573 -16.809 -25.803  0.00  0.00    -0.479 OA
ATOM     11  H   UNL     1      35.147 -16.073 -25.891  0.00  0.00    +0.295 HD
ENDBRANCH   9  10
ENDBRANCH   3   9
BRANCH   7  12
ATOM     12  C   UNL     1      33.353 -14.117 -22.030  0.00  0.00    +0.087 C 
ATOM     13  C   UNL     1      32.347 -15.036 -21.347  0.00  0.00    +0.010 C 
BRANCH  12  14
ATOM     14  C   UNL     1      32.663 -12.879 -22.599  0.00  0.00    +0.062 C 
BRANCH  14  15
ATOM     15  S   UNL     1      31.611 -12.059 -21.359  0.00  0.00    -0.167 S 
ATOM     16  H   UNL     1      30.674 -11.302 -21.991  0.00  0.00    +0.102 HD
ENDBRANCH  14  15
ENDBRANCH  12  14
ENDBRANCH   7  12
BRANCH   4  17
ATOM     17  S   UNL     1      33.976 -19.371 -21.659  0.00  0.00    -0.113 S 
BRANCH  17  18
ATOM     18  C   UNL     1      34.495 -20.501 -20.376  0.00  0.00    +0.025 C 
ATOM     19  C   UNL     1      33.545 -21.256 -19.693  0.00  0.00    +0.006 C 
ATOM     20  C   UNL     1      35.847 -20.621 -20.065  0.00  0.00    +0.006 C 
ATOM     21  C   UNL     1      33.950 -22.138 -18.690  0.00  0.00    +0.001 C 
ATOM     22  C   UNL     1      36.252 -21.504 -19.063  0.00  0.00    +0.001 C 
ATOM     23  C   UNL     1      35.303 -22.262 -18.375  0.00  0.00    +0.000 C 
ENDBRANCH  17  18
ENDBRANCH   4  17
TORSDOF 7
ENDMDL
MODEL 2
REMARK VINA RESULT:      -8.2      1.421      1.802
REMARK  Name = 3034048
REMARK  7 active torsions:
REMARK  status: ('A' for Active; 'I' for Inactive)
REMARK    1  A    between atoms: C_3  and  C_9
REMARK    2  A    between atoms: C_4  and  S_17
REMARK    3  A    between atoms: C_7  and  C_12
REMARK    4  A    between atoms: C_9  and  O_10
REMARK    5  A    between atoms: C_12  and  C_14
REMARK    6  A    between atoms: C_14  and  S_15
REMARK    7  A    between atoms: S_17  and  C_18
REMARK                            x       y       z     vdW  Elec       q    Type
REMARK                         _______ _______ _______ _____ _____    ______ ____
ROOT
ATOM      1  O   UNL     1      34.429 -16.283 -25.880  0.00  0.00    -0.275 OA
ATOM      2  N   UNL     1      34.458 -16.986 -23.674  0.00  0.00    -0.271 N 
ATOM      3  C   UNL     1      35.403 -18.076 -23.867  0.00  0.00    +0.175 C 
ATOM      4  C   UNL     1      34.638 -18.065 -21.558  0.00  0.00    +0.074 C 
ATOM      5  C   UNL     1      35.786 -18.533 -22.460  0.00  0.00    +0.044 C 
ATOM      6  C   UNL     1      34.115 -16.817 -22.264  0.00  0.00    +0.105 C 
ATOM      7  C   UNL     1      34.124 -16.112 -24.698  0.00  0.00    +0.226 C 
ENDROOT
BRANCH   3   9
ATOM      8  O   UNL     1      35.225 -20.289 -24.822  0.00  0.00    -0.248 OA
ATOM      9  C   UNL     1      34.752 -19.176 -24.649  0.00  0.00    +0.332 C 
BRANCH   9  10
ATOM     10  O   UNL     1      33.557 -18.769 -25.144  0.00  0.00    -0.479 OA
ATOM     11  H   UNL     1      33.103 -19.300 -25.768  0.00  0.00    +0.295 HD
ENDBRANCH   9  10
ENDBRANCH   3   9
BRANCH   7  12
ATOM     12  C   UNL     1      33.323 -14.902 -24.287  0.00  0.00    +0.087 C 
ATOM     13  C   UNL     1      32.684 -14.325 -25.545  0.00  0.00    +0.010 C 
BRANCH  12  14
ATOM     14  C   UNL     1      34.215 -13.867 -23.605  0.00  0.00    +0.062 C 
BRANCH  14  15
ATOM     15  S   UNL     1      33.749 -12.166 -24.058  0.00  0.00    -0.167 S 
ATOM     16  H   UNL     1      33.140 -12.172 -25.274  0.00  0.00    +0.102 HD
ENDBRANCH  14  15
ENDBRANCH  12  14
ENDBRANCH   7  12
BRANCH   4  17
ATOM     17  S   UNL     1      33.337 -19.331 -21.371  0.00  0.00    -0.113 S 
BRANCH  17  18
ATOM     18  C   UNL     1      34.129 -20.477 -20.252  0.00  0.00    +0.025 C 
ATOM     19  C   UNL     1      33.354 -21.359 -19.502  0.00  0.00    +0.006 C 
ATOM     20  C   UNL     1      35.516 -20.485 -20.136  0.00  0.00    +0.006 C 
ATOM     21  C   UNL     1      33.972 -22.254 -18.628  0.00  0.00    +0.001 C 
ATOM     22  C   UNL     1      36.134 -21.381 -19.262  0.00  0.00    +0.001 C 
ATOM     23  C   UNL     1      35.362 -22.264 -18.508  0.00  0.00    +0.000 C 
ENDBRANCH  17  18
ENDBRANCH   4  17
TORSDOF 7
ENDMDL
MODEL 3
REMARK VINA RESULT:      -7.5      7.050     11.106
REMARK  Name = 3034048
REMARK  7 active torsions:
REMARK  status: ('A' for Active; 'I' for Inactive)
REMARK    1  A    between atoms: C_3  and  C_9
REMARK    2  A    between atoms: C_4  and  S_17
REMARK    3  A    between atoms: C_7  and  C_12
REMARK    4  A    between atoms: C_9  and  O_10
REMARK    5  A    between atoms: C_12  and  C_14
REMARK    6  A    between atoms: C_14  and  S_15
REMARK    7  A    between atoms: S_17  and  C_18
REMARK                            x       y       z     vdW  Elec       q    Type
REMARK                         _______ _______ _______ _____ _____    ______ ____
ROOT
ATOM      1  O   UNL     1      36.092 -25.721 -12.771  0.00  0.00    -0.275 OA
ATOM      2  N   UNL     1      35.957 -24.226 -14.533  0.00  0.00    -0.271 N 
ATOM      3  C   UNL     1      34.887 -23.414 -13.971  0.00  0.00    +0.175 C 
ATOM      4  C   UNL     1      35.441 -22.600 -16.196  0.00  0.00    +0.074 C 
ATOM      5  C   UNL     1      34.806 -22.178 -14.866  0.00  0.00    +0.044 C 
ATOM      6  C   UNL     1      36.457 -23.662 -15.785  0.00  0.00    +0.105 C 
ATOM      7  C   UNL     1      36.539 -25.268 -13.826  0.00  0.00    +0.226 C 
ENDROOT
BRANCH   3   9
ATOM      8  O   UNL     1      32.813 -24.224 -14.911  0.00  0.00    -0.248 OA
ATOM      9  C   UNL     1      33.605 -24.190 -13.982  0.00  0.00    +0.332 C 
BRANCH   9  10
ATOM     10  O   UNL     1      33.439 -24.856 -12.812  0.00  0.00    -0.479 OA
ATOM     11  H   UNL     1      34.032 -24.709 -12.101  0.00  0.00    +0.295 HD
ENDBRANCH   9  10
ENDBRANCH   3   9
BRANCH   7  12
ATOM     12  C   UNL     1      37.783 -25.858 -14.440  0.00  0.00    +0.087 C 
ATOM     13  C   UNL     1      37.486 -27.315 -14.772  0.00  0.00    +0.010 C 
BRANCH  12  14
ATOM     14  C   UNL     1      38.967 -25.747 -13.481  0.00  0.00    +0.062 C 
BRANCH  14  15
ATOM     15  S   UNL     1      40.560 -25.789 -14.362  0.00  0.00    -0.167 S 
ATOM     16  H   UNL     1      40.848 -24.547 -14.836  0.00  0.00    +0.102 HD
ENDBRANCH  14  15
ENDBRANCH  12  14
ENDBRANCH   7  12
BRANCH   4  17
ATOM     17  S   UNL     1      34.214 -23.257 -17.377  0.00  0.00    -0.113 S 
BRANCH  17  18
ATOM     18  C   UNL     1      34.336 -22.063 -18.701  0.00  0.00    +0.025 C 
ATOM     19  C   UNL     1      35.588 -21.693 -19.185  0.00  0.00    +0.006 C 
ATOM     20  C   UNL     1      33.180 -21.510 -19.244  0.00  0.00    +0.006 C 
ATOM     21  C   UNL     1      35.684 -20.760 -20.219  0.00  0.00    +0.001 C 
ATOM     22  C   UNL     1      33.276 -20.578 -20.278  0.00  0.00    +0.001 C 
ATOM     23  C   UNL     1      34.528 -20.203 -20.765  0.00  0.00    +0.000 C 
ENDBRANCH  17  18
ENDBRANCH   4  17
TORSDOF 7
ENDMDL
MODEL 4
REMARK VINA RESULT:      -7.5      1.338      1.717
REMARK  Name = 3034048
REMARK  7 active torsions:
REMARK  status: ('A' for Active; 'I' for Inactive)
REMARK    1  A    between atoms: C_3  and  C_9
REMARK    2  A    between atoms: C_4  and  S_17
REMARK    3  A    between atoms: C_7  and  C_12
REMARK    4  A    between atoms: C_9  and  O_10
REMARK    5  A    between atoms: C_12  and  C_14
REMARK    6  A    between atoms: C_14  and  S_15
REMARK    7  A    between atoms: S_17  and  C_18
REMARK                            x       y       z     vdW  Elec       q    Type
REMARK                         _______ _______ _______ _____ _____    ______ ____
ROOT
ATOM      1  O   UNL     1      33.598 -13.371 -25.186  0.00  0.00    -0.275 OA
ATOM      2  N   UNL     1      34.293 -14.897 -23.590  0.00  0.00    -0.271 N 
ATOM      3  C   UNL     1      34.945 -15.811 -24.517  0.00  0.00    +0.175 C 
ATOM      4  C   UNL     1      35.042 -16.732 -22.268  0.00  0.00    +0.074 C 
ATOM      5  C   UNL     1      35.724 -16.789 -23.639  0.00  0.00    +0.044 C 
ATOM      6  C   UNL     1      34.491 -15.310 -22.202  0.00  0.00    +0.105 C 
ATOM      7  C   UNL     1      33.752 -13.689 -24.006  0.00  0.00    +0.226 C 
ENDROOT
BRANCH   3   9
ATOM      8  O   UNL     1      32.965 -15.968 -25.894  0.00  0.00    -0.248 OA
ATOM      9  C   UNL     1      33.911 -16.512 -25.345  0.00  0.00    +0.332 C 
BRANCH   9  10
ATOM     10  O   UNL     1      34.166 -17.843 -25.403  0.00  0.00    -0.479 OA
ATOM     11  H   UNL     1      33.457 -18.456 -25.418  0.00  0.00    +0.295 HD
ENDBRANCH   9  10
ENDBRANCH   3   9
BRANCH   7  12
ATOM     12  C   UNL     1      33.327 -12.752 -22.904  0.00  0.00    +0.087 C 
ATOM     13  C   UNL     1      31.998 -13.257 -22.357  0.00  0.00    +0.010 C 
BRANCH  12  14
ATOM     14  C   UNL     1      33.195 -11.323 -23.426  0.00  0.00    +0.062 C 
BRANCH  14  15
ATOM     15  S   UNL     1      31.989 -10.357 -22.463  0.00  0.00    -0.167 S 
ATOM     16  H   UNL     1      31.940 -10.836 -21.190  0.00  0.00    +0.102 HD
ENDBRANCH  14  15
ENDBRANCH  12  14
ENDBRANCH   7  12
BRANCH   4  17
ATOM     17  S   UNL     1      33.720 -17.978 -22.092  0.00  0.00    -0.113 S 
BRANCH  17  18
ATOM     18  C   UNL     1      34.550 -19.228 -21.122  0.00  0.00    +0.025 C 
ATOM     19  C   UNL     1      33.806 -20.225 -20.496  0.00  0.00    +0.006 C 
ATOM     20  C   UNL     1      35.936 -19.200 -20.996  0.00  0.00    +0.006 C 
ATOM     21  C   UNL     1      34.455 -21.202 -19.738  0.00  0.00    +0.001 C 
ATOM     22  C   UNL     1      36.584 -20.176 -20.239  0.00  0.00    +0.001 C 
ATOM     23  C   UNL     1      35.843 -21.176 -19.609  0.00  0.00    +0.000 C 
ENDBRANCH  17  18
ENDBRANCH   4  17
TORSDOF 7
ENDMDL
MODEL 5
REMARK VINA RESULT:      -7.5      7.177      9.985
REMARK  Name = 3034048
REMARK  7 active torsions:
REMARK  status: ('A' for Active; 'I' for Inactive)
REMARK    1  A    between atoms: C_3  and  C_9
REMARK    2  A    between atoms: C_4  and  S_17
REMARK    3  A    between atoms: C_7  and  C_12
REMARK    4  A    between atoms: C_9  and  O_10
REMARK    5  A    between atoms: C_12  and  C_14
REMARK    6  A    between atoms: C_14  and  S_15
REMARK    7  A    between atoms: S_17  and  C_18
REMARK                            x       y       z     vdW  Elec       q    Type
REMARK                         _______ _______ _______ _____ _____    ______ ____
ROOT
ATOM      1  O   UNL     1      31.892  -5.175 -22.379  0.00  0.00    -0.275 OA
ATOM      2  N   UNL     1      31.877  -7.372 -23.109  0.00  0.00    -0.271 N 
ATOM      3  C   UNL     1      31.907  -7.979 -21.787  0.00  0.00    +0.175 C 
ATOM      4  C   UNL     1      32.007  -9.721 -23.482  0.00  0.00    +0.074 C 
ATOM      5  C   UNL     1      31.632  -9.464 -22.019  0.00  0.00    +0.044 C 
ATOM      6  C   UNL     1      31.742  -8.379 -24.160  0.00  0.00    +0.105 C 
ATOM      7  C   UNL     1      31.773  -6.000 -23.287  0.00  0.00    +0.226 C 
ENDROOT
BRANCH   3   9
ATOM      8  O   UNL     1      34.293  -7.591 -21.775  0.00  0.00    -0.248 OA
ATOM      9  C   UNL     1      33.250  -7.756 -21.160  0.00  0.00    +0.332 C 
BRANCH   9  10
ATOM     10  O   UNL     1      33.153  -7.763 -19.807  0.00  0.00    -0.479 OA
ATOM     11  H   UNL     1      33.304  -8.556 -19.331  0.00  0.00    +0.295 HD
ENDBRANCH   9  10
ENDBRANCH   3   9
BRANCH   7  12
ATOM     12  C   UNL     1      31.515  -5.543 -24.701  0.00  0.00    +0.087 C 
ATOM     13  C   UNL     1      32.865  -5.413 -25.396  0.00  0.00    +0.010 C 
BRANCH  12  14
ATOM     14  C   UNL     1      30.764  -4.213 -24.713  0.00  0.00    +0.062 C 
BRANCH  14  15
ATOM     15  S   UNL     1      31.821  -2.843 -25.283  0.00  0.00    -0.167 S 
ATOM     16  H   UNL     1      33.051  -2.954 -24.714  0.00  0.00    +0.102 HD
ENDBRANCH  14  15
ENDBRANCH  12  14
ENDBRANCH   7  12
BRANCH   4  17
ATOM     17  S   UNL     1      33.745 -10.244 -23.676  0.00  0.00    -0.113 S 
BRANCH  17  18
ATOM     18  C   UNL     1      33.543 -11.807 -24.518  0.00  0.00    +0.025 C 
ATOM     19  C   UNL     1      33.308 -12.965 -23.781  0.00  0.00    +0.006 C 
ATOM     20  C   UNL     1      33.621 -11.861 -25.907  0.00  0.00    +0.006 C 
ATOM     21  C   UNL     1      33.151 -14.186 -24.438  0.00  0.00    +0.001 C 
ATOM     22  C   UNL     1      33.463 -13.082 -26.564  0.00  0.00    +0.001 C 
ATOM     23  C   UNL     1      33.228 -14.244 -25.829  0.00  0.00    +0.000 C 
ENDBRANCH  17  18
ENDBRANCH   4  17
TORSDOF 7
ENDMDL
MODEL 6
REMARK VINA RESULT:      -7.5      7.560     12.697
REMARK  Name = 3034048
REMARK  7 active torsions:
REMARK  status: ('A' for Active; 'I' for Inactive)
REMARK    1  A    between atoms: C_3  and  C_9
REMARK    2  A    between atoms: C_4  and  S_17
REMARK    3  A    between atoms: C_7  and  C_12
REMARK    4  A    between atoms: C_9  and  O_10
REMARK    5  A    between atoms: C_12  and  C_14
REMARK    6  A    between atoms: C_14  and  S_15
REMARK    7  A    between atoms: S_17  and  C_18
REMARK                            x       y       z     vdW  Elec       q    Type
REMARK                         _______ _______ _______ _____ _____    ______ ____
ROOT
ATOM      1  O   UNL     1      32.255  -9.929 -20.062  0.00  0.00    -0.275 OA
ATOM      2  N   UNL     1      32.334  -8.811 -22.087  0.00  0.00    -0.271 N 
ATOM      3  C   UNL     1      33.259  -7.771 -21.660  0.00  0.00    +0.175 C 
ATOM      4  C   UNL     1      32.554  -7.339 -23.947  0.00  0.00    +0.074 C 
ATOM      5  C   UNL     1      33.671  -7.047 -22.940  0.00  0.00    +0.044 C 
ATOM      6  C   UNL     1      32.030  -8.705 -23.513  0.00  0.00    +0.105 C 
ATOM      7  C   UNL     1      31.984  -9.870 -21.262  0.00  0.00    +0.226 C 
ENDROOT
BRANCH   3   9
ATOM      8  O   UNL     1      31.705  -6.043 -20.997  0.00  0.00    -0.248 OA
ATOM      9  C   UNL     1      32.572  -6.849 -20.698  0.00  0.00    +0.332 C 
BRANCH   9  10
ATOM     10  O   UNL     1      33.047  -7.029 -19.441  0.00  0.00    -0.479 OA
ATOM     11  H   UNL     1      33.034  -6.319 -18.829  0.00  0.00    +0.295 HD
ENDBRANCH   9  10
ENDBRANCH   3   9
BRANCH   7  12
ATOM     12  C   UNL     1      31.211 -10.983 -21.923  0.00  0.00    +0.087 C 
ATOM     13  C   UNL     1      30.318 -11.615 -20.862  0.00  0.00    +0.010 C 
BRANCH  12  14
ATOM     14  C   UNL     1      32.158 -12.018 -22.526  0.00  0.00    +0.062 C 
BRANCH  14  15
ATOM     15  S   UNL     1      32.339 -13.479 -21.454  0.00  0.00    -0.167 S 
ATOM     16  H   UNL     1      31.462 -13.391 -20.418  0.00  0.00    +0.102 HD
ENDBRANCH  14  15
ENDBRANCH  12  14
ENDBRANCH   7  12
BRANCH   4  17
ATOM     17  S   UNL     1      31.241  -6.071 -23.922  0.00  0.00    -0.113 S 
BRANCH  17  18
ATOM     18  C   UNL     1      31.890  -4.880 -25.085  0.00  0.00    +0.025 C 
ATOM     19  C   UNL     1      32.921  -5.245 -25.947  0.00  0.00    +0.006 C 
ATOM     20  C   UNL     1      31.361  -3.593 -25.126  0.00  0.00    +0.006 C 
ATOM     21  C   UNL     1      33.428  -4.315 -26.856  0.00  0.00    +0.001 C 
ATOM     22  C   UNL     1      31.867  -2.663 -26.035  0.00  0.00    +0.001 C 
ATOM     23  C   UNL     1      32.901  -3.025 -26.899  0.00  0.00    +0.000 C 
ENDBRANCH  17  18
ENDBRANCH   4  17
TORSDOF 7
ENDMDL
MODEL 7
REMARK VINA RESULT:      -7.3      5.490      7.821
REMARK  Name = 3034048
REMARK  7 active torsions:
REMARK  status: ('A' for Active; 'I' for Inactive)
REMARK    1  A    between atoms: C_3  and  C_9
REMARK    2  A    between atoms: C_4  and  S_17
REMARK    3  A    between atoms: C_7  and  C_12
REMARK    4  A    between atoms: C_9  and  O_10
REMARK    5  A    between atoms: C_12  and  C_14
REMARK    6  A    between atoms: C_14  and  S_15
REMARK    7  A    between atoms: S_17  and  C_18
REMARK                            x       y       z     vdW  Elec       q    Type
REMARK                         _______ _______ _______ _____ _____    ______ ____
ROOT
ATOM      1  O   UNL     1      32.222  -7.467 -21.193  0.00  0.00    -0.275 OA
ATOM      2  N   UNL     1      32.065  -9.659 -21.921  0.00  0.00    -0.271 N 
ATOM      3  C   UNL     1      31.137 -10.103 -20.892  0.00  0.00    +0.175 C 
ATOM      4  C   UNL     1      31.766 -11.994 -22.287  0.00  0.00    +0.074 C 
ATOM      5  C   UNL     1      30.675 -11.490 -21.336  0.00  0.00    +0.044 C 
ATOM      6  C   UNL     1      32.324 -10.713 -22.900  0.00  0.00    +0.105 C 
ATOM      7  C   UNL     1      32.456  -8.333 -22.038  0.00  0.00    +0.226 C 
ENDROOT
BRANCH   3   9
ATOM      8  O   UNL     1      32.709  -9.375 -19.207  0.00  0.00    -0.248 OA
ATOM      9  C   UNL     1      31.837 -10.151 -19.567  0.00  0.00    +0.332 C 
BRANCH   9  10
ATOM     10  O   UNL     1      31.372 -11.180 -18.817  0.00  0.00    -0.479 OA
ATOM     11  H   UNL     1      30.933 -11.898 -19.227  0.00  0.00    +0.295 HD
ENDBRANCH   9  10
ENDBRANCH   3   9
BRANCH   7  12
ATOM     12  C   UNL     1      33.227  -7.988 -23.287  0.00  0.00    +0.087 C 
ATOM     13  C   UNL     1      34.661  -7.681 -22.873  0.00  0.00    +0.010 C 
BRANCH  12  14
ATOM     14  C   UNL     1      32.597  -6.794 -24.001  0.00  0.00    +0.062 C 
BRANCH  14  15
ATOM     15  S   UNL     1      30.830  -7.065 -24.347  0.00  0.00    -0.167 S 
ATOM     16  H   UNL     1      30.701  -7.924 -25.393  0.00  0.00    +0.102 HD
ENDBRANCH  14  15
ENDBRANCH  12  14
ENDBRANCH   7  12
BRANCH   4  17
ATOM     17  S   UNL     1      33.058 -12.950 -21.422  0.00  0.00    -0.113 S 
BRANCH  17  18
ATOM     18  C   UNL     1      33.524 -14.123 -22.687  0.00  0.00    +0.025 C 
ATOM     19  C   UNL     1      32.990 -14.008 -23.967  0.00  0.00    +0.006 C 
ATOM     20  C   UNL     1      34.420 -15.146 -22.387  0.00  0.00    +0.006 C 
ATOM     21  C   UNL     1      33.353 -14.924 -24.956  0.00  0.00    +0.001 C 
ATOM     22  C   UNL     1      34.784 -16.061 -23.375  0.00  0.00    +0.001 C 
ATOM     23  C   UNL     1      34.250 -15.950 -24.659  0.00  0.00    +0.000 C 
ENDBRANCH  17  18
ENDBRANCH   4  17
TORSDOF 7
ENDMDL
MODEL 8
REMARK VINA RESULT:      -7.3      1.704      2.657
REMARK  Name = 3034048
REMARK  7 active torsions:
REMARK  status: ('A' for Active; 'I' for Inactive)
REMARK    1  A    between atoms: C_3  and  C_9
REMARK    2  A    between atoms: C_4  and  S_17
REMARK    3  A    between atoms: C_7  and  C_12
REMARK    4  A    between atoms: C_9  and  O_10
REMARK    5  A    between atoms: C_12  and  C_14
REMARK    6  A    between atoms: C_14  and  S_15
REMARK    7  A    between atoms: S_17  and  C_18
REMARK                            x       y       z     vdW  Elec       q    Type
REMARK                         _______ _______ _______ _____ _____    ______ ____
ROOT
ATOM      1  O   UNL     1      33.237 -12.391 -23.030  0.00  0.00    -0.275 OA
ATOM      2  N   UNL     1      33.310 -14.288 -21.705  0.00  0.00    -0.271 N 
ATOM      3  C   UNL     1      34.578 -14.789 -22.214  0.00  0.00    +0.175 C 
ATOM      4  C   UNL     1      33.658 -16.381 -20.622  0.00  0.00    +0.074 C 
ATOM      5  C   UNL     1      34.969 -15.928 -21.274  0.00  0.00    +0.044 C 
ATOM      6  C   UNL     1      32.810 -15.112 -20.606  0.00  0.00    +0.105 C 
ATOM      7  C   UNL     1      32.792 -13.062 -22.097  0.00  0.00    +0.226 C 
ENDROOT
BRANCH   3   9
ATOM      8  O   UNL     1      33.435 -15.030 -24.330  0.00  0.00    -0.248 OA
ATOM      9  C   UNL     1      34.402 -15.268 -23.623  0.00  0.00    +0.332 C 
BRANCH   9  10
ATOM     10  O   UNL     1      35.468 -16.011 -24.012  0.00  0.00    -0.479 OA
ATOM     11  H   UNL     1      36.182 -16.151 -23.422  0.00  0.00    +0.295 HD
ENDBRANCH   9  10
ENDBRANCH   3   9
BRANCH   7  12
ATOM     12  C   UNL     1      31.600 -12.576 -21.311  0.00  0.00    +0.087 C 
ATOM     13  C   UNL     1      30.981 -11.418 -22.084  0.00  0.00    +0.010 C 
BRANCH  12  14
ATOM     14  C   UNL     1      32.016 -12.137 -19.910  0.00  0.00    +0.062 C 
BRANCH  14  15
ATOM     15  S   UNL     1      31.399 -10.471 -19.510  0.00  0.00    -0.167 S 
ATOM     16  H   UNL     1      30.957 -10.449 -18.223  0.00  0.00    +0.102 HD
ENDBRANCH  14  15
ENDBRANCH  12  14
ENDBRANCH   7  12
BRANCH   4  17
ATOM     17  S   UNL     1      32.844 -17.727 -21.549  0.00  0.00    -0.113 S 
BRANCH  17  18
ATOM     18  C   UNL     1      33.659 -19.161 -20.862  0.00  0.00    +0.025 C 
ATOM     19  C   UNL     1      35.040 -19.296 -20.982  0.00  0.00    +0.006 C 
ATOM     20  C   UNL     1      32.910 -20.136 -20.209  0.00  0.00    +0.006 C 
ATOM     21  C   UNL     1      35.677 -20.416 -20.446  0.00  0.00    +0.001 C 
ATOM     22  C   UNL     1      33.547 -21.256 -19.672  0.00  0.00    +0.001 C 
ATOM     23  C   UNL     1      34.930 -21.395 -19.791  0.00  0.00    +0.000 C 
ENDBRANCH  17  18
ENDBRANCH   4  17
TORSDOF 7
ENDMDL
MODEL 9
REMARK VINA RESULT:      -7.2      3.514      5.471
REMARK  Name = 3034048
REMARK  7 active torsions:
REMARK  status: ('A' for Active; 'I' for Inactive)
REMARK    1  A    between atoms: C_3  and  C_9
REMARK    2  A    between atoms: C_4  and  S_17
REMARK    3  A    between atoms: C_7  and  C_12
REMARK    4  A    between atoms: C_9  and  O_10
REMARK    5  A    between atoms: C_12  and  C_14
REMARK    6  A    between atoms: C_14  and  S_15
REMARK    7  A    between atoms: S_17  and  C_18
REMARK                            x       y       z     vdW  Elec       q    Type
REMARK                         _______ _______ _______ _____ _____    ______ ____
ROOT
ATOM      1  O   UNL     1      32.289  -9.813 -22.793  0.00  0.00    -0.275 OA
ATOM      2  N   UNL     1      33.143 -11.923 -23.215  0.00  0.00    -0.271 N 
ATOM      3  C   UNL     1      31.975 -12.662 -22.757  0.00  0.00    +0.175 C 
ATOM      4  C   UNL     1      33.730 -14.226 -23.383  0.00  0.00    +0.074 C 
ATOM      5  C   UNL     1      32.213 -14.106 -23.195  0.00  0.00    +0.044 C 
ATOM      6  C   UNL     1      34.153 -12.814 -23.782  0.00  0.00    +0.105 C 
ATOM      7  C   UNL     1      33.157 -10.538 -23.282  0.00  0.00    +0.226 C 
ENDROOT
BRANCH   3   9
ATOM      8  O   UNL     1      32.460 -13.241 -20.461  0.00  0.00    -0.248 OA
ATOM      9  C   UNL     1      31.858 -12.548 -21.267  0.00  0.00    +0.332 C 
BRANCH   9  10
ATOM     10  O   UNL     1      30.987 -11.565 -20.929  0.00  0.00    -0.479 OA
ATOM     11  H   UNL     1      30.894 -10.812 -21.479  0.00  0.00    +0.295 HD
ENDBRANCH   9  10
ENDBRANCH   3   9
BRANCH   7  12
ATOM     12  C   UNL     1      34.340  -9.932 -23.995  0.00  0.00    +0.087 C 
ATOM     13  C   UNL     1      34.381  -8.450 -23.641  0.00  0.00    +0.010 C 
BRANCH  12  14
ATOM     14  C   UNL     1      34.224 -10.130 -25.505  0.00  0.00    +0.062 C 
BRANCH  14  15
ATOM     15  S   UNL     1      35.855 -10.328 -26.290  0.00  0.00    -0.167 S 
ATOM     16  H   UNL     1      36.781 -10.629 -25.341  0.00  0.00    +0.102 HD
ENDBRANCH  14  15
ENDBRANCH  12  14
ENDBRANCH   7  12
BRANCH   4  17
ATOM     17  S   UNL     1      34.579 -14.784 -21.867  0.00  0.00    -0.113 S 
BRANCH  17  18
ATOM     18  C   UNL     1      34.741 -16.535 -22.187  0.00  0.00    +0.025 C 
ATOM     19  C   UNL     1      34.677 -17.440 -21.130  0.00  0.00    +0.006 C 
ATOM     20  C   UNL     1      34.928 -16.987 -23.490  0.00  0.00    +0.006 C 
ATOM     21  C   UNL     1      34.803 -18.807 -21.379  0.00  0.00    +0.001 C 
ATOM     22  C   UNL     1      35.054 -18.354 -23.740  0.00  0.00    +0.001 C 
ATOM     23  C   UNL     1      34.992 -19.264 -22.683  0.00  0.00    +0.000 C 
ENDBRANCH  17  18
ENDBRANCH   4  17
TORSDOF 7
ENDMDL
