MODEL 1
REMARK VINA RESULT:     -11.4      0.000      0.000
REMARK  Name = 68953
REMARK  1 active torsions:
REMARK  status: ('A' for Active; 'I' for Inactive)
REMARK    1  A    between atoms: C_4  and  C_13
REMARK                            x       y       z     vdW  Elec       q    Type
REMARK                         _______ _______ _______ _____ _____    ______ ____
ROOT
ATOM      1 BR   UNL     1      33.039 -14.574 -26.541  0.00  0.00    -0.049 Br
ATOM      2  O   UNL     1      35.199 -19.300 -24.072  0.00  0.00    -0.291 OA
ATOM      3  O   UNL     1      35.264 -16.520 -20.227  0.00  0.00    -0.291 OA
ATOM      4  C   UNL     1      35.551 -18.359 -21.830  0.00  0.00    +0.146 C 
ATOM      5  C   UNL     1      34.614 -17.040 -23.626  0.00  0.00    +0.039 C 
ATOM      6  C   UNL     1      34.633 -16.225 -22.498  0.00  0.00    +0.038 C 
ATOM      7  C   UNL     1      35.131 -18.369 -23.292  0.00  0.00    +0.184 C 
ATOM      8  C   UNL     1      35.165 -16.967 -21.353  0.00  0.00    +0.184 C 
ATOM      9  C   UNL     1      34.146 -16.584 -24.843  0.00  0.00    +0.010 C 
ATOM     10  C   UNL     1      34.187 -14.919 -22.539  0.00  0.00    +0.003 C 
ATOM     11  C   UNL     1      33.693 -15.264 -24.905  0.00  0.00    +0.035 C 
ATOM     12  C   UNL     1      33.712 -14.439 -23.763  0.00  0.00    +0.007 C 
ENDROOT
BRANCH   4  13
ATOM     13  C   UNL     1      34.870 -19.426 -21.049  0.00  0.00    -0.008 C 
ATOM     14  C   UNL     1      33.477 -19.450 -20.959  0.00  0.00    -0.003 C 
ATOM     15  C   UNL     1      35.622 -20.410 -20.401  0.00  0.00    -0.003 C 
ATOM     16  C   UNL     1      32.838 -20.451 -20.226  0.00  0.00    -0.000 C 
ATOM     17  C   UNL     1      34.983 -21.411 -19.668  0.00  0.00    -0.000 C 
ATOM     18  C   UNL     1      33.591 -21.431 -19.581  0.00  0.00    -0.000 C 
ENDBRANCH   4  13
TORSDOF 1
ENDMDL
MODEL 2
REMARK VINA RESULT:      -9.2      3.527      6.390
REMARK  Name = 68953
REMARK  1 active torsions:
REMARK  status: ('A' for Active; 'I' for Inactive)
REMARK    1  A    between atoms: C_4  and  C_13
REMARK                            x       y       z     vdW  Elec       q    Type
REMARK                         _______ _______ _______ _____ _____    ______ ____
ROOT
ATOM      1 BR   UNL     1      37.185 -22.593 -16.665  0.00  0.00    -0.049 Br
ATOM      2  O   UNL     1      37.657 -19.031 -21.157  0.00  0.00    -0.291 OA
ATOM      3  O   UNL     1      33.026 -19.963 -21.604  0.00  0.00    -0.291 OA
ATOM      4  C   UNL     1      35.332 -19.186 -21.937  0.00  0.00    +0.146 C 
ATOM      5  C   UNL     1      36.101 -20.396 -19.990  0.00  0.00    +0.039 C 
ATOM      6  C   UNL     1      34.742 -20.670 -20.121  0.00  0.00    +0.038 C 
ATOM      7  C   UNL     1      36.530 -19.474 -21.044  0.00  0.00    +0.184 C 
ATOM      8  C   UNL     1      34.195 -19.944 -21.269  0.00  0.00    +0.184 C 
ATOM      9  C   UNL     1      36.857 -20.949 -18.974  0.00  0.00    +0.010 C 
ATOM     10  C   UNL     1      34.082 -21.507 -19.244  0.00  0.00    +0.003 C 
ATOM     11  C   UNL     1      36.208 -21.802 -18.079  0.00  0.00    +0.035 C 
ATOM     12  C   UNL     1      34.833 -22.078 -18.211  0.00  0.00    +0.007 C 
ENDROOT
BRANCH   4  13
ATOM     13  C   UNL     1      35.050 -17.729 -22.035  0.00  0.00    -0.008 C 
ATOM     14  C   UNL     1      35.011 -17.104 -23.283  0.00  0.00    -0.003 C 
ATOM     15  C   UNL     1      34.819 -16.979 -20.878  0.00  0.00    -0.003 C 
ATOM     16  C   UNL     1      34.745 -15.737 -23.375  0.00  0.00    -0.000 C 
ATOM     17  C   UNL     1      34.553 -15.612 -20.971  0.00  0.00    -0.000 C 
ATOM     18  C   UNL     1      34.517 -14.991 -22.219  0.00  0.00    -0.000 C 
ENDBRANCH   4  13
TORSDOF 1
ENDMDL
MODEL 3
REMARK VINA RESULT:      -9.1      3.307      6.153
REMARK  Name = 68953
REMARK  1 active torsions:
REMARK  status: ('A' for Active; 'I' for Inactive)
REMARK    1  A    between atoms: C_4  and  C_13
REMARK                            x       y       z     vdW  Elec       q    Type
REMARK                         _______ _______ _______ _____ _____    ______ ____
ROOT
ATOM      1 BR   UNL     1      33.443 -23.537 -17.986  0.00  0.00    -0.049 Br
ATOM      2  O   UNL     1      32.524 -18.677 -20.924  0.00  0.00    -0.291 OA
ATOM      3  O   UNL     1      37.243 -18.797 -21.407  0.00  0.00    -0.291 OA
ATOM      4  C   UNL     1      34.872 -18.156 -21.426  0.00  0.00    +0.146 C 
ATOM      5  C   UNL     1      34.250 -20.130 -20.175  0.00  0.00    +0.039 C 
ATOM      6  C   UNL     1      35.634 -20.164 -20.317  0.00  0.00    +0.038 C 
ATOM      7  C   UNL     1      33.708 -18.949 -20.851  0.00  0.00    +0.184 C 
ATOM      8  C   UNL     1      36.087 -19.008 -21.094  0.00  0.00    +0.184 C 
ATOM      9  C   UNL     1      33.565 -21.115 -19.491  0.00  0.00    +0.010 C 
ATOM     10  C   UNL     1      36.393 -21.185 -19.779  0.00  0.00    +0.003 C 
ATOM     11  C   UNL     1      34.317 -22.155 -18.937  0.00  0.00    +0.035 C 
ATOM     12  C   UNL     1      35.718 -22.190 -19.080  0.00  0.00    +0.007 C 
ENDROOT
BRANCH   4  13
ATOM     13  C   UNL     1      34.727 -17.937 -22.890  0.00  0.00    -0.008 C 
ATOM     14  C   UNL     1      34.609 -19.027 -23.755  0.00  0.00    -0.003 C 
ATOM     15  C   UNL     1      34.706 -16.638 -23.407  0.00  0.00    -0.003 C 
ATOM     16  C   UNL     1      34.473 -18.821 -25.128  0.00  0.00    -0.000 C 
ATOM     17  C   UNL     1      34.570 -16.433 -24.780  0.00  0.00    -0.000 C 
ATOM     18  C   UNL     1      34.453 -17.525 -25.641  0.00  0.00    -0.000 C 
ENDBRANCH   4  13
TORSDOF 1
ENDMDL
MODEL 4
REMARK VINA RESULT:      -9.1      8.489     10.678
REMARK  Name = 68953
REMARK  1 active torsions:
REMARK  status: ('A' for Active; 'I' for Inactive)
REMARK    1  A    between atoms: C_4  and  C_13
REMARK                            x       y       z     vdW  Elec       q    Type
REMARK                         _______ _______ _______ _____ _____    ______ ____
ROOT
ATOM      1 BR   UNL     1      33.443  -4.712 -27.440  0.00  0.00    -0.049 Br
ATOM      2  O   UNL     1      34.555  -8.448 -23.210  0.00  0.00    -0.291 OA
ATOM      3  O   UNL     1      31.109  -6.042 -21.007  0.00  0.00    -0.291 OA
ATOM      4  C   UNL     1      32.955  -7.563 -21.569  0.00  0.00    +0.146 C 
ATOM      5  C   UNL     1      33.191  -6.583 -23.767  0.00  0.00    +0.039 C 
ATOM      6  C   UNL     1      32.181  -5.878 -23.121  0.00  0.00    +0.038 C 
ATOM      7  C   UNL     1      33.694  -7.648 -22.896  0.00  0.00    +0.184 C 
ATOM      8  C   UNL     1      31.957  -6.435 -21.785  0.00  0.00    +0.184 C 
ATOM      9  C   UNL     1      33.591  -6.266 -25.051  0.00  0.00    +0.010 C 
ATOM     10  C   UNL     1      31.527  -4.824 -23.729  0.00  0.00    +0.003 C 
ATOM     11  C   UNL     1      32.944  -5.201 -25.682  0.00  0.00    +0.035 C 
ATOM     12  C   UNL     1      31.920  -4.487 -25.028  0.00  0.00    +0.007 C 
ENDROOT
BRANCH   4  13
ATOM     13  C   UNL     1      32.282  -8.843 -21.224  0.00  0.00    -0.008 C 
ATOM     14  C   UNL     1      31.769  -9.662 -22.233  0.00  0.00    -0.003 C 
ATOM     15  C   UNL     1      32.162  -9.235 -19.888  0.00  0.00    -0.003 C 
ATOM     16  C   UNL     1      31.139 -10.864 -21.908  0.00  0.00    -0.000 C 
ATOM     17  C   UNL     1      31.532 -10.437 -19.563  0.00  0.00    -0.000 C 
ATOM     18  C   UNL     1      31.020 -11.251 -20.574  0.00  0.00    -0.000 C 
ENDBRANCH   4  13
TORSDOF 1
ENDMDL
MODEL 5
REMARK VINA RESULT:      -8.6      2.833      4.618
REMARK  Name = 68953
REMARK  1 active torsions:
REMARK  status: ('A' for Active; 'I' for Inactive)
REMARK    1  A    between atoms: C_4  and  C_13
REMARK                            x       y       z     vdW  Elec       q    Type
REMARK                         _______ _______ _______ _____ _____    ______ ____
ROOT
ATOM      1 BR   UNL     1      33.817 -15.970 -22.195  0.00  0.00    -0.049 Br
ATOM      2  O   UNL     1      32.491 -20.928 -19.595  0.00  0.00    -0.291 OA
ATOM      3  O   UNL     1      37.129 -21.758 -20.159  0.00  0.00    -0.291 OA
ATOM      4  C   UNL     1      34.727 -21.942 -19.676  0.00  0.00    +0.146 C 
ATOM      5  C   UNL     1      34.302 -19.735 -20.567  0.00  0.00    +0.039 C 
ATOM      6  C   UNL     1      35.662 -19.979 -20.733  0.00  0.00    +0.038 C 
ATOM      7  C   UNL     1      33.667 -20.875 -19.902  0.00  0.00    +0.184 C 
ATOM      8  C   UNL     1      36.005 -21.294 -20.187  0.00  0.00    +0.184 C 
ATOM      9  C   UNL     1      33.720 -18.555 -20.988  0.00  0.00    +0.010 C 
ATOM     10  C   UNL     1      36.499 -19.054 -21.326  0.00  0.00    +0.003 C 
ATOM     11  C   UNL     1      34.550 -17.608 -21.594  0.00  0.00    +0.035 C 
ATOM     12  C   UNL     1      35.927 -17.855 -21.761  0.00  0.00    +0.007 C 
ENDROOT
BRANCH   4  13
ATOM     13  C   UNL     1      34.831 -22.328 -18.244  0.00  0.00    -0.008 C 
ATOM     14  C   UNL     1      35.985 -22.025 -17.516  0.00  0.00    -0.003 C 
ATOM     15  C   UNL     1      33.774 -22.994 -17.617  0.00  0.00    -0.003 C 
ATOM     16  C   UNL     1      36.082 -22.386 -16.172  0.00  0.00    -0.000 C 
ATOM     17  C   UNL     1      33.872 -23.356 -16.273  0.00  0.00    -0.000 C 
ATOM     18  C   UNL     1      35.026 -23.052 -15.551  0.00  0.00    -0.000 C 
ENDBRANCH   4  13
TORSDOF 1
ENDMDL
MODEL 6
REMARK VINA RESULT:      -8.6      8.896     10.399
REMARK  Name = 68953
REMARK  1 active torsions:
REMARK  status: ('A' for Active; 'I' for Inactive)
REMARK    1  A    between atoms: C_4  and  C_13
REMARK                            x       y       z     vdW  Elec       q    Type
REMARK                         _______ _______ _______ _____ _____    ______ ____
ROOT
ATOM      1 BR   UNL     1      28.868 -23.765 -16.748  0.00  0.00    -0.049 Br
ATOM      2  O   UNL     1      34.575 -23.089 -17.022  0.00  0.00    -0.291 OA
ATOM      3  O   UNL     1      34.288 -23.961 -12.367  0.00  0.00    -0.291 OA
ATOM      4  C   UNL     1      35.049 -23.381 -14.629  0.00  0.00    +0.146 C 
ATOM      5  C   UNL     1      32.799 -23.522 -15.503  0.00  0.00    +0.039 C 
ATOM      6  C   UNL     1      32.715 -23.777 -14.137  0.00  0.00    +0.038 C 
ATOM      7  C   UNL     1      34.195 -23.299 -15.885  0.00  0.00    +0.184 C 
ATOM      8  C   UNL     1      34.051 -23.738 -13.538  0.00  0.00    +0.184 C 
ATOM      9  C   UNL     1      31.678 -23.512 -16.310  0.00  0.00    +0.010 C 
ATOM     10  C   UNL     1      31.507 -24.033 -13.519  0.00  0.00    +0.003 C 
ATOM     11  C   UNL     1      30.445 -23.764 -15.702  0.00  0.00    +0.035 C 
ATOM     12  C   UNL     1      30.360 -24.023 -14.320  0.00  0.00    +0.007 C 
ENDROOT
BRANCH   4  13
ATOM     13  C   UNL     1      36.127 -24.398 -14.754  0.00  0.00    -0.008 C 
ATOM     14  C   UNL     1      37.462 -24.032 -14.572  0.00  0.00    -0.003 C 
ATOM     15  C   UNL     1      35.808 -25.726 -15.053  0.00  0.00    -0.003 C 
ATOM     16  C   UNL     1      38.473 -24.987 -14.688  0.00  0.00    -0.000 C 
ATOM     17  C   UNL     1      36.819 -26.680 -15.170  0.00  0.00    -0.000 C 
ATOM     18  C   UNL     1      38.152 -26.310 -14.988  0.00  0.00    -0.000 C 
ENDBRANCH   4  13
TORSDOF 1
ENDMDL
MODEL 7
REMARK VINA RESULT:      -8.6      3.609      7.269
REMARK  Name = 68953
REMARK  1 active torsions:
REMARK  status: ('A' for Active; 'I' for Inactive)
REMARK    1  A    between atoms: C_4  and  C_13
REMARK                            x       y       z     vdW  Elec       q    Type
REMARK                         _______ _______ _______ _____ _____    ______ ____
ROOT
ATOM      1 BR   UNL     1      35.937 -18.363 -22.752  0.00  0.00    -0.049 Br
ATOM      2  O   UNL     1      33.068 -13.918 -25.011  0.00  0.00    -0.291 OA
ATOM      3  O   UNL     1      32.305 -12.877 -20.445  0.00  0.00    -0.291 OA
ATOM      4  C   UNL     1      32.283 -12.935 -22.901  0.00  0.00    +0.146 C 
ATOM      5  C   UNL     1      33.650 -14.929 -22.940  0.00  0.00    +0.039 C 
ATOM      6  C   UNL     1      33.426 -14.623 -21.601  0.00  0.00    +0.038 C 
ATOM      7  C   UNL     1      33.009 -13.928 -23.796  0.00  0.00    +0.184 C 
ATOM      8  C   UNL     1      32.624 -13.403 -21.494  0.00  0.00    +0.184 C 
ATOM      9  C   UNL     1      34.392 -16.031 -23.319  0.00  0.00    +0.010 C 
ATOM     10  C   UNL     1      33.934 -15.406 -20.583  0.00  0.00    +0.003 C 
ATOM     11  C   UNL     1      34.912 -16.837 -22.303  0.00  0.00    +0.035 C 
ATOM     12  C   UNL     1      34.685 -16.528 -20.947  0.00  0.00    +0.007 C 
ENDROOT
BRANCH   4  13
ATOM     13  C   UNL     1      32.726 -11.537 -23.146  0.00  0.00    -0.008 C 
ATOM     14  C   UNL     1      33.899 -11.287 -23.863  0.00  0.00    -0.003 C 
ATOM     15  C   UNL     1      31.970 -10.465 -22.662  0.00  0.00    -0.003 C 
ATOM     16  C   UNL     1      34.314  -9.975 -24.093  0.00  0.00    -0.000 C 
ATOM     17  C   UNL     1      32.385  -9.153 -22.893  0.00  0.00    -0.000 C 
ATOM     18  C   UNL     1      33.558  -8.908 -23.608  0.00  0.00    -0.000 C 
ENDBRANCH   4  13
TORSDOF 1
ENDMDL
