MODEL 1
REMARK VINA RESULT:      -5.6      0.000      0.000
REMARK  Name = 656604
REMARK  7 active torsions:
REMARK  status: ('A' for Active; 'I' for Inactive)
REMARK    1  A    between atoms: N_2  and  CA_10
REMARK    2  A    between atoms: C_3  and  C_5
REMARK    3  A    between atoms: C_5  and  S_8
REMARK    4  A    between atoms: CA_10  and  C_12
REMARK    5  A    between atoms: CA_10  and  CB_15
REMARK    6  A    between atoms: C_12  and  O_13
REMARK    7  A    between atoms: CB_15  and  SG_16
REMARK                            x       y       z     vdW  Elec       q    Type
REMARK                         _______ _______ _______ _____ _____    ______ ____
ROOT
ATOM      1  O   UNL     1      35.315 -16.732 -20.291  0.00  0.00    -0.274 OA
ATOM      2  N   UNL     1      34.188 -16.550 -22.298  0.00  0.00    -0.295 N 
ATOM      3  C   ACE A   0      34.844 -17.256 -21.300  0.00  0.00    +0.231 C 
ATOM      4  H   UNL     1      33.838 -17.045 -23.075  0.00  0.00    +0.150 HD
ENDROOT
BRANCH   3   5
ATOM      5  C   UNL     1      34.940 -18.771 -21.556  0.00  0.00    +0.104 C 
ATOM      6  C   UNL     1      33.722 -19.490 -20.960  0.00  0.00    +0.020 C 
ATOM      7  C   UNL     1      36.223 -19.365 -20.963  0.00  0.00    +0.020 C 
BRANCH   5   8
ATOM      8  S   UNL     1      34.916 -19.038 -23.372  0.00  0.00    -0.161 S 
ATOM      9  H   UNL     1      34.627 -17.866 -23.999  0.00  0.00    +0.103 HD
ENDBRANCH   5   8
ENDBRANCH   3   5
BRANCH   2  10
ATOM     10  CA  UNL     1      33.993 -15.120 -22.243  0.00  0.00    +0.182 C 
BRANCH  10  12
ATOM     11  OXT UNL     1      32.335 -15.192 -20.476  0.00  0.00    -0.248 OA
ATOM     12  C   UNL     1      32.685 -14.751 -21.564  0.00  0.00    +0.333 C 
BRANCH  12  13
ATOM     13  O   UNL     1      31.930 -13.891 -22.287  0.00  0.00    -0.479 OA
ATOM     14  H   UNL     1      31.138 -14.189 -22.691  0.00  0.00    +0.295 HD
ENDBRANCH  12  13
ENDBRANCH  10  12
BRANCH  10  15
ATOM     15  CB  UNL     1      34.139 -14.470 -23.621  0.00  0.00    +0.084 C 
BRANCH  15  16
ATOM     16  SG  UNL     1      33.768 -15.595 -25.008  0.00  0.00    -0.166 S 
ATOM     17  HG  UNL     1      34.930 -16.077 -25.523  0.00  0.00    +0.102 HD
ENDBRANCH  15  16
ENDBRANCH  10  15
ENDBRANCH   2  10
TORSDOF 7
ENDMDL
MODEL 2
REMARK VINA RESULT:      -5.2     10.455     11.813
REMARK  Name = 656604
REMARK  7 active torsions:
REMARK  status: ('A' for Active; 'I' for Inactive)
REMARK    1  A    between atoms: N_2  and  CA_10
REMARK    2  A    between atoms: C_3  and  C_5
REMARK    3  A    between atoms: C_5  and  S_8
REMARK    4  A    between atoms: CA_10  and  C_12
REMARK    5  A    between atoms: CA_10  and  CB_15
REMARK    6  A    between atoms: C_12  and  O_13
REMARK    7  A    between atoms: CB_15  and  SG_16
REMARK                            x       y       z     vdW  Elec       q    Type
REMARK                         _______ _______ _______ _____ _____    ______ ____
ROOT
ATOM      1  O   UNL     1      32.305 -25.135 -13.276  0.00  0.00    -0.274 OA
ATOM      2  N   UNL     1      33.898 -24.290 -14.718  0.00  0.00    -0.295 N 
ATOM      3  C   ACE A   0      32.599 -24.456 -14.259  0.00  0.00    +0.231 C 
ATOM      4  H   UNL     1      34.050 -23.729 -15.513  0.00  0.00    +0.150 HD
ENDROOT
BRANCH   3   5
ATOM      5  C   UNL     1      31.536 -23.713 -15.088  0.00  0.00    +0.104 C 
ATOM      6  C   UNL     1      32.106 -23.325 -16.460  0.00  0.00    +0.020 C 
ATOM      7  C   UNL     1      31.036 -22.455 -14.369  0.00  0.00    +0.020 C 
BRANCH   5   8
ATOM      8  S   UNL     1      30.135 -24.864 -15.370  0.00  0.00    -0.161 S 
ATOM      9  H   UNL     1      30.376 -26.038 -14.726  0.00  0.00    +0.103 HD
ENDBRANCH   5   8
ENDBRANCH   3   5
BRANCH   2  10
ATOM     10  CA  UNL     1      35.036 -24.906 -14.076  0.00  0.00    +0.182 C 
BRANCH  10  12
ATOM     11  OXT UNL     1      36.004 -23.238 -12.607  0.00  0.00    -0.248 OA
ATOM     12  C   UNL     1      35.347 -24.264 -12.734  0.00  0.00    +0.333 C 
BRANCH  12  13
ATOM     13  O   UNL     1      34.836 -24.946 -11.682  0.00  0.00    -0.479 OA
ATOM     14  H   UNL     1      35.160 -25.802 -11.477  0.00  0.00    +0.295 HD
ENDBRANCH  12  13
ENDBRANCH  10  12
BRANCH  10  15
ATOM     15  CB  UNL     1      36.258 -24.951 -14.997  0.00  0.00    +0.084 C 
BRANCH  15  16
ATOM     16  SG  UNL     1      37.251 -26.471 -14.826  0.00  0.00    -0.166 S 
ATOM     17  HG  UNL     1      38.035 -26.377 -13.718  0.00  0.00    +0.102 HD
ENDBRANCH  15  16
ENDBRANCH  10  15
ENDBRANCH   2  10
TORSDOF 7
ENDMDL
MODEL 3
REMARK VINA RESULT:      -5.2     10.253     11.080
REMARK  Name = 656604
REMARK  7 active torsions:
REMARK  status: ('A' for Active; 'I' for Inactive)
REMARK    1  A    between atoms: N_2  and  CA_10
REMARK    2  A    between atoms: C_3  and  C_5
REMARK    3  A    between atoms: C_5  and  S_8
REMARK    4  A    between atoms: CA_10  and  C_12
REMARK    5  A    between atoms: CA_10  and  CB_15
REMARK    6  A    between atoms: C_12  and  O_13
REMARK    7  A    between atoms: CB_15  and  SG_16
REMARK                            x       y       z     vdW  Elec       q    Type
REMARK                         _______ _______ _______ _____ _____    ______ ____
ROOT
ATOM      1  O   UNL     1      33.431 -23.868 -12.815  0.00  0.00    -0.274 OA
ATOM      2  N   UNL     1      32.780 -23.720 -15.025  0.00  0.00    -0.295 N 
ATOM      3  C   ACE A   0      33.719 -23.839 -14.011  0.00  0.00    +0.231 C 
ATOM      4  H   UNL     1      33.092 -23.706 -15.960  0.00  0.00    +0.150 HD
ENDROOT
BRANCH   3   5
ATOM      5  C   UNL     1      35.173 -23.936 -14.505  0.00  0.00    +0.104 C 
ATOM      6  C   UNL     1      35.432 -22.900 -15.609  0.00  0.00    +0.020 C 
ATOM      7  C   UNL     1      35.499 -25.337 -15.034  0.00  0.00    +0.020 C 
BRANCH   5   8
ATOM      8  S   UNL     1      36.275 -23.535 -13.093  0.00  0.00    -0.161 S 
ATOM      9  H   UNL     1      37.564 -23.478 -13.526  0.00  0.00    +0.103 HD
ENDBRANCH   5   8
ENDBRANCH   3   5
BRANCH   2  10
ATOM     10  CA  UNL     1      31.362 -23.618 -14.768  0.00  0.00    +0.182 C 
BRANCH  10  12
ATOM     11  OXT UNL     1      30.441 -25.851 -14.974  0.00  0.00    -0.248 OA
ATOM     12  C   UNL     1      30.784 -24.924 -14.249  0.00  0.00    +0.333 C 
BRANCH  12  13
ATOM     13  O   UNL     1      30.668 -24.961 -12.901  0.00  0.00    -0.479 OA
ATOM     14  H   UNL     1      30.708 -25.782 -12.450  0.00  0.00    +0.295 HD
ENDBRANCH  12  13
ENDBRANCH  10  12
BRANCH  10  15
ATOM     15  CB  UNL     1      30.597 -23.082 -15.981  0.00  0.00    +0.084 C 
BRANCH  15  16
ATOM     16  SG  UNL     1      28.847 -22.702 -15.636  0.00  0.00    -0.166 S 
ATOM     17  HG  UNL     1      28.767 -21.553 -14.912  0.00  0.00    +0.102 HD
ENDBRANCH  15  16
ENDBRANCH  10  15
ENDBRANCH   2  10
TORSDOF 7
ENDMDL
MODEL 4
REMARK VINA RESULT:      -5.1      3.040      4.605
REMARK  Name = 656604
REMARK  7 active torsions:
REMARK  status: ('A' for Active; 'I' for Inactive)
REMARK    1  A    between atoms: N_2  and  CA_10
REMARK    2  A    between atoms: C_3  and  C_5
REMARK    3  A    between atoms: C_5  and  S_8
REMARK    4  A    between atoms: CA_10  and  C_12
REMARK    5  A    between atoms: CA_10  and  CB_15
REMARK    6  A    between atoms: C_12  and  O_13
REMARK    7  A    between atoms: CB_15  and  SG_16
REMARK                            x       y       z     vdW  Elec       q    Type
REMARK                         _______ _______ _______ _____ _____    ______ ____
ROOT
ATOM      1  O   UNL     1      34.961 -14.947 -23.480  0.00  0.00    -0.274 OA
ATOM      2  N   UNL     1      34.292 -17.032 -22.750  0.00  0.00    -0.295 N 
ATOM      3  C   ACE A   0      34.318 -15.646 -22.698  0.00  0.00    +0.231 C 
ATOM      4  H   UNL     1      33.751 -17.520 -22.087  0.00  0.00    +0.150 HD
ENDROOT
BRANCH   3   5
ATOM      5  C   UNL     1      33.468 -15.040 -21.567  0.00  0.00    +0.104 C 
ATOM      6  C   UNL     1      34.369 -14.545 -20.428  0.00  0.00    +0.020 C 
ATOM      7  C   UNL     1      32.458 -16.052 -21.015  0.00  0.00    +0.020 C 
BRANCH   5   8
ATOM      8  S   UNL     1      32.578 -13.587 -22.249  0.00  0.00    -0.161 S 
ATOM      9  H   UNL     1      33.416 -12.516 -22.279  0.00  0.00    +0.103 HD
ENDBRANCH   5   8
ENDBRANCH   3   5
BRANCH   2  10
ATOM     10  CA  UNL     1      35.024 -17.790 -23.739  0.00  0.00    +0.182 C 
BRANCH  10  12
ATOM     11  OXT UNL     1      33.556 -18.449 -25.552  0.00  0.00    -0.248 OA
ATOM     12  C   UNL     1      34.400 -17.673 -25.119  0.00  0.00    +0.333 C 
BRANCH  12  13
ATOM     13  O   UNL     1      34.879 -16.631 -25.838  0.00  0.00    -0.479 OA
ATOM     14  H   UNL     1      35.804 -16.508 -25.926  0.00  0.00    +0.295 HD
ENDBRANCH  12  13
ENDBRANCH  10  12
BRANCH  10  15
ATOM     15  CB  UNL     1      35.225 -19.246 -23.311  0.00  0.00    +0.084 C 
BRANCH  15  16
ATOM     16  SG  UNL     1      34.837 -19.556 -21.556  0.00  0.00    -0.166 S 
ATOM     17  HG  UNL     1      34.012 -18.578 -21.094  0.00  0.00    +0.102 HD
ENDBRANCH  15  16
ENDBRANCH  10  15
ENDBRANCH   2  10
TORSDOF 7
ENDMDL
MODEL 5
REMARK VINA RESULT:      -5.1      8.903     10.011
REMARK  Name = 656604
REMARK  7 active torsions:
REMARK  status: ('A' for Active; 'I' for Inactive)
REMARK    1  A    between atoms: N_2  and  CA_10
REMARK    2  A    between atoms: C_3  and  C_5
REMARK    3  A    between atoms: C_5  and  S_8
REMARK    4  A    between atoms: CA_10  and  C_12
REMARK    5  A    between atoms: CA_10  and  CB_15
REMARK    6  A    between atoms: C_12  and  O_13
REMARK    7  A    between atoms: CB_15  and  SG_16
REMARK                            x       y       z     vdW  Elec       q    Type
REMARK                         _______ _______ _______ _____ _____    ______ ____
ROOT
ATOM      1  O   UNL     1      35.449 -25.544 -15.453  0.00  0.00    -0.274 OA
ATOM      2  N   UNL     1      34.815 -23.351 -15.794  0.00  0.00    -0.295 N 
ATOM      3  C   ACE A   0      35.702 -24.342 -15.399  0.00  0.00    +0.231 C 
ATOM      4  H   UNL     1      35.095 -22.409 -15.721  0.00  0.00    +0.150 HD
ENDROOT
BRANCH   3   5
ATOM      5  C   UNL     1      37.051 -23.812 -14.880  0.00  0.00    +0.104 C 
ATOM      6  C   UNL     1      36.880 -23.193 -13.486  0.00  0.00    +0.020 C 
ATOM      7  C   UNL     1      37.653 -22.771 -15.830  0.00  0.00    +0.020 C 
BRANCH   5   8
ATOM      8  S   UNL     1      38.193 -25.240 -14.722  0.00  0.00    -0.161 S 
ATOM      9  H   UNL     1      38.289 -25.879 -15.919  0.00  0.00    +0.103 HD
ENDBRANCH   5   8
ENDBRANCH   3   5
BRANCH   2  10
ATOM     10  CA  UNL     1      33.498 -23.644 -16.311  0.00  0.00    +0.182 C 
BRANCH  10  12
ATOM     11  OXT UNL     1      32.233 -22.486 -18.025  0.00  0.00    -0.248 OA
ATOM     12  C   UNL     1      33.277 -23.028 -17.683  0.00  0.00    +0.333 C 
BRANCH  12  13
ATOM     13  O   UNL     1      34.347 -23.149 -18.503  0.00  0.00    -0.479 OA
ATOM     14  H   UNL     1      34.446 -23.915 -19.035  0.00  0.00    +0.295 HD
ENDBRANCH  12  13
ENDBRANCH  10  12
BRANCH  10  15
ATOM     15  CB  UNL     1      32.396 -23.266 -15.318  0.00  0.00    +0.084 C 
BRANCH  15  16
ATOM     16  SG  UNL     1      32.038 -24.565 -14.089  0.00  0.00    -0.166 S 
ATOM     17  HG  UNL     1      30.697 -24.793 -14.049  0.00  0.00    +0.102 HD
ENDBRANCH  15  16
ENDBRANCH  10  15
ENDBRANCH   2  10
TORSDOF 7
ENDMDL
MODEL 6
REMARK VINA RESULT:      -5.1      9.594     11.132
REMARK  Name = 656604
REMARK  7 active torsions:
REMARK  status: ('A' for Active; 'I' for Inactive)
REMARK    1  A    between atoms: N_2  and  CA_10
REMARK    2  A    between atoms: C_3  and  C_5
REMARK    3  A    between atoms: C_5  and  S_8
REMARK    4  A    between atoms: CA_10  and  C_12
REMARK    5  A    between atoms: CA_10  and  CB_15
REMARK    6  A    between atoms: C_12  and  O_13
REMARK    7  A    between atoms: CB_15  and  SG_16
REMARK                            x       y       z     vdW  Elec       q    Type
REMARK                         _______ _______ _______ _____ _____    ______ ____
ROOT
ATOM      1  O   UNL     1      33.325 -23.199 -16.742  0.00  0.00    -0.274 OA
ATOM      2  N   UNL     1      34.107 -24.262 -14.848  0.00  0.00    -0.295 N 
ATOM      3  C   ACE A   0      33.122 -23.667 -15.623  0.00  0.00    +0.231 C 
ATOM      4  H   UNL     1      33.862 -24.613 -13.961  0.00  0.00    +0.150 HD
ENDROOT
BRANCH   3   5
ATOM      5  C   UNL     1      31.731 -23.637 -14.964  0.00  0.00    +0.104 C 
ATOM      6  C   UNL     1      30.634 -23.792 -16.026  0.00  0.00    +0.020 C 
ATOM      7  C   UNL     1      31.503 -22.339 -14.181  0.00  0.00    +0.020 C 
BRANCH   5   8
ATOM      8  S   UNL     1      31.616 -25.074 -13.827  0.00  0.00    -0.161 S 
ATOM      9  H   UNL     1      30.428 -25.033 -13.164  0.00  0.00    +0.103 HD
ENDBRANCH   5   8
ENDBRANCH   3   5
BRANCH   2  10
ATOM     10  CA  UNL     1      35.476 -24.388 -15.289  0.00  0.00    +0.182 C 
BRANCH  10  12
ATOM     11  OXT UNL     1      36.211 -26.641 -15.800  0.00  0.00    -0.248 OA
ATOM     12  C   UNL     1      36.052 -25.756 -14.967  0.00  0.00    +0.333 C 
BRANCH  12  13
ATOM     13  O   UNL     1      36.362 -25.913 -13.659  0.00  0.00    -0.479 OA
ATOM     14  H   UNL     1      37.254 -26.045 -13.400  0.00  0.00    +0.295 HD
ENDBRANCH  12  13
ENDBRANCH  10  12
BRANCH  10  15
ATOM     15  CB  UNL     1      36.354 -23.248 -14.766  0.00  0.00    +0.084 C 
BRANCH  15  16
ATOM     16  SG  UNL     1      37.200 -22.309 -16.082  0.00  0.00    -0.166 S 
ATOM     17  HG  UNL     1      38.502 -22.695 -16.147  0.00  0.00    +0.102 HD
ENDBRANCH  15  16
ENDBRANCH  10  15
ENDBRANCH   2  10
TORSDOF 7
ENDMDL
MODEL 7
REMARK VINA RESULT:      -5.1      9.447     10.935
REMARK  Name = 656604
REMARK  7 active torsions:
REMARK  status: ('A' for Active; 'I' for Inactive)
REMARK    1  A    between atoms: N_2  and  CA_10
REMARK    2  A    between atoms: C_3  and  C_5
REMARK    3  A    between atoms: C_5  and  S_8
REMARK    4  A    between atoms: CA_10  and  C_12
REMARK    5  A    between atoms: CA_10  and  CB_15
REMARK    6  A    between atoms: C_12  and  O_13
REMARK    7  A    between atoms: CB_15  and  SG_16
REMARK                            x       y       z     vdW  Elec       q    Type
REMARK                         _______ _______ _______ _____ _____    ______ ____
ROOT
ATOM      1  O   UNL     1      35.831 -26.161 -15.544  0.00  0.00    -0.274 OA
ATOM      2  N   UNL     1      35.148 -24.100 -14.760  0.00  0.00    -0.295 N 
ATOM      3  C   ACE A   0      36.008 -25.187 -14.814  0.00  0.00    +0.231 C 
ATOM      4  H   UNL     1      35.362 -23.358 -14.149  0.00  0.00    +0.150 HD
ENDROOT
BRANCH   3   5
ATOM      5  C   UNL     1      37.223 -25.078 -13.875  0.00  0.00    +0.104 C 
ATOM      6  C   UNL     1      38.526 -25.078 -14.687  0.00  0.00    +0.020 C 
ATOM      7  C   UNL     1      37.256 -26.224 -12.858  0.00  0.00    +0.020 C 
BRANCH   5   8
ATOM      8  S   UNL     1      37.113 -23.471 -12.995  0.00  0.00    -0.161 S 
ATOM      9  H   UNL     1      36.799 -22.489 -13.882  0.00  0.00    +0.103 HD
ENDBRANCH   5   8
ENDBRANCH   3   5
BRANCH   2  10
ATOM     10  CA  UNL     1      33.952 -24.011 -15.565  0.00  0.00    +0.182 C 
BRANCH  10  12
ATOM     11  OXT UNL     1      35.272 -22.771 -17.177  0.00  0.00    -0.248 OA
ATOM     12  C   UNL     1      34.177 -23.196 -16.828  0.00  0.00    +0.333 C 
BRANCH  12  13
ATOM     13  O   UNL     1      33.041 -22.970 -17.529  0.00  0.00    -0.479 OA
ATOM     14  H   UNL     1      32.805 -23.539 -18.236  0.00  0.00    +0.295 HD
ENDBRANCH  12  13
ENDBRANCH  10  12
BRANCH  10  15
ATOM     15  CB  UNL     1      32.753 -23.512 -14.756  0.00  0.00    +0.084 C 
BRANCH  15  16
ATOM     16  SG  UNL     1      31.858 -24.837 -13.876  0.00  0.00    -0.166 S 
ATOM     17  HG  UNL     1      30.905 -25.360 -14.693  0.00  0.00    +0.102 HD
ENDBRANCH  15  16
ENDBRANCH  10  15
ENDBRANCH   2  10
TORSDOF 7
ENDMDL
MODEL 8
REMARK VINA RESULT:      -5.0      9.656     11.231
REMARK  Name = 656604
REMARK  7 active torsions:
REMARK  status: ('A' for Active; 'I' for Inactive)
REMARK    1  A    between atoms: N_2  and  CA_10
REMARK    2  A    between atoms: C_3  and  C_5
REMARK    3  A    between atoms: C_5  and  S_8
REMARK    4  A    between atoms: CA_10  and  C_12
REMARK    5  A    between atoms: CA_10  and  CB_15
REMARK    6  A    between atoms: C_12  and  O_13
REMARK    7  A    between atoms: CB_15  and  SG_16
REMARK                            x       y       z     vdW  Elec       q    Type
REMARK                         _______ _______ _______ _____ _____    ______ ____
ROOT
ATOM      1  O   UNL     1      33.812 -24.374 -12.843  0.00  0.00    -0.274 OA
ATOM      2  N   UNL     1      34.469 -24.075 -15.035  0.00  0.00    -0.295 N 
ATOM      3  C   ACE A   0      33.528 -24.146 -14.018  0.00  0.00    +0.231 C 
ATOM      4  H   UNL     1      34.160 -23.886 -15.952  0.00  0.00    +0.150 HD
ENDROOT
BRANCH   3   5
ATOM      5  C   UNL     1      32.079 -23.912 -14.479  0.00  0.00    +0.104 C 
ATOM      6  C   UNL     1      31.459 -22.735 -13.713  0.00  0.00    +0.020 C 
ATOM      7  C   UNL     1      31.214 -25.162 -14.281  0.00  0.00    +0.020 C 
BRANCH   5   8
ATOM      8  S   UNL     1      32.119 -23.463 -16.258  0.00  0.00    -0.161 S 
ATOM      9  H   UNL     1      30.868 -23.122 -16.669  0.00  0.00    +0.103 HD
ENDBRANCH   5   8
ENDBRANCH   3   5
BRANCH   2  10
ATOM     10  CA  UNL     1      35.882 -24.264 -14.806  0.00  0.00    +0.182 C 
BRANCH  10  12
ATOM     11  OXT UNL     1      37.880 -23.012 -15.370  0.00  0.00    -0.248 OA
ATOM     12  C   UNL     1      36.725 -23.317 -15.643  0.00  0.00    +0.333 C 
BRANCH  12  13
ATOM     13  O   UNL     1      36.068 -22.825 -16.720  0.00  0.00    -0.479 OA
ATOM     14  H   UNL     1      35.405 -22.172 -16.607  0.00  0.00    +0.295 HD
ENDBRANCH  12  13
ENDBRANCH  10  12
BRANCH  10  15
ATOM     15  CB  UNL     1      36.300 -25.726 -14.983  0.00  0.00    +0.084 C 
BRANCH  15  16
ATOM     16  SG  UNL     1      37.302 -26.375 -13.603  0.00  0.00    -0.166 S 
ATOM     17  HG  UNL     1      38.305 -25.501 -13.322  0.00  0.00    +0.102 HD
ENDBRANCH  15  16
ENDBRANCH  10  15
ENDBRANCH   2  10
TORSDOF 7
ENDMDL
MODEL 9
REMARK VINA RESULT:      -5.0      2.842      3.470
REMARK  Name = 656604
REMARK  7 active torsions:
REMARK  status: ('A' for Active; 'I' for Inactive)
REMARK    1  A    between atoms: N_2  and  CA_10
REMARK    2  A    between atoms: C_3  and  C_5
REMARK    3  A    between atoms: C_5  and  S_8
REMARK    4  A    between atoms: CA_10  and  C_12
REMARK    5  A    between atoms: CA_10  and  CB_15
REMARK    6  A    between atoms: C_12  and  O_13
REMARK    7  A    between atoms: CB_15  and  SG_16
REMARK                            x       y       z     vdW  Elec       q    Type
REMARK                         _______ _______ _______ _____ _____    ______ ____
ROOT
ATOM      1  O   UNL     1      35.241 -15.693 -23.455  0.00  0.00    -0.274 OA
ATOM      2  N   UNL     1      33.600 -14.119 -23.053  0.00  0.00    -0.295 N 
ATOM      3  C   ACE A   0      34.357 -15.237 -22.731  0.00  0.00    +0.231 C 
ATOM      4  H   UNL     1      32.911 -13.817 -22.417  0.00  0.00    +0.150 HD
ENDROOT
BRANCH   3   5
ATOM      5  C   UNL     1      34.000 -15.873 -21.376  0.00  0.00    +0.104 C 
ATOM      6  C   UNL     1      32.492 -15.755 -21.112  0.00  0.00    +0.020 C 
ATOM      7  C   UNL     1      34.772 -15.221 -20.224  0.00  0.00    +0.020 C 
BRANCH   5   8
ATOM      8  S   UNL     1      34.413 -17.659 -21.466  0.00  0.00    -0.161 S 
ATOM      9  H   UNL     1      35.704 -17.846 -21.076  0.00  0.00    +0.103 HD
ENDBRANCH   5   8
ENDBRANCH   3   5
BRANCH   2  10
ATOM     10  CA  UNL     1      33.783 -13.380 -24.280  0.00  0.00    +0.182 C 
BRANCH  10  12
ATOM     11  OXT UNL     1      32.838 -11.325 -23.409  0.00  0.00    -0.248 OA
ATOM     12  C   UNL     1      33.720 -11.879 -24.053  0.00  0.00    +0.333 C 
BRANCH  12  13
ATOM     13  O   UNL     1      34.732 -11.205 -24.648  0.00  0.00    -0.479 OA
ATOM     14  H   UNL     1      35.303 -10.667 -24.134  0.00  0.00    +0.295 HD
ENDBRANCH  12  13
ENDBRANCH  10  12
BRANCH  10  15
ATOM     15  CB  UNL     1      32.822 -13.845 -25.377  0.00  0.00    +0.084 C 
BRANCH  15  16
ATOM     16  SG  UNL     1      33.331 -13.352 -27.058  0.00  0.00    -0.166 S 
ATOM     17  HG  UNL     1      32.815 -14.226 -27.962  0.00  0.00    +0.102 HD
ENDBRANCH  15  16
ENDBRANCH  10  15
ENDBRANCH   2  10
TORSDOF 7
ENDMDL
