MODEL 1
REMARK VINA RESULT:      -7.8      0.000      0.000
REMARK  Name = 5288573
REMARK  4 active torsions:
REMARK  status: ('A' for Active; 'I' for Inactive)
REMARK    1  A    between atoms: C_4  and  C_15
REMARK    2  A    between atoms: C_12  and  O_13
REMARK    3  A    between atoms: C_15  and  C_16
REMARK    4  A    between atoms: C_16  and  O_17
REMARK                            x       y       z     vdW  Elec       q    Type
REMARK                         _______ _______ _______ _____ _____    ______ ____
ROOT
ATOM      1  O   UNL     1      33.603 -15.080 -24.496  0.00  0.00    -0.421 OA
ATOM      2  O   UNL     1      34.715 -16.646 -25.705  0.00  0.00    -0.245 OA
ATOM      3  C   UNL     1      34.522 -16.337 -22.132  0.00  0.00    -0.017 A 
ATOM      4  C   UNL     1      34.848 -16.853 -23.336  0.00  0.00    +0.052 A 
ATOM      5  C   UNL     1      33.654 -15.143 -22.065  0.00  0.00    +0.031 A 
ATOM      6  C   UNL     1      33.226 -14.554 -23.250  0.00  0.00    +0.151 A 
ATOM      7  C   UNL     1      34.397 -16.209 -24.603  0.00  0.00    +0.341 A 
ATOM      8  C   UNL     1      35.005 -16.902 -20.819  0.00  0.00    +0.031 C 
ATOM      9  C   UNL     1      33.217 -14.556 -20.866  0.00  0.00    +0.006 C 
ATOM     10  C   UNL     1      32.405 -13.423 -23.277  0.00  0.00    +0.074 C 
ATOM     11  C   UNL     1      32.394 -13.423 -20.873  0.00  0.00    +0.037 C 
ATOM     12  C   UNL     1      31.990 -12.857 -22.079  0.00  0.00    +0.137 C 
ENDROOT
BRANCH  12  13
ATOM     13  O   UNL     1      31.190 -11.756 -22.082  0.00  0.00    -0.505 OA
ATOM     14  H   UNL     1      30.544 -11.644 -21.413  0.00  0.00    +0.292 HD
ENDBRANCH  12  13
BRANCH   4  15
ATOM     15  C   UNL     1      35.669 -18.099 -23.544  0.00  0.00    +0.064 C 
BRANCH  15  16
ATOM     16  C   UNL     1      34.802 -19.342 -23.620  0.00  0.00    +0.142 C 
BRANCH  16  17
ATOM     17  O   UNL     1      34.631 -19.729 -24.978  0.00  0.00    -0.382 OA
ATOM     18  H   UNL     1      34.607 -20.697 -25.038  0.00  0.00    +0.210 HD
ENDBRANCH  16  17
ENDBRANCH  15  16
ENDBRANCH   4  15
TORSDOF 4
ENDMDL
MODEL 2
REMARK VINA RESULT:      -7.6      2.123      3.076
REMARK  Name = 5288573
REMARK  4 active torsions:
REMARK  status: ('A' for Active; 'I' for Inactive)
REMARK    1  A    between atoms: C_4  and  C_15
REMARK    2  A    between atoms: C_12  and  O_13
REMARK    3  A    between atoms: C_15  and  C_16
REMARK    4  A    between atoms: C_16  and  O_17
REMARK                            x       y       z     vdW  Elec       q    Type
REMARK                         _______ _______ _______ _____ _____    ______ ____
ROOT
ATOM      1  O   UNL     1      34.177 -17.553 -25.468  0.00  0.00    -0.421 OA
ATOM      2  O   UNL     1      34.842 -19.616 -24.792  0.00  0.00    -0.245 OA
ATOM      3  C   UNL     1      34.540 -16.631 -22.817  0.00  0.00    -0.017 A 
ATOM      4  C   UNL     1      34.768 -17.928 -23.113  0.00  0.00    +0.052 A 
ATOM      5  C   UNL     1      34.064 -15.718 -23.876  0.00  0.00    +0.031 A 
ATOM      6  C   UNL     1      33.901 -16.211 -25.167  0.00  0.00    +0.151 A 
ATOM      7  C   UNL     1      34.604 -18.447 -24.501  0.00  0.00    +0.341 A 
ATOM      8  C   UNL     1      34.755 -16.034 -21.448  0.00  0.00    +0.031 C 
ATOM      9  C   UNL     1      33.751 -14.365 -23.665  0.00  0.00    +0.006 C 
ATOM     10  C   UNL     1      33.456 -15.416 -26.227  0.00  0.00    +0.074 C 
ATOM     11  C   UNL     1      33.304 -13.553 -24.715  0.00  0.00    +0.037 C 
ATOM     12  C   UNL     1      33.158 -14.079 -25.995  0.00  0.00    +0.137 C 
ENDROOT
BRANCH  12  13
ATOM     13  O   UNL     1      32.724 -13.288 -27.013  0.00  0.00    -0.505 OA
ATOM     14  H   UNL     1      33.138 -13.335 -27.853  0.00  0.00    +0.292 HD
ENDBRANCH  12  13
BRANCH   4  15
ATOM     15  C   UNL     1      35.192 -18.976 -22.116  0.00  0.00    +0.064 C 
BRANCH  15  16
ATOM     16  C   UNL     1      34.003 -19.591 -21.400  0.00  0.00    +0.142 C 
BRANCH  16  17
ATOM     17  O   UNL     1      34.455 -20.384 -20.310  0.00  0.00    -0.382 OA
ATOM     18  H   UNL     1      34.603 -21.294 -20.611  0.00  0.00    +0.210 HD
ENDBRANCH  16  17
ENDBRANCH  15  16
ENDBRANCH   4  15
TORSDOF 4
ENDMDL
MODEL 3
REMARK VINA RESULT:      -7.5      7.499      9.614
REMARK  Name = 5288573
REMARK  4 active torsions:
REMARK  status: ('A' for Active; 'I' for Inactive)
REMARK    1  A    between atoms: C_4  and  C_15
REMARK    2  A    between atoms: C_12  and  O_13
REMARK    3  A    between atoms: C_15  and  C_16
REMARK    4  A    between atoms: C_16  and  O_17
REMARK                            x       y       z     vdW  Elec       q    Type
REMARK                         _______ _______ _______ _____ _____    ______ ____
ROOT
ATOM      1  O   UNL     1      37.076 -21.918 -17.546  0.00  0.00    -0.421 OA
ATOM      2  O   UNL     1      37.992 -22.839 -15.685  0.00  0.00    -0.245 OA
ATOM      3  C   UNL     1      34.572 -22.984 -16.771  0.00  0.00    -0.017 A 
ATOM      4  C   UNL     1      35.665 -23.221 -16.014  0.00  0.00    +0.052 A 
ATOM      5  C   UNL     1      34.707 -22.203 -18.017  0.00  0.00    +0.031 A 
ATOM      6  C   UNL     1      35.956 -21.694 -18.361  0.00  0.00    +0.151 A 
ATOM      7  C   UNL     1      36.997 -22.661 -16.381  0.00  0.00    +0.341 A 
ATOM      8  C   UNL     1      33.186 -23.464 -16.414  0.00  0.00    +0.031 C 
ATOM      9  C   UNL     1      33.647 -21.941 -18.899  0.00  0.00    +0.006 C 
ATOM     10  C   UNL     1      36.171 -20.946 -19.521  0.00  0.00    +0.074 C 
ATOM     11  C   UNL     1      33.843 -21.193 -20.066  0.00  0.00    +0.037 C 
ATOM     12  C   UNL     1      35.105 -20.694 -20.375  0.00  0.00    +0.137 C 
ENDROOT
BRANCH  12  13
ATOM     13  O   UNL     1      35.294 -19.967 -21.509  0.00  0.00    -0.505 OA
ATOM     14  H   UNL     1      35.373 -19.035 -21.461  0.00  0.00    +0.292 HD
ENDBRANCH  12  13
BRANCH   4  15
ATOM     15  C   UNL     1      35.678 -24.053 -14.758  0.00  0.00    +0.064 C 
BRANCH  15  16
ATOM     16  C   UNL     1      35.821 -25.534 -15.061  0.00  0.00    +0.142 C 
BRANCH  16  17
ATOM     17  O   UNL     1      37.135 -25.804 -15.532  0.00  0.00    -0.382 OA
ATOM     18  H   UNL     1      37.086 -26.212 -16.412  0.00  0.00    +0.210 HD
ENDBRANCH  16  17
ENDBRANCH  15  16
ENDBRANCH   4  15
TORSDOF 4
ENDMDL
MODEL 4
REMARK VINA RESULT:      -7.5      2.549      3.736
REMARK  Name = 5288573
REMARK  4 active torsions:
REMARK  status: ('A' for Active; 'I' for Inactive)
REMARK    1  A    between atoms: C_4  and  C_15
REMARK    2  A    between atoms: C_12  and  O_13
REMARK    3  A    between atoms: C_15  and  C_16
REMARK    4  A    between atoms: C_16  and  O_17
REMARK                            x       y       z     vdW  Elec       q    Type
REMARK                         _______ _______ _______ _____ _____    ______ ____
ROOT
ATOM      1  O   UNL     1      34.470 -15.532 -21.975  0.00  0.00    -0.421 OA
ATOM      2  O   UNL     1      35.246 -16.548 -20.099  0.00  0.00    -0.245 OA
ATOM      3  C   UNL     1      34.859 -17.959 -23.380  0.00  0.00    -0.017 A 
ATOM      4  C   UNL     1      35.189 -17.880 -22.073  0.00  0.00    +0.052 A 
ATOM      5  C   UNL     1      34.334 -16.762 -24.069  0.00  0.00    +0.031 A 
ATOM      6  C   UNL     1      34.156 -15.589 -23.341  0.00  0.00    +0.151 A 
ATOM      7  C   UNL     1      34.983 -16.624 -21.296  0.00  0.00    +0.341 A 
ATOM      8  C   UNL     1      34.978 -19.220 -24.199  0.00  0.00    +0.031 C 
ATOM      9  C   UNL     1      34.006 -16.722 -25.434  0.00  0.00    +0.006 C 
ATOM     10  C   UNL     1      33.666 -14.413 -23.915  0.00  0.00    +0.074 C 
ATOM     11  C   UNL     1      33.513 -15.553 -26.027  0.00  0.00    +0.037 C 
ATOM     12  C   UNL     1      33.342 -14.400 -25.266  0.00  0.00    +0.137 C 
ENDROOT
BRANCH  12  13
ATOM     13  O   UNL     1      32.863 -13.265 -25.844  0.00  0.00    -0.505 OA
ATOM     14  H   UNL     1      32.049 -13.283 -26.307  0.00  0.00    +0.292 HD
ENDBRANCH  12  13
BRANCH   4  15
ATOM     15  C   UNL     1      35.791 -19.003 -21.269  0.00  0.00    +0.064 C 
BRANCH  15  16
ATOM     16  C   UNL     1      34.730 -19.940 -20.720  0.00  0.00    +0.142 C 
BRANCH  16  17
ATOM     17  O   UNL     1      35.249 -20.658 -19.609  0.00  0.00    -0.382 OA
ATOM     18  H   UNL     1      34.701 -20.485 -18.827  0.00  0.00    +0.210 HD
ENDBRANCH  16  17
ENDBRANCH  15  16
ENDBRANCH   4  15
TORSDOF 4
ENDMDL
MODEL 5
REMARK VINA RESULT:      -7.4     10.724     12.726
REMARK  Name = 5288573
REMARK  4 active torsions:
REMARK  status: ('A' for Active; 'I' for Inactive)
REMARK    1  A    between atoms: C_4  and  C_15
REMARK    2  A    between atoms: C_12  and  O_13
REMARK    3  A    between atoms: C_15  and  C_16
REMARK    4  A    between atoms: C_16  and  O_17
REMARK                            x       y       z     vdW  Elec       q    Type
REMARK                         _______ _______ _______ _____ _____    ______ ____
ROOT
ATOM      1  O   UNL     1      33.613 -24.238 -12.946  0.00  0.00    -0.421 OA
ATOM      2  O   UNL     1      34.997 -24.721 -11.213  0.00  0.00    -0.245 OA
ATOM      3  C   UNL     1      35.891 -23.762 -14.557  0.00  0.00    -0.017 A 
ATOM      4  C   UNL     1      36.047 -24.102 -13.260  0.00  0.00    +0.052 A 
ATOM      5  C   UNL     1      34.530 -23.605 -15.108  0.00  0.00    +0.031 A 
ATOM      6  C   UNL     1      33.436 -23.850 -14.283  0.00  0.00    +0.151 A 
ATOM      7  C   UNL     1      34.871 -24.377 -12.385  0.00  0.00    +0.341 A 
ATOM      8  C   UNL     1      37.041 -23.541 -15.508  0.00  0.00    +0.031 C 
ATOM      9  C   UNL     1      34.257 -23.209 -16.427  0.00  0.00    +0.006 C 
ATOM     10  C   UNL     1      32.116 -23.725 -14.724  0.00  0.00    +0.074 C 
ATOM     11  C   UNL     1      32.941 -23.078 -16.888  0.00  0.00    +0.037 C 
ATOM     12  C   UNL     1      31.871 -23.338 -16.035  0.00  0.00    +0.137 C 
ENDROOT
BRANCH  12  13
ATOM     13  O   UNL     1      30.594 -23.210 -16.484  0.00  0.00    -0.505 OA
ATOM     14  H   UNL     1      29.881 -23.527 -15.965  0.00  0.00    +0.292 HD
ENDBRANCH  12  13
BRANCH   4  15
ATOM     15  C   UNL     1      37.373 -24.233 -12.557  0.00  0.00    +0.064 C 
BRANCH  15  16
ATOM     16  C   UNL     1      37.949 -25.631 -12.690  0.00  0.00    +0.142 C 
BRANCH  16  17
ATOM     17  O   UNL     1      37.215 -26.534 -11.873  0.00  0.00    -0.382 OA
ATOM     18  H   UNL     1      37.620 -26.575 -10.992  0.00  0.00    +0.210 HD
ENDBRANCH  16  17
ENDBRANCH  15  16
ENDBRANCH   4  15
TORSDOF 4
ENDMDL
MODEL 6
REMARK VINA RESULT:      -7.4      9.387     11.516
REMARK  Name = 5288573
REMARK  4 active torsions:
REMARK  status: ('A' for Active; 'I' for Inactive)
REMARK    1  A    between atoms: C_4  and  C_15
REMARK    2  A    between atoms: C_12  and  O_13
REMARK    3  A    between atoms: C_15  and  C_16
REMARK    4  A    between atoms: C_16  and  O_17
REMARK                            x       y       z     vdW  Elec       q    Type
REMARK                         _______ _______ _______ _____ _____    ______ ____
ROOT
ATOM      1  O   UNL     1      36.459 -22.987 -16.329  0.00  0.00    -0.421 OA
ATOM      2  O   UNL     1      38.184 -23.355 -14.900  0.00  0.00    -0.245 OA
ATOM      3  C   UNL     1      34.673 -23.801 -14.290  0.00  0.00    -0.017 A 
ATOM      4  C   UNL     1      36.003 -23.817 -14.061  0.00  0.00    +0.052 A 
ATOM      5  C   UNL     1      34.169 -23.395 -15.618  0.00  0.00    +0.031 A 
ATOM      6  C   UNL     1      35.081 -23.000 -16.592  0.00  0.00    +0.151 A 
ATOM      7  C   UNL     1      36.974 -23.379 -15.105  0.00  0.00    +0.341 A 
ATOM      8  C   UNL     1      33.641 -24.165 -13.252  0.00  0.00    +0.031 C 
ATOM      9  C   UNL     1      32.812 -23.390 -15.975  0.00  0.00    +0.006 C 
ATOM     10  C   UNL     1      34.690 -22.602 -17.873  0.00  0.00    +0.074 C 
ATOM     11  C   UNL     1      32.400 -22.994 -17.254  0.00  0.00    +0.037 C 
ATOM     12  C   UNL     1      33.340 -22.599 -18.202  0.00  0.00    +0.137 C 
ENDROOT
BRANCH  12  13
ATOM     13  O   UNL     1      32.939 -22.215 -19.443  0.00  0.00    -0.505 OA
ATOM     14  H   UNL     1      32.885 -21.304 -19.658  0.00  0.00    +0.292 HD
ENDBRANCH  12  13
BRANCH   4  15
ATOM     15  C   UNL     1      36.651 -24.268 -12.778  0.00  0.00    +0.064 C 
BRANCH  15  16
ATOM     16  C   UNL     1      36.863 -23.114 -11.814  0.00  0.00    +0.142 C 
BRANCH  16  17
ATOM     17  O   UNL     1      38.252 -22.831 -11.700  0.00  0.00    -0.382 OA
ATOM     18  H   UNL     1      38.384 -22.111 -11.063  0.00  0.00    +0.210 HD
ENDBRANCH  16  17
ENDBRANCH  15  16
ENDBRANCH   4  15
TORSDOF 4
ENDMDL
MODEL 7
REMARK VINA RESULT:      -7.4     10.068     12.352
REMARK  Name = 5288573
REMARK  4 active torsions:
REMARK  status: ('A' for Active; 'I' for Inactive)
REMARK    1  A    between atoms: C_4  and  C_15
REMARK    2  A    between atoms: C_12  and  O_13
REMARK    3  A    between atoms: C_15  and  C_16
REMARK    4  A    between atoms: C_16  and  O_17
REMARK                            x       y       z     vdW  Elec       q    Type
REMARK                         _______ _______ _______ _____ _____    ______ ____
ROOT
ATOM      1  O   UNL     1      33.127 -24.239 -13.201  0.00  0.00    -0.421 OA
ATOM      2  O   UNL     1      30.905 -24.689 -13.086  0.00  0.00    -0.245 OA
ATOM      3  C   UNL     1      32.771 -23.463 -15.900  0.00  0.00    -0.017 A 
ATOM      4  C   UNL     1      31.716 -23.911 -15.186  0.00  0.00    +0.052 A 
ATOM      5  C   UNL     1      34.107 -23.421 -15.271  0.00  0.00    +0.031 A 
ATOM      6  C   UNL     1      34.239 -23.809 -13.941  0.00  0.00    +0.151 A 
ATOM      7  C   UNL     1      31.862 -24.313 -13.757  0.00  0.00    +0.341 A 
ATOM      8  C   UNL     1      32.672 -22.978 -17.325  0.00  0.00    +0.031 C 
ATOM      9  C   UNL     1      35.276 -23.019 -15.937  0.00  0.00    +0.006 C 
ATOM     10  C   UNL     1      35.465 -23.799 -13.271  0.00  0.00    +0.074 C 
ATOM     11  C   UNL     1      36.514 -23.002 -15.283  0.00  0.00    +0.037 C 
ATOM     12  C   UNL     1      36.607 -23.391 -13.949  0.00  0.00    +0.137 C 
ENDROOT
BRANCH  12  13
ATOM     13  O   UNL     1      37.810 -23.375 -13.315  0.00  0.00    -0.505 OA
ATOM     14  H   UNL     1      37.849 -23.261 -12.386  0.00  0.00    +0.292 HD
ENDBRANCH  12  13
BRANCH   4  15
ATOM     15  C   UNL     1      30.317 -24.065 -15.723  0.00  0.00    +0.064 C 
BRANCH  15  16
ATOM     16  C   UNL     1      29.543 -22.760 -15.668  0.00  0.00    +0.142 C 
BRANCH  16  17
ATOM     17  O   UNL     1      29.194 -22.351 -16.984  0.00  0.00    -0.382 OA
ATOM     18  H   UNL     1      28.796 -23.098 -17.460  0.00  0.00    +0.210 HD
ENDBRANCH  16  17
ENDBRANCH  15  16
ENDBRANCH   4  15
TORSDOF 4
ENDMDL
MODEL 8
REMARK VINA RESULT:      -7.3      8.816     10.980
REMARK  Name = 5288573
REMARK  4 active torsions:
REMARK  status: ('A' for Active; 'I' for Inactive)
REMARK    1  A    between atoms: C_4  and  C_15
REMARK    2  A    between atoms: C_12  and  O_13
REMARK    3  A    between atoms: C_15  and  C_16
REMARK    4  A    between atoms: C_16  and  O_17
REMARK                            x       y       z     vdW  Elec       q    Type
REMARK                         _______ _______ _______ _____ _____    ______ ____
ROOT
ATOM      1  O   UNL     1      33.583 -23.634 -15.719  0.00  0.00    -0.421 OA
ATOM      2  O   UNL     1      33.914 -24.450 -13.627  0.00  0.00    -0.245 OA
ATOM      3  C   UNL     1      36.325 -22.937 -15.817  0.00  0.00    -0.017 A 
ATOM      4  C   UNL     1      35.817 -23.505 -14.703  0.00  0.00    +0.052 A 
ATOM      5  C   UNL     1      35.431 -22.651 -16.958  0.00  0.00    +0.031 A 
ATOM      6  C   UNL     1      34.090 -23.012 -16.870  0.00  0.00    +0.151 A 
ATOM      7  C   UNL     1      34.382 -23.901 -14.620  0.00  0.00    +0.341 A 
ATOM      8  C   UNL     1      37.781 -22.579 -15.986  0.00  0.00    +0.031 C 
ATOM      9  C   UNL     1      35.846 -22.022 -18.143  0.00  0.00    +0.006 C 
ATOM     10  C   UNL     1      33.178 -22.779 -17.903  0.00  0.00    +0.074 C 
ATOM     11  C   UNL     1      34.946 -21.779 -19.188  0.00  0.00    +0.037 C 
ATOM     12  C   UNL     1      33.612 -22.160 -19.067  0.00  0.00    +0.137 C 
ENDROOT
BRANCH  12  13
ATOM     13  O   UNL     1      32.740 -21.924 -20.084  0.00  0.00    -0.505 OA
ATOM     14  H   UNL     1      32.663 -21.062 -20.445  0.00  0.00    +0.292 HD
ENDBRANCH  12  13
BRANCH   4  15
ATOM     15  C   UNL     1      36.602 -23.790 -13.448  0.00  0.00    +0.064 C 
BRANCH  15  16
ATOM     16  C   UNL     1      37.247 -25.164 -13.484  0.00  0.00    +0.142 C 
BRANCH  16  17
ATOM     17  O   UNL     1      36.422 -26.102 -12.804  0.00  0.00    -0.382 OA
ATOM     18  H   UNL     1      35.706 -26.389 -13.393  0.00  0.00    +0.210 HD
ENDBRANCH  16  17
ENDBRANCH  15  16
ENDBRANCH   4  15
TORSDOF 4
ENDMDL
MODEL 9
REMARK VINA RESULT:      -7.2      1.854      2.631
REMARK  Name = 5288573
REMARK  4 active torsions:
REMARK  status: ('A' for Active; 'I' for Inactive)
REMARK    1  A    between atoms: C_4  and  C_15
REMARK    2  A    between atoms: C_12  and  O_13
REMARK    3  A    between atoms: C_15  and  C_16
REMARK    4  A    between atoms: C_16  and  O_17
REMARK                            x       y       z     vdW  Elec       q    Type
REMARK                         _______ _______ _______ _____ _____    ______ ____
ROOT
ATOM      1  O   UNL     1      34.080 -15.635 -20.583  0.00  0.00    -0.421 OA
ATOM      2  O   UNL     1      35.380 -17.495 -20.591  0.00  0.00    -0.245 OA
ATOM      3  C   UNL     1      34.042 -15.721 -23.412  0.00  0.00    -0.017 A 
ATOM      4  C   UNL     1      34.745 -16.645 -22.723  0.00  0.00    +0.052 A 
ATOM      5  C   UNL     1      33.332 -14.653 -22.679  0.00  0.00    +0.031 A 
ATOM      6  C   UNL     1      33.374 -14.648 -21.288  0.00  0.00    +0.151 A 
ATOM      7  C   UNL     1      34.774 -16.642 -21.232  0.00  0.00    +0.341 A 
ATOM      8  C   UNL     1      33.917 -15.715 -24.916  0.00  0.00    +0.031 C 
ATOM      9  C   UNL     1      32.614 -13.618 -23.299  0.00  0.00    +0.006 C 
ATOM     10  C   UNL     1      32.731 -13.675 -20.518  0.00  0.00    +0.074 C 
ATOM     11  C   UNL     1      31.963 -12.634 -22.545  0.00  0.00    +0.037 C 
ATOM     12  C   UNL     1      32.022 -12.664 -21.154  0.00  0.00    +0.137 C 
ENDROOT
BRANCH  12  13
ATOM     13  O   UNL     1      31.389 -11.708 -20.423  0.00  0.00    -0.505 OA
ATOM     14  H   UNL     1      30.556 -11.380 -20.701  0.00  0.00    +0.292 HD
ENDBRANCH  12  13
BRANCH   4  15
ATOM     15  C   UNL     1      35.563 -17.746 -23.346  0.00  0.00    +0.064 C 
BRANCH  15  16
ATOM     16  C   UNL     1      34.744 -19.005 -23.565  0.00  0.00    +0.142 C 
BRANCH  16  17
ATOM     17  O   UNL     1      34.759 -19.800 -22.386  0.00  0.00    -0.382 OA
ATOM     18  H   UNL     1      34.445 -19.271 -21.635  0.00  0.00    +0.210 HD
ENDBRANCH  16  17
ENDBRANCH  15  16
ENDBRANCH   4  15
TORSDOF 4
ENDMDL
