MODEL 1
REMARK VINA RESULT:      -6.2      0.000      0.000
REMARK  Name = 7888
REMARK  7 active torsions:
REMARK  status: ('A' for Active; 'I' for Inactive)
REMARK    1  A    between atoms: C_1  and  C_2
REMARK    2  A    between atoms: C_1  and  C_8
REMARK    3  A    between atoms: C_2  and  C_3
REMARK    4  A    between atoms: C_3  and  C_5
REMARK    5  A    between atoms: C_5  and  C_7
REMARK    6  A    between atoms: C_8  and  C_9
REMARK    7  A    between atoms: C_9  and  O_12
REMARK                            x       y       z     vdW  Elec       q    Type
REMARK                         _______ _______ _______ _____ _____    ______ ____
ROOT
ATOM      1  C   UNL     1      35.020 -17.948 -22.412  0.00  0.00    +0.002 C 
ENDROOT
BRANCH   1   2
ATOM      2  C   UNL     1      34.424 -19.335 -22.140  0.00  0.00    +0.001 C 
BRANCH   2   3
ATOM      3  C   UNL     1      34.509 -19.767 -20.660  0.00  0.00    +0.008 C 
ATOM      4  C   UNL     1      35.728 -20.659 -20.401  0.00  0.00    +0.000 C 
BRANCH   3   5
ATOM      5  C   UNL     1      33.213 -20.499 -20.269  0.00  0.00    +0.072 C 
BRANCH   5   7
ATOM      6  O   UNL     1      32.621 -22.206 -18.640  0.00  0.00    -0.288 OA
ATOM      7  C   UNL     1      33.434 -21.738 -19.430  0.00  0.00    +0.207 C 
ENDBRANCH   5   7
ENDBRANCH   3   5
ENDBRANCH   2   3
ENDBRANCH   1   2
BRANCH   1   8
ATOM      8  C   UNL     1      34.994 -17.083 -21.148  0.00  0.00    +0.027 C 
BRANCH   8   9
ATOM      9  C   UNL     1      34.321 -15.704 -21.301  0.00  0.00    +0.088 C 
ATOM     10  C   UNL     1      34.519 -15.106 -22.695  0.00  0.00    +0.029 C 
ATOM     11  C   UNL     1      32.833 -15.743 -20.947  0.00  0.00    +0.029 C 
BRANCH   9  12
ATOM     12  O   UNL     1      34.940 -14.819 -20.358  0.00  0.00    -0.387 OA
ATOM     13  H   UNL     1      35.175 -15.313 -19.557  0.00  0.00    +0.210 HD
ENDBRANCH   9  12
ENDBRANCH   8   9
ENDBRANCH   1   8
TORSDOF 7
ENDMDL
MODEL 2
REMARK VINA RESULT:      -5.9      2.378      6.116
REMARK  Name = 7888
REMARK  7 active torsions:
REMARK  status: ('A' for Active; 'I' for Inactive)
REMARK    1  A    between atoms: C_1  and  C_2
REMARK    2  A    between atoms: C_1  and  C_8
REMARK    3  A    between atoms: C_2  and  C_3
REMARK    4  A    between atoms: C_3  and  C_5
REMARK    5  A    between atoms: C_5  and  C_7
REMARK    6  A    between atoms: C_8  and  C_9
REMARK    7  A    between atoms: C_9  and  O_12
REMARK                            x       y       z     vdW  Elec       q    Type
REMARK                         _______ _______ _______ _____ _____    ______ ____
ROOT
ATOM      1  C   UNL     1      34.402 -20.264 -20.370  0.00  0.00    +0.002 C 
ENDROOT
BRANCH   1   2
ATOM      2  C   UNL     1      33.900 -19.540 -21.625  0.00  0.00    +0.001 C 
BRANCH   2   3
ATOM      3  C   UNL     1      35.022 -18.861 -22.440  0.00  0.00    +0.008 C 
ATOM      4  C   UNL     1      35.266 -17.421 -21.973  0.00  0.00    +0.000 C 
BRANCH   3   5
ATOM      5  C   UNL     1      34.653 -18.888 -23.934  0.00  0.00    +0.072 C 
BRANCH   5   7
ATOM      6  O   UNL     1      34.715 -17.367 -25.832  0.00  0.00    -0.288 OA
ATOM      7  C   UNL     1      34.761 -17.543 -24.619  0.00  0.00    +0.207 C 
ENDBRANCH   5   7
ENDBRANCH   3   5
ENDBRANCH   2   3
ENDBRANCH   1   2
BRANCH   1   8
ATOM      8  C   UNL     1      33.404 -21.334 -19.917  0.00  0.00    +0.027 C 
BRANCH   8   9
ATOM      9  C   UNL     1      33.973 -22.416 -18.976  0.00  0.00    +0.088 C 
ATOM     10  C   UNL     1      35.373 -22.073 -18.466  0.00  0.00    +0.029 C 
ATOM     11  C   UNL     1      33.039 -22.711 -17.802  0.00  0.00    +0.029 C 
BRANCH   9  12
ATOM     12  O   UNL     1      34.072 -23.630 -19.733  0.00  0.00    -0.387 OA
ATOM     13  H   UNL     1      34.478 -24.320 -19.185  0.00  0.00    +0.210 HD
ENDBRANCH   9  12
ENDBRANCH   8   9
ENDBRANCH   1   8
TORSDOF 7
ENDMDL
MODEL 3
REMARK VINA RESULT:      -5.9      1.325      5.907
REMARK  Name = 7888
REMARK  7 active torsions:
REMARK  status: ('A' for Active; 'I' for Inactive)
REMARK    1  A    between atoms: C_1  and  C_2
REMARK    2  A    between atoms: C_1  and  C_8
REMARK    3  A    between atoms: C_2  and  C_3
REMARK    4  A    between atoms: C_3  and  C_5
REMARK    5  A    between atoms: C_5  and  C_7
REMARK    6  A    between atoms: C_8  and  C_9
REMARK    7  A    between atoms: C_9  and  O_12
REMARK                            x       y       z     vdW  Elec       q    Type
REMARK                         _______ _______ _______ _____ _____    ______ ____
ROOT
ATOM      1  C   UNL     1      34.228 -20.416 -20.428  0.00  0.00    +0.002 C 
ENDROOT
BRANCH   1   2
ATOM      2  C   UNL     1      33.449 -19.205 -20.957  0.00  0.00    +0.001 C 
BRANCH   2   3
ATOM      3  C   UNL     1      34.255 -18.333 -21.944  0.00  0.00    +0.008 C 
ATOM      4  C   UNL     1      35.127 -19.188 -22.871  0.00  0.00    +0.000 C 
BRANCH   3   5
ATOM      5  C   UNL     1      35.124 -17.339 -21.153  0.00  0.00    +0.072 C 
BRANCH   5   7
ATOM      6  O   UNL     1      34.969 -15.068 -20.296  0.00  0.00    -0.288 OA
ATOM      7  C   UNL     1      34.449 -16.014 -20.877  0.00  0.00    +0.207 C 
ENDBRANCH   5   7
ENDBRANCH   3   5
ENDBRANCH   2   3
ENDBRANCH   1   2
BRANCH   1   8
ATOM      8  C   UNL     1      33.304 -21.372 -19.667  0.00  0.00    +0.027 C 
BRANCH   8   9
ATOM      9  C   UNL     1      34.014 -22.470 -18.849  0.00  0.00    +0.088 C 
ATOM     10  C   UNL     1      35.428 -22.065 -18.428  0.00  0.00    +0.029 C 
ATOM     11  C   UNL     1      33.200 -22.900 -17.629  0.00  0.00    +0.029 C 
BRANCH   9  12
ATOM     12  O   UNL     1      34.127 -23.624 -19.691  0.00  0.00    -0.387 OA
ATOM     13  H   UNL     1      34.853 -23.495 -20.322  0.00  0.00    +0.210 HD
ENDBRANCH   9  12
ENDBRANCH   8   9
ENDBRANCH   1   8
TORSDOF 7
ENDMDL
MODEL 4
REMARK VINA RESULT:      -5.9      2.160      3.283
REMARK  Name = 7888
REMARK  7 active torsions:
REMARK  status: ('A' for Active; 'I' for Inactive)
REMARK    1  A    between atoms: C_1  and  C_2
REMARK    2  A    between atoms: C_1  and  C_8
REMARK    3  A    between atoms: C_2  and  C_3
REMARK    4  A    between atoms: C_3  and  C_5
REMARK    5  A    between atoms: C_5  and  C_7
REMARK    6  A    between atoms: C_8  and  C_9
REMARK    7  A    between atoms: C_9  and  O_12
REMARK                            x       y       z     vdW  Elec       q    Type
REMARK                         _______ _______ _______ _____ _____    ______ ____
ROOT
ATOM      1  C   UNL     1      33.105 -20.176 -20.915  0.00  0.00    +0.002 C 
ENDROOT
BRANCH   1   2
ATOM      2  C   UNL     1      33.097 -20.809 -19.518  0.00  0.00    +0.001 C 
BRANCH   2   3
ATOM      3  C   UNL     1      33.803 -22.180 -19.455  0.00  0.00    +0.008 C 
ATOM      4  C   UNL     1      33.644 -22.835 -18.078  0.00  0.00    +0.000 C 
BRANCH   3   5
ATOM      5  C   UNL     1      35.293 -22.002 -19.798  0.00  0.00    +0.072 C 
BRANCH   5   7
ATOM      6  O   UNL     1      36.805 -20.607 -18.500  0.00  0.00    -0.288 OA
ATOM      7  C   UNL     1      36.160 -21.644 -18.612  0.00  0.00    +0.207 C 
ENDBRANCH   5   7
ENDBRANCH   3   5
ENDBRANCH   2   3
ENDBRANCH   1   2
BRANCH   1   8
ATOM      8  C   UNL     1      33.486 -18.694 -20.843  0.00  0.00    +0.027 C 
BRANCH   8   9
ATOM      9  C   UNL     1      34.832 -18.322 -21.498  0.00  0.00    +0.088 C 
ATOM     10  C   UNL     1      35.076 -19.077 -22.806  0.00  0.00    +0.029 C 
ATOM     11  C   UNL     1      34.969 -16.815 -21.723  0.00  0.00    +0.029 C 
BRANCH   9  12
ATOM     12  O   UNL     1      35.870 -18.693 -20.582  0.00  0.00    -0.387 OA
ATOM     13  H   UNL     1      35.585 -19.464 -20.066  0.00  0.00    +0.210 HD
ENDBRANCH   9  12
ENDBRANCH   8   9
ENDBRANCH   1   8
TORSDOF 7
ENDMDL
MODEL 5
REMARK VINA RESULT:      -5.8      1.186      1.279
REMARK  Name = 7888
REMARK  7 active torsions:
REMARK  status: ('A' for Active; 'I' for Inactive)
REMARK    1  A    between atoms: C_1  and  C_2
REMARK    2  A    between atoms: C_1  and  C_8
REMARK    3  A    between atoms: C_2  and  C_3
REMARK    4  A    between atoms: C_3  and  C_5
REMARK    5  A    between atoms: C_5  and  C_7
REMARK    6  A    between atoms: C_8  and  C_9
REMARK    7  A    between atoms: C_9  and  O_12
REMARK                            x       y       z     vdW  Elec       q    Type
REMARK                         _______ _______ _______ _____ _____    ______ ____
ROOT
ATOM      1  C   UNL     1      34.941 -17.652 -23.497  0.00  0.00    +0.002 C 
ENDROOT
BRANCH   1   2
ATOM      2  C   UNL     1      34.673 -19.045 -22.915  0.00  0.00    +0.001 C 
BRANCH   2   3
ATOM      3  C   UNL     1      34.608 -19.071 -21.373  0.00  0.00    +0.008 C 
ATOM      4  C   UNL     1      35.848 -19.738 -20.767  0.00  0.00    +0.000 C 
BRANCH   3   5
ATOM      5  C   UNL     1      33.330 -19.805 -20.930  0.00  0.00    +0.072 C 
BRANCH   5   7
ATOM      6  O   UNL     1      32.706 -21.670 -19.497  0.00  0.00    -0.288 OA
ATOM      7  C   UNL     1      33.575 -20.936 -19.955  0.00  0.00    +0.207 C 
ENDBRANCH   5   7
ENDBRANCH   3   5
ENDBRANCH   2   3
ENDBRANCH   1   2
BRANCH   1   8
ATOM      8  C   UNL     1      34.914 -16.585 -22.398  0.00  0.00    +0.027 C 
BRANCH   8   9
ATOM      9  C   UNL     1      34.065 -15.335 -22.707  0.00  0.00    +0.088 C 
ATOM     10  C   UNL     1      33.636 -15.265 -24.174  0.00  0.00    +0.029 C 
ATOM     11  C   UNL     1      32.845 -15.224 -21.792  0.00  0.00    +0.029 C 
BRANCH   9  12
ATOM     12  O   UNL     1      34.881 -14.187 -22.440  0.00  0.00    -0.387 OA
ATOM     13  H   UNL     1      35.797 -14.469 -22.293  0.00  0.00    +0.210 HD
ENDBRANCH   9  12
ENDBRANCH   8   9
ENDBRANCH   1   8
TORSDOF 7
ENDMDL
MODEL 6
REMARK VINA RESULT:      -5.8      1.804      2.274
REMARK  Name = 7888
REMARK  7 active torsions:
REMARK  status: ('A' for Active; 'I' for Inactive)
REMARK    1  A    between atoms: C_1  and  C_2
REMARK    2  A    between atoms: C_1  and  C_8
REMARK    3  A    between atoms: C_2  and  C_3
REMARK    4  A    between atoms: C_3  and  C_5
REMARK    5  A    between atoms: C_5  and  C_7
REMARK    6  A    between atoms: C_8  and  C_9
REMARK    7  A    between atoms: C_9  and  O_12
REMARK                            x       y       z     vdW  Elec       q    Type
REMARK                         _______ _______ _______ _____ _____    ______ ____
ROOT
ATOM      1  C   UNL     1      35.180 -18.758 -22.368  0.00  0.00    +0.002 C 
ENDROOT
BRANCH   1   2
ATOM      2  C   UNL     1      35.253 -19.262 -20.921  0.00  0.00    +0.001 C 
BRANCH   2   3
ATOM      3  C   UNL     1      34.405 -20.525 -20.662  0.00  0.00    +0.008 C 
ATOM      4  C   UNL     1      32.954 -20.170 -20.315  0.00  0.00    +0.000 C 
BRANCH   3   5
ATOM      5  C   UNL     1      35.045 -21.345 -19.527  0.00  0.00    +0.072 C 
BRANCH   5   7
ATOM      6  O   UNL     1      34.006 -23.544 -19.474  0.00  0.00    -0.288 OA
ATOM      7  C   UNL     1      34.153 -22.434 -18.974  0.00  0.00    +0.207 C 
ENDBRANCH   5   7
ENDBRANCH   3   5
ENDBRANCH   2   3
ENDBRANCH   1   2
BRANCH   1   8
ATOM      8  C   UNL     1      34.275 -17.528 -22.476  0.00  0.00    +0.027 C 
BRANCH   8   9
ATOM      9  C   UNL     1      34.550 -16.604 -23.680  0.00  0.00    +0.088 C 
ATOM     10  C   UNL     1      34.466 -17.344 -25.017  0.00  0.00    +0.029 C 
ATOM     11  C   UNL     1      33.632 -15.381 -23.693  0.00  0.00    +0.029 C 
BRANCH   9  12
ATOM     12  O   UNL     1      35.887 -16.109 -23.542  0.00  0.00    -0.387 OA
ATOM     13  H   UNL     1      35.869 -15.141 -23.482  0.00  0.00    +0.210 HD
ENDBRANCH   9  12
ENDBRANCH   8   9
ENDBRANCH   1   8
TORSDOF 7
ENDMDL
MODEL 7
REMARK VINA RESULT:      -5.8      4.968      7.407
REMARK  Name = 7888
REMARK  7 active torsions:
REMARK  status: ('A' for Active; 'I' for Inactive)
REMARK    1  A    between atoms: C_1  and  C_2
REMARK    2  A    between atoms: C_1  and  C_8
REMARK    3  A    between atoms: C_2  and  C_3
REMARK    4  A    between atoms: C_3  and  C_5
REMARK    5  A    between atoms: C_5  and  C_7
REMARK    6  A    between atoms: C_8  and  C_9
REMARK    7  A    between atoms: C_9  and  O_12
REMARK                            x       y       z     vdW  Elec       q    Type
REMARK                         _______ _______ _______ _____ _____    ______ ____
ROOT
ATOM      1  C   UNL     1      32.077 -22.804 -17.031  0.00  0.00    +0.002 C 
ENDROOT
BRANCH   1   2
ATOM      2  C   UNL     1      31.749 -23.239 -15.597  0.00  0.00    +0.001 C 
BRANCH   2   3
ATOM      3  C   UNL     1      30.241 -23.198 -15.267  0.00  0.00    +0.008 C 
ATOM      4  C   UNL     1      29.736 -24.557 -14.768  0.00  0.00    +0.000 C 
BRANCH   3   5
ATOM      5  C   UNL     1      29.459 -22.758 -16.517  0.00  0.00    +0.072 C 
BRANCH   5   7
ATOM      6  O   UNL     1      27.477 -23.457 -17.743  0.00  0.00    -0.288 OA
ATOM      7  C   UNL     1      28.342 -23.700 -16.909  0.00  0.00    +0.207 C 
ENDBRANCH   5   7
ENDBRANCH   3   5
ENDBRANCH   2   3
ENDBRANCH   1   2
BRANCH   1   8
ATOM      8  C   UNL     1      33.533 -23.126 -17.382  0.00  0.00    +0.027 C 
BRANCH   8   9
ATOM      9  C   UNL     1      34.031 -22.564 -18.729  0.00  0.00    +0.088 C 
ATOM     10  C   UNL     1      33.080 -21.520 -19.316  0.00  0.00    +0.029 C 
ATOM     11  C   UNL     1      35.447 -21.995 -18.631  0.00  0.00    +0.029 C 
BRANCH   9  12
ATOM     12  O   UNL     1      34.095 -23.659 -19.651  0.00  0.00    -0.387 OA
ATOM     13  H   UNL     1      34.736 -24.314 -19.332  0.00  0.00    +0.210 HD
ENDBRANCH   9  12
ENDBRANCH   8   9
ENDBRANCH   1   8
TORSDOF 7
ENDMDL
MODEL 8
REMARK VINA RESULT:      -5.6      2.695      6.024
REMARK  Name = 7888
REMARK  7 active torsions:
REMARK  status: ('A' for Active; 'I' for Inactive)
REMARK    1  A    between atoms: C_1  and  C_2
REMARK    2  A    between atoms: C_1  and  C_8
REMARK    3  A    between atoms: C_2  and  C_3
REMARK    4  A    between atoms: C_3  and  C_5
REMARK    5  A    between atoms: C_5  and  C_7
REMARK    6  A    between atoms: C_8  and  C_9
REMARK    7  A    between atoms: C_9  and  O_12
REMARK                            x       y       z     vdW  Elec       q    Type
REMARK                         _______ _______ _______ _____ _____    ______ ____
ROOT
ATOM      1  C   UNL     1      33.914 -16.174 -21.631  0.00  0.00    +0.002 C 
ENDROOT
BRANCH   1   2
ATOM      2  C   UNL     1      34.323 -14.715 -21.867  0.00  0.00    +0.001 C 
BRANCH   2   3
ATOM      3  C   UNL     1      33.898 -14.168 -23.247  0.00  0.00    +0.008 C 
ATOM      4  C   UNL     1      32.528 -13.482 -23.186  0.00  0.00    +0.000 C 
BRANCH   3   5
ATOM      5  C   UNL     1      33.879 -15.320 -24.267  0.00  0.00    +0.072 C 
BRANCH   5   7
ATOM      6  O   UNL     1      33.275 -15.680 -26.596  0.00  0.00    -0.288 OA
ATOM      7  C   UNL     1      33.387 -14.920 -25.640  0.00  0.00    +0.207 C 
ENDBRANCH   5   7
ENDBRANCH   3   5
ENDBRANCH   2   3
ENDBRANCH   1   2
BRANCH   1   8
ATOM      8  C   UNL     1      35.030 -16.948 -20.922  0.00  0.00    +0.027 C 
BRANCH   8   9
ATOM      9  C   UNL     1      35.211 -18.412 -21.371  0.00  0.00    +0.088 C 
ATOM     10  C   UNL     1      33.975 -19.269 -21.092  0.00  0.00    +0.029 C 
ATOM     11  C   UNL     1      35.610 -18.520 -22.844  0.00  0.00    +0.029 C 
BRANCH   9  12
ATOM     12  O   UNL     1      36.298 -18.960 -20.614  0.00  0.00    -0.387 OA
ATOM     13  H   UNL     1      37.131 -18.804 -21.085  0.00  0.00    +0.210 HD
ENDBRANCH   9  12
ENDBRANCH   8   9
ENDBRANCH   1   8
TORSDOF 7
ENDMDL
MODEL 9
REMARK VINA RESULT:      -5.6      2.781      4.240
REMARK  Name = 7888
REMARK  7 active torsions:
REMARK  status: ('A' for Active; 'I' for Inactive)
REMARK    1  A    between atoms: C_1  and  C_2
REMARK    2  A    between atoms: C_1  and  C_8
REMARK    3  A    between atoms: C_2  and  C_3
REMARK    4  A    between atoms: C_3  and  C_5
REMARK    5  A    between atoms: C_5  and  C_7
REMARK    6  A    between atoms: C_8  and  C_9
REMARK    7  A    between atoms: C_9  and  O_12
REMARK                            x       y       z     vdW  Elec       q    Type
REMARK                         _______ _______ _______ _____ _____    ______ ____
ROOT
ATOM      1  C   UNL     1      34.631 -16.383 -20.880  0.00  0.00    +0.002 C 
ENDROOT
BRANCH   1   2
ATOM      2  C   UNL     1      35.289 -16.997 -22.123  0.00  0.00    +0.001 C 
BRANCH   2   3
ATOM      3  C   UNL     1      34.601 -18.289 -22.613  0.00  0.00    +0.008 C 
ATOM      4  C   UNL     1      35.062 -19.513 -21.813  0.00  0.00    +0.000 C 
BRANCH   3   5
ATOM      5  C   UNL     1      34.893 -18.484 -24.112  0.00  0.00    +0.072 C 
BRANCH   5   7
ATOM      6  O   UNL     1      34.931 -16.790 -25.858  0.00  0.00    -0.288 OA
ATOM      7  C   UNL     1      34.310 -17.406 -24.999  0.00  0.00    +0.207 C 
ENDBRANCH   5   7
ENDBRANCH   3   5
ENDBRANCH   2   3
ENDBRANCH   1   2
BRANCH   1   8
ATOM      8  C   UNL     1      34.374 -14.886 -21.078  0.00  0.00    +0.027 C 
BRANCH   8   9
ATOM      9  C   UNL     1      32.972 -14.518 -21.605  0.00  0.00    +0.088 C 
ATOM     10  C   UNL     1      32.395 -13.278 -20.919  0.00  0.00    +0.029 C 
ATOM     11  C   UNL     1      32.952 -14.341 -23.124  0.00  0.00    +0.029 C 
BRANCH   9  12
ATOM     12  O   UNL     1      32.103 -15.619 -21.311  0.00  0.00    -0.387 OA
ATOM     13  H   UNL     1      32.563 -16.453 -21.497  0.00  0.00    +0.210 HD
ENDBRANCH   9  12
ENDBRANCH   8   9
ENDBRANCH   1   8
TORSDOF 7
ENDMDL
