MODEL 1
REMARK VINA RESULT:     -12.6      0.000      0.000
REMARK  Name = 11442891
REMARK  5 active torsions:
REMARK  status: ('A' for Active; 'I' for Inactive)
REMARK    1  A    between atoms: C_12  and  C_30
REMARK    2  A    between atoms: C_13  and  C_19
REMARK    3  A    between atoms: C_16  and  N_22
REMARK    4  A    between atoms: C_30  and  C_31
REMARK    5  A    between atoms: C_30  and  O_37
REMARK                            x       y       z     vdW  Elec       q    Type
REMARK                         _______ _______ _______ _____ _____    ______ ____
ROOT
ATOM      1  O   UNL     1      31.896 -11.793 -21.044  0.00  0.00    -0.271 OA
ATOM      2  O   UNL     1      35.017 -19.124 -23.783  0.00  0.00    -0.270 OA
ATOM      3  N   UNL     1      32.722 -12.949 -22.869  0.00  0.00    -0.231 N 
ATOM      4  N   UNL     1      34.070 -15.260 -25.270  0.00  0.00    -0.273 N 
ATOM      5  N   UNL     1      34.331 -16.479 -24.736  0.00  0.00    -0.157 NA
ATOM      6  N   UNL     1      34.070 -17.376 -22.525  0.00  0.00    -0.264 N 
ATOM      7  C   UNL     1      32.946 -14.224 -22.111  0.00  0.00    +0.077 C 
ATOM      8  C   UNL     1      33.486 -15.077 -23.171  0.00  0.00    +0.067 A 
ATOM      9  C   UNL     1      33.109 -13.026 -24.318  0.00  0.00    +0.091 C 
ATOM     10  C   UNL     1      33.566 -14.411 -24.354  0.00  0.00    +0.093 A 
ATOM     11  C   UNL     1      33.968 -16.353 -23.446  0.00  0.00    +0.157 A 
ATOM     12  C   UNL     1      32.204 -11.830 -22.235  0.00  0.00    +0.265 C 
ATOM     13  C   UNL     1      34.573 -18.666 -22.735  0.00  0.00    +0.251 C 
ATOM     14  H   UNL     1      34.230 -15.024 -26.213  0.00  0.00    +0.189 HD
ATOM     15  H   UNL     1      33.751 -17.176 -21.615  0.00  0.00    +0.157 HD
ENDROOT
BRANCH  13  19
ATOM     16  C   UNL     1      34.601 -21.201 -19.290  0.00  0.00    +0.048 C 
ATOM     17  C   UNL     1      33.388 -20.797 -19.850  0.00  0.00    +0.015 C 
ATOM     18  C   UNL     1      35.804 -20.777 -19.854  0.00  0.00    +0.015 C 
ATOM     19  C   UNL     1      34.583 -19.547 -21.538  0.00  0.00    +0.054 C 
ATOM     20  C   UNL     1      33.379 -19.971 -20.974  0.00  0.00    +0.006 C 
ATOM     21  C   UNL     1      35.795 -19.951 -20.978  0.00  0.00    +0.006 C 
BRANCH  16  22
ATOM     22  N   UNL     1      34.610 -22.028 -18.163  0.00  0.00    -0.312 N 
ATOM     23  N   UNL     1      34.681 -23.916 -16.020  0.00  0.00    +0.388 N 
ATOM     24  C   UNL     1      35.882 -22.344 -17.504  0.00  0.00    +0.068 C 
ATOM     25  C   UNL     1      33.565 -23.052 -18.049  0.00  0.00    +0.068 C 
ATOM     26  C   UNL     1      35.641 -22.805 -16.065  0.00  0.00    -0.056 C 
ATOM     27  C   UNL     1      33.398 -23.489 -16.591  0.00  0.00    -0.056 C 
ATOM     28  C   UNL     1      34.501 -24.383 -14.646  0.00  0.00    -0.101 C 
ATOM     29  H   UNL     1      35.047 -24.690 -16.573  0.00  0.00    -0.080 HD
ENDBRANCH  16  22
ENDBRANCH  13  19
BRANCH  12  30
ATOM     30  C   UNL     1      32.029 -10.613 -23.109  0.00  0.00    +0.214 C 
BRANCH  30  31
ATOM     31  C   UNL     1      31.970  -9.360 -22.282  0.00  0.00    +0.013 C 
ATOM     32  C   UNL     1      31.584  -8.155 -22.868  0.00  0.00    -0.001 C 
ATOM     33  C   UNL     1      32.302  -9.402 -20.928  0.00  0.00    -0.001 C 
ATOM     34  C   UNL     1      31.530  -6.992 -22.101  0.00  0.00    -0.000 C 
ATOM     35  C   UNL     1      32.248  -8.239 -20.160  0.00  0.00    -0.000 C 
ATOM     36  C   UNL     1      31.863  -7.034 -20.746  0.00  0.00    -0.000 C 
ENDBRANCH  30  31
BRANCH  30  37
ATOM     37  O   UNL     1      33.126 -10.577 -24.001  0.00  0.00    -0.340 OA
ATOM     38  C   UNL     1      34.096  -9.612 -23.606  0.00  0.00    +0.175 C 
ENDBRANCH  30  37
ENDBRANCH  12  30
TORSDOF 5
ENDMDL
MODEL 2
REMARK VINA RESULT:     -12.5      1.965      3.484
REMARK  Name = 11442891
REMARK  5 active torsions:
REMARK  status: ('A' for Active; 'I' for Inactive)
REMARK    1  A    between atoms: C_12  and  C_30
REMARK    2  A    between atoms: C_13  and  C_19
REMARK    3  A    between atoms: C_16  and  N_22
REMARK    4  A    between atoms: C_30  and  C_31
REMARK    5  A    between atoms: C_30  and  O_37
REMARK                            x       y       z     vdW  Elec       q    Type
REMARK                         _______ _______ _______ _____ _____    ______ ____
ROOT
ATOM      1  O   UNL     1      32.666 -14.127 -20.371  0.00  0.00    -0.271 OA
ATOM      2  O   UNL     1      36.123 -21.774 -21.118  0.00  0.00    -0.270 OA
ATOM      3  N   UNL     1      33.565 -15.677 -21.834  0.00  0.00    -0.231 N 
ATOM      4  N   UNL     1      35.041 -18.467 -23.554  0.00  0.00    -0.273 N 
ATOM      5  N   UNL     1      35.343 -19.496 -22.723  0.00  0.00    -0.157 NA
ATOM      6  N   UNL     1      35.087 -19.804 -20.357  0.00  0.00    -0.264 N 
ATOM      7  C   UNL     1      33.829 -16.703 -20.773  0.00  0.00    +0.077 C 
ATOM      8  C   UNL     1      34.419 -17.776 -21.575  0.00  0.00    +0.067 A 
ATOM      9  C   UNL     1      33.975 -16.107 -23.213  0.00  0.00    +0.091 C 
ATOM     10  C   UNL     1      34.489 -17.434 -22.890  0.00  0.00    +0.093 A 
ATOM     11  C   UNL     1      34.957 -19.057 -21.510  0.00  0.00    +0.157 A 
ATOM     12  C   UNL     1      32.992 -14.455 -21.512  0.00  0.00    +0.265 C 
ATOM     13  C   UNL     1      35.645 -21.082 -20.225  0.00  0.00    +0.251 C 
ATOM     14  H   UNL     1      35.204 -18.476 -24.525  0.00  0.00    +0.189 HD
ATOM     15  H   UNL     1      34.747 -19.391 -19.530  0.00  0.00    +0.157 HD
ENDROOT
BRANCH  13  19
ATOM     16  C   UNL     1      35.727 -22.641 -16.244  0.00  0.00    +0.048 C 
ATOM     17  C   UNL     1      36.830 -21.950 -16.745  0.00  0.00    +0.015 C 
ATOM     18  C   UNL     1      34.597 -22.824 -17.042  0.00  0.00    +0.015 C 
ATOM     19  C   UNL     1      35.674 -21.624 -18.842  0.00  0.00    +0.054 C 
ATOM     20  C   UNL     1      36.803 -21.441 -18.044  0.00  0.00    +0.006 C 
ATOM     21  C   UNL     1      34.571 -22.316 -18.340  0.00  0.00    +0.006 C 
BRANCH  16  22
ATOM     22  N   UNL     1      35.754 -23.153 -14.942  0.00  0.00    -0.312 N 
ATOM     23  N   UNL     1      35.877 -24.426 -12.388  0.00  0.00    +0.388 N 
ATOM     24  C   UNL     1      37.023 -23.207 -14.209  0.00  0.00    +0.068 C 
ATOM     25  C   UNL     1      34.770 -24.181 -14.584  0.00  0.00    +0.068 C 
ATOM     26  C   UNL     1      36.769 -23.302 -12.703  0.00  0.00    -0.056 C 
ATOM     27  C   UNL     1      34.588 -24.244 -13.066  0.00  0.00    -0.056 C 
ATOM     28  C   UNL     1      35.686 -24.540 -10.943  0.00  0.00    -0.101 C 
ATOM     29  H   UNL     1      36.305 -25.290 -12.721  0.00  0.00    -0.080 HD
ENDBRANCH  16  22
ENDBRANCH  13  19
BRANCH  12  30
ATOM     30  C   UNL     1      32.780 -13.513 -22.671  0.00  0.00    +0.214 C 
BRANCH  30  31
ATOM     31  C   UNL     1      32.330 -12.163 -22.190  0.00  0.00    +0.013 C 
ATOM     32  C   UNL     1      32.697 -11.015 -22.892  0.00  0.00    -0.001 C 
ATOM     33  C   UNL     1      31.544 -12.057 -21.042  0.00  0.00    -0.001 C 
ATOM     34  C   UNL     1      32.279  -9.761 -22.447  0.00  0.00    -0.000 C 
ATOM     35  C   UNL     1      31.127 -10.803 -20.596  0.00  0.00    -0.000 C 
ATOM     36  C   UNL     1      31.494  -9.655 -21.298  0.00  0.00    -0.000 C 
ENDBRANCH  30  31
BRANCH  30  37
ATOM     37  O   UNL     1      34.011 -13.417 -23.362  0.00  0.00    -0.340 OA
ATOM     38  C   UNL     1      33.817 -13.180 -24.753  0.00  0.00    +0.175 C 
ENDBRANCH  30  37
ENDBRANCH  12  30
TORSDOF 5
ENDMDL
MODEL 3
REMARK VINA RESULT:     -12.0      0.418      1.234
REMARK  Name = 11442891
REMARK  5 active torsions:
REMARK  status: ('A' for Active; 'I' for Inactive)
REMARK    1  A    between atoms: C_12  and  C_30
REMARK    2  A    between atoms: C_13  and  C_19
REMARK    3  A    between atoms: C_16  and  N_22
REMARK    4  A    between atoms: C_30  and  C_31
REMARK    5  A    between atoms: C_30  and  O_37
REMARK                            x       y       z     vdW  Elec       q    Type
REMARK                         _______ _______ _______ _____ _____    ______ ____
ROOT
ATOM      1  O   UNL     1      31.957 -12.054 -21.010  0.00  0.00    -0.271 OA
ATOM      2  O   UNL     1      35.176 -19.358 -23.707  0.00  0.00    -0.270 OA
ATOM      3  N   UNL     1      32.760 -13.223 -22.838  0.00  0.00    -0.231 N 
ATOM      4  N   UNL     1      34.096 -15.546 -25.235  0.00  0.00    -0.273 N 
ATOM      5  N   UNL     1      34.400 -16.749 -24.687  0.00  0.00    -0.157 NA
ATOM      6  N   UNL     1      34.222 -17.610 -22.455  0.00  0.00    -0.264 N 
ATOM      7  C   UNL     1      33.035 -14.479 -22.064  0.00  0.00    +0.077 C 
ATOM      8  C   UNL     1      33.565 -15.338 -23.124  0.00  0.00    +0.067 A 
ATOM      9  C   UNL     1      33.108 -13.317 -24.296  0.00  0.00    +0.091 C 
ATOM     10  C   UNL     1      33.597 -14.692 -24.320  0.00  0.00    +0.093 A 
ATOM     11  C   UNL     1      34.071 -16.607 -23.389  0.00  0.00    +0.157 A 
ATOM     12  C   UNL     1      32.233 -12.105 -22.210  0.00  0.00    +0.265 C 
ATOM     13  C   UNL     1      34.750 -18.892 -22.656  0.00  0.00    +0.251 C 
ATOM     14  H   UNL     1      34.223 -15.323 -26.186  0.00  0.00    +0.189 HD
ATOM     15  H   UNL     1      33.924 -17.402 -21.540  0.00  0.00    +0.157 HD
ENDROOT
BRANCH  13  19
ATOM     16  C   UNL     1      34.934 -21.362 -19.169  0.00  0.00    +0.048 C 
ATOM     17  C   UNL     1      33.697 -20.989 -19.695  0.00  0.00    +0.015 C 
ATOM     18  C   UNL     1      36.111 -20.929 -19.780  0.00  0.00    +0.015 C 
ATOM     19  C   UNL     1      34.814 -19.751 -21.444  0.00  0.00    +0.054 C 
ATOM     20  C   UNL     1      33.637 -20.183 -20.833  0.00  0.00    +0.006 C 
ATOM     21  C   UNL     1      36.051 -20.124 -20.918  0.00  0.00    +0.006 C 
BRANCH  16  22
ATOM     22  N   UNL     1      34.995 -22.168 -18.028  0.00  0.00    -0.312 N 
ATOM     23  N   UNL     1      35.055 -23.604 -15.559  0.00  0.00    +0.388 N 
ATOM     24  C   UNL     1      33.768 -22.775 -17.501  0.00  0.00    +0.068 C 
ATOM     25  C   UNL     1      36.039 -21.884 -17.036  0.00  0.00    +0.068 C 
ATOM     26  C   UNL     1      34.101 -23.976 -16.612  0.00  0.00    -0.056 C 
ATOM     27  C   UNL     1      36.299 -23.114 -16.164  0.00  0.00    -0.056 C 
ATOM     28  C   UNL     1      35.323 -24.745 -14.684  0.00  0.00    -0.101 C 
ATOM     29  H   UNL     1      34.647 -22.860 -14.993  0.00  0.00    -0.080 HD
ENDBRANCH  16  22
ENDBRANCH  13  19
BRANCH  12  30
ATOM     30  C   UNL     1      32.004 -10.909 -23.100  0.00  0.00    +0.214 C 
BRANCH  30  31
ATOM     31  C   UNL     1      31.960  -9.641 -22.296  0.00  0.00    +0.013 C 
ATOM     32  C   UNL     1      32.291  -9.662 -20.940  0.00  0.00    -0.001 C 
ATOM     33  C   UNL     1      31.588  -8.441 -22.903  0.00  0.00    -0.001 C 
ATOM     34  C   UNL     1      32.250  -8.486 -20.193  0.00  0.00    -0.000 C 
ATOM     35  C   UNL     1      31.547  -7.264 -22.156  0.00  0.00    -0.000 C 
ATOM     36  C   UNL     1      31.878  -7.286 -20.801  0.00  0.00    -0.000 C 
ENDBRANCH  30  31
BRANCH  30  37
ATOM     37  O   UNL     1      33.064 -10.875 -24.036  0.00  0.00    -0.340 OA
ATOM     38  C   UNL     1      34.032  -9.885 -23.702  0.00  0.00    +0.175 C 
ENDBRANCH  30  37
ENDBRANCH  12  30
TORSDOF 5
ENDMDL
MODEL 4
REMARK VINA RESULT:     -12.0      1.795      2.993
REMARK  Name = 11442891
REMARK  5 active torsions:
REMARK  status: ('A' for Active; 'I' for Inactive)
REMARK    1  A    between atoms: C_12  and  C_30
REMARK    2  A    between atoms: C_13  and  C_19
REMARK    3  A    between atoms: C_16  and  N_22
REMARK    4  A    between atoms: C_30  and  C_31
REMARK    5  A    between atoms: C_30  and  O_37
REMARK                            x       y       z     vdW  Elec       q    Type
REMARK                         _______ _______ _______ _____ _____    ______ ____
ROOT
ATOM      1  O   UNL     1      33.041  -9.510 -21.918  0.00  0.00    -0.271 OA
ATOM      2  O   UNL     1      34.472 -16.825 -25.845  0.00  0.00    -0.270 OA
ATOM      3  N   UNL     1      33.352 -10.546 -23.963  0.00  0.00    -0.231 N 
ATOM      4  N   UNL     1      33.893 -12.722 -26.774  0.00  0.00    -0.273 N 
ATOM      5  N   UNL     1      34.050 -14.019 -26.409  0.00  0.00    -0.157 NA
ATOM      6  N   UNL     1      34.037 -15.124 -24.280  0.00  0.00    -0.264 N 
ATOM      7  C   UNL     1      33.502 -11.919 -23.379  0.00  0.00    +0.077 C 
ATOM      8  C   UNL     1      33.713 -12.707 -24.594  0.00  0.00    +0.067 A 
ATOM      9  C   UNL     1      33.467 -10.504 -25.460  0.00  0.00    +0.091 C 
ATOM     10  C   UNL     1      33.691 -11.925 -25.706  0.00  0.00    +0.093 A 
ATOM     11  C   UNL     1      33.938 -13.996 -25.068  0.00  0.00    +0.157 A 
ATOM     12  C   UNL     1      33.130  -9.448 -23.145  0.00  0.00    +0.265 C 
ATOM     13  C   UNL     1      34.291 -16.437 -24.696  0.00  0.00    +0.251 C 
ATOM     14  H   UNL     1      33.922 -12.401 -27.704  0.00  0.00    +0.189 HD
ATOM     15  H   UNL     1      33.915 -14.991 -23.312  0.00  0.00    +0.157 HD
ENDROOT
BRANCH  13  19
ATOM     16  C   UNL     1      34.518 -19.338 -21.561  0.00  0.00    +0.048 C 
ATOM     17  C   UNL     1      34.691 -19.730 -22.889  0.00  0.00    +0.015 C 
ATOM     18  C   UNL     1      34.272 -17.999 -21.256  0.00  0.00    +0.015 C 
ATOM     19  C   UNL     1      34.370 -17.445 -23.606  0.00  0.00    +0.054 C 
ATOM     20  C   UNL     1      34.617 -18.784 -23.911  0.00  0.00    +0.006 C 
ATOM     21  C   UNL     1      34.197 -17.053 -22.279  0.00  0.00    +0.006 C 
BRANCH  16  22
ATOM     22  N   UNL     1      34.591 -20.286 -20.536  0.00  0.00    -0.312 N 
ATOM     23  N   UNL     1      34.709 -22.406 -18.624  0.00  0.00    +0.388 N 
ATOM     24  C   UNL     1      35.873 -20.929 -20.230  0.00  0.00    +0.068 C 
ATOM     25  C   UNL     1      33.395 -21.088 -20.250  0.00  0.00    +0.068 C 
ATOM     26  C   UNL     1      35.858 -21.512 -18.815  0.00  0.00    -0.056 C 
ATOM     27  C   UNL     1      33.460 -21.663 -18.834  0.00  0.00    -0.056 C 
ATOM     28  C   UNL     1      34.736 -22.997 -17.287  0.00  0.00    -0.101 C 
ATOM     29  H   UNL     1      34.762 -23.161 -19.307  0.00  0.00    -0.080 HD
ENDBRANCH  16  22
ENDBRANCH  13  19
BRANCH  12  30
ATOM     30  C   UNL     1      32.997  -8.125 -23.857  0.00  0.00    +0.214 C 
BRANCH  30  31
ATOM     31  C   UNL     1      32.184  -7.157 -23.046  0.00  0.00    +0.013 C 
ATOM     32  C   UNL     1      32.585  -6.820 -21.753  0.00  0.00    -0.001 C 
ATOM     33  C   UNL     1      31.027  -6.594 -23.585  0.00  0.00    -0.001 C 
ATOM     34  C   UNL     1      31.831  -5.922 -21.000  0.00  0.00    -0.000 C 
ATOM     35  C   UNL     1      30.271  -5.696 -22.832  0.00  0.00    -0.000 C 
ATOM     36  C   UNL     1      30.673  -5.360 -21.539  0.00  0.00    -0.000 C 
ENDBRANCH  30  31
BRANCH  30  37
ATOM     37  O   UNL     1      34.306  -7.631 -24.068  0.00  0.00    -0.340 OA
ATOM     38  C   UNL     1      34.326  -6.586 -25.036  0.00  0.00    +0.175 C 
ENDBRANCH  30  37
ENDBRANCH  12  30
TORSDOF 5
ENDMDL
MODEL 5
REMARK VINA RESULT:     -11.2      2.134      4.131
REMARK  Name = 11442891
REMARK  5 active torsions:
REMARK  status: ('A' for Active; 'I' for Inactive)
REMARK    1  A    between atoms: C_12  and  C_30
REMARK    2  A    between atoms: C_13  and  C_19
REMARK    3  A    between atoms: C_16  and  N_22
REMARK    4  A    between atoms: C_30  and  C_31
REMARK    5  A    between atoms: C_30  and  O_37
REMARK                            x       y       z     vdW  Elec       q    Type
REMARK                         _______ _______ _______ _____ _____    ______ ____
ROOT
ATOM      1  O   UNL     1      32.098 -13.721 -21.513  0.00  0.00    -0.271 OA
ATOM      2  O   UNL     1      36.146 -21.092 -21.007  0.00  0.00    -0.270 OA
ATOM      3  N   UNL     1      33.806 -15.020 -22.377  0.00  0.00    -0.231 N 
ATOM      4  N   UNL     1      36.259 -17.495 -23.262  0.00  0.00    -0.273 N 
ATOM      5  N   UNL     1      36.155 -18.625 -22.519  0.00  0.00    -0.157 NA
ATOM      6  N   UNL     1      34.670 -19.279 -20.752  0.00  0.00    -0.264 N 
ATOM      7  C   UNL     1      33.544 -16.183 -21.466  0.00  0.00    +0.077 C 
ATOM      8  C   UNL     1      34.582 -17.112 -21.910  0.00  0.00    +0.067 A 
ATOM      9  C   UNL     1      34.949 -15.235 -23.326  0.00  0.00    +0.091 C 
ATOM     10  C   UNL     1      35.331 -16.582 -22.914  0.00  0.00    +0.093 A 
ATOM     11  C   UNL     1      35.122 -18.377 -21.692  0.00  0.00    +0.157 A 
ATOM     12  C   UNL     1      33.031 -13.872 -22.303  0.00  0.00    +0.265 C 
ATOM     13  C   UNL     1      35.189 -20.549 -20.467  0.00  0.00    +0.251 C 
ATOM     14  H   UNL     1      36.930 -17.358 -23.969  0.00  0.00    +0.189 HD
ATOM     15  H   UNL     1      33.891 -18.999 -20.218  0.00  0.00    +0.157 HD
ENDROOT
BRANCH  13  19
ATOM     16  C   UNL     1      33.219 -22.667 -17.317  0.00  0.00    +0.048 C 
ATOM     17  C   UNL     1      32.468 -22.010 -18.292  0.00  0.00    +0.015 C 
ATOM     18  C   UNL     1      34.612 -22.633 -17.370  0.00  0.00    +0.015 C 
ATOM     19  C   UNL     1      34.504 -21.285 -19.372  0.00  0.00    +0.054 C 
ATOM     20  C   UNL     1      33.111 -21.319 -19.320  0.00  0.00    +0.006 C 
ATOM     21  C   UNL     1      35.255 -21.942 -18.397  0.00  0.00    +0.006 C 
BRANCH  16  22
ATOM     22  N   UNL     1      32.575 -23.358 -16.286  0.00  0.00    -0.312 N 
ATOM     23  N   UNL     1      31.263 -24.979 -14.334  0.00  0.00    +0.388 N 
ATOM     24  C   UNL     1      33.365 -24.154 -15.341  0.00  0.00    +0.068 C 
ATOM     25  C   UNL     1      31.203 -23.827 -16.519  0.00  0.00    +0.068 C 
ATOM     26  C   UNL     1      32.578 -24.392 -14.049  0.00  0.00    -0.056 C 
ATOM     27  C   UNL     1      30.487 -24.073 -15.190  0.00  0.00    -0.056 C 
ATOM     28  C   UNL     1      30.543 -25.251 -13.090  0.00  0.00    -0.101 C 
ATOM     29  H   UNL     1      31.395 -25.863 -14.824  0.00  0.00    -0.080 HD
ENDBRANCH  16  22
ENDBRANCH  13  19
BRANCH  12  30
ATOM     30  C   UNL     1      33.398 -12.777 -23.273  0.00  0.00    +0.214 C 
BRANCH  30  31
ATOM     31  C   UNL     1      33.263 -13.249 -24.692  0.00  0.00    +0.013 C 
ATOM     32  C   UNL     1      33.677 -12.428 -25.742  0.00  0.00    -0.001 C 
ATOM     33  C   UNL     1      32.724 -14.507 -24.962  0.00  0.00    -0.001 C 
ATOM     34  C   UNL     1      33.552 -12.865 -27.060  0.00  0.00    -0.000 C 
ATOM     35  C   UNL     1      32.598 -14.944 -26.280  0.00  0.00    -0.000 C 
ATOM     36  C   UNL     1      33.012 -14.124 -27.330  0.00  0.00    -0.000 C 
ENDBRANCH  30  31
BRANCH  30  37
ATOM     37  O   UNL     1      32.534 -11.687 -23.020  0.00  0.00    -0.340 OA
ATOM     38  C   UNL     1      33.176 -10.438 -23.258  0.00  0.00    +0.175 C 
ENDBRANCH  30  37
ENDBRANCH  12  30
TORSDOF 5
ENDMDL
MODEL 6
REMARK VINA RESULT:     -10.9      1.221      2.019
REMARK  Name = 11442891
REMARK  5 active torsions:
REMARK  status: ('A' for Active; 'I' for Inactive)
REMARK    1  A    between atoms: C_12  and  C_30
REMARK    2  A    between atoms: C_13  and  C_19
REMARK    3  A    between atoms: C_16  and  N_22
REMARK    4  A    between atoms: C_30  and  C_31
REMARK    5  A    between atoms: C_30  and  O_37
REMARK                            x       y       z     vdW  Elec       q    Type
REMARK                         _______ _______ _______ _____ _____    ______ ____
ROOT
ATOM      1  O   UNL     1      31.800 -12.851 -20.318  0.00  0.00    -0.271 OA
ATOM      2  O   UNL     1      35.596 -19.914 -22.903  0.00  0.00    -0.270 OA
ATOM      3  N   UNL     1      32.656 -13.998 -22.135  0.00  0.00    -0.231 N 
ATOM      4  N   UNL     1      34.133 -16.263 -24.505  0.00  0.00    -0.273 N 
ATOM      5  N   UNL     1      34.560 -17.416 -23.932  0.00  0.00    -0.157 NA
ATOM      6  N   UNL     1      34.522 -18.221 -21.672  0.00  0.00    -0.264 N 
ATOM      7  C   UNL     1      33.065 -15.199 -21.335  0.00  0.00    +0.077 C 
ATOM      8  C   UNL     1      33.643 -16.039 -22.385  0.00  0.00    +0.067 A 
ATOM      9  C   UNL     1      32.972 -14.105 -23.599  0.00  0.00    +0.091 C 
ATOM     10  C   UNL     1      33.583 -15.431 -23.600  0.00  0.00    +0.093 A 
ATOM     11  C   UNL     1      34.254 -17.265 -22.630  0.00  0.00    +0.157 A 
ATOM     12  C   UNL     1      32.047 -12.913 -21.523  0.00  0.00    +0.265 C 
ATOM     13  C   UNL     1      35.159 -19.456 -21.853  0.00  0.00    +0.251 C 
ATOM     14  H   UNL     1      34.214 -16.060 -25.465  0.00  0.00    +0.189 HD
ATOM     15  H   UNL     1      34.231 -18.013 -20.755  0.00  0.00    +0.157 HD
ENDROOT
BRANCH  13  19
ATOM     16  C   UNL     1      35.661 -21.791 -18.305  0.00  0.00    +0.048 C 
ATOM     17  C   UNL     1      36.631 -20.856 -18.668  0.00  0.00    +0.015 C 
ATOM     18  C   UNL     1      34.528 -21.965 -19.100  0.00  0.00    +0.015 C 
ATOM     19  C   UNL     1      35.333 -20.268 -20.620  0.00  0.00    +0.054 C 
ATOM     20  C   UNL     1      36.467 -20.094 -19.825  0.00  0.00    +0.006 C 
ATOM     21  C   UNL     1      34.364 -21.203 -20.257  0.00  0.00    +0.006 C 
BRANCH  16  22
ATOM     22  N   UNL     1      35.826 -22.556 -17.146  0.00  0.00    -0.312 N 
ATOM     23  N   UNL     1      36.117 -23.901 -14.643  0.00  0.00    +0.388 N 
ATOM     24  C   UNL     1      34.650 -23.117 -16.473  0.00  0.00    +0.068 C 
ATOM     25  C   UNL     1      36.972 -22.258 -16.278  0.00  0.00    +0.068 C 
ATOM     26  C   UNL     1      35.053 -24.291 -15.577  0.00  0.00    -0.056 C 
ATOM     27  C   UNL     1      37.301 -23.460 -15.391  0.00  0.00    -0.056 C 
ATOM     28  C   UNL     1      36.456 -25.015 -13.757  0.00  0.00    -0.101 C 
ATOM     29  H   UNL     1      35.784 -23.129 -14.068  0.00  0.00    -0.080 HD
ENDBRANCH  16  22
ENDBRANCH  13  19
BRANCH  12  30
ATOM     30  C   UNL     1      31.686 -11.770 -22.439  0.00  0.00    +0.214 C 
BRANCH  30  31
ATOM     31  C   UNL     1      31.748 -10.458 -21.711  0.00  0.00    +0.013 C 
ATOM     32  C   UNL     1      31.963 -10.434 -20.333  0.00  0.00    -0.001 C 
ATOM     33  C   UNL     1      31.590  -9.262 -22.413  0.00  0.00    -0.001 C 
ATOM     34  C   UNL     1      32.020  -9.216 -19.657  0.00  0.00    -0.000 C 
ATOM     35  C   UNL     1      31.646  -8.044 -21.737  0.00  0.00    -0.000 C 
ATOM     36  C   UNL     1      31.861  -8.020 -20.359  0.00  0.00    -0.000 C 
ENDBRANCH  30  31
BRANCH  30  37
ATOM     37  O   UNL     1      32.603 -11.792 -23.516  0.00  0.00    -0.340 OA
ATOM     38  C   UNL     1      33.472 -10.664 -23.494  0.00  0.00    +0.175 C 
ENDBRANCH  30  37
ENDBRANCH  12  30
TORSDOF 5
ENDMDL
MODEL 7
REMARK VINA RESULT:     -10.4      2.845     12.021
REMARK  Name = 11442891
REMARK  5 active torsions:
REMARK  status: ('A' for Active; 'I' for Inactive)
REMARK    1  A    between atoms: C_12  and  C_30
REMARK    2  A    between atoms: C_13  and  C_19
REMARK    3  A    between atoms: C_16  and  N_22
REMARK    4  A    between atoms: C_30  and  C_31
REMARK    5  A    between atoms: C_30  and  O_37
REMARK                            x       y       z     vdW  Elec       q    Type
REMARK                         _______ _______ _______ _____ _____    ______ ____
ROOT
ATOM      1  O   UNL     1      30.589 -21.887 -17.073  0.00  0.00    -0.271 OA
ATOM      2  O   UNL     1      36.480 -18.636 -22.143  0.00  0.00    -0.270 OA
ATOM      3  N   UNL     1      32.619 -22.258 -18.117  0.00  0.00    -0.231 N 
ATOM      4  N   UNL     1      35.693 -22.206 -19.981  0.00  0.00    -0.273 N 
ATOM      5  N   UNL     1      35.893 -21.032 -20.631  0.00  0.00    -0.157 NA
ATOM      6  N   UNL     1      34.605 -19.012 -20.773  0.00  0.00    -0.264 N 
ATOM      7  C   UNL     1      32.672 -20.904 -18.760  0.00  0.00    +0.077 C 
ATOM      8  C   UNL     1      33.943 -20.995 -19.479  0.00  0.00    +0.067 A 
ATOM      9  C   UNL     1      33.802 -23.128 -18.432  0.00  0.00    +0.091 C 
ATOM     10  C   UNL     1      34.538 -22.203 -19.289  0.00  0.00    +0.093 A 
ATOM     11  C   UNL     1      34.810 -20.297 -20.315  0.00  0.00    +0.157 A 
ATOM     12  C   UNL     1      31.548 -22.621 -17.315  0.00  0.00    +0.265 C 
ATOM     13  C   UNL     1      35.425 -18.273 -21.636  0.00  0.00    +0.251 C 
ATOM     14  H   UNL     1      36.317 -22.967 -20.011  0.00  0.00    +0.189 HD
ATOM     15  H   UNL     1      33.789 -18.562 -20.457  0.00  0.00    +0.157 HD
ENDROOT
BRANCH  13  19
ATOM     16  C   UNL     1      33.989 -14.366 -22.619  0.00  0.00    +0.048 C 
ATOM     17  C   UNL     1      34.428 -15.223 -23.629  0.00  0.00    +0.015 C 
ATOM     18  C   UNL     1      34.019 -14.783 -21.289  0.00  0.00    +0.015 C 
ATOM     19  C   UNL     1      34.926 -16.915 -21.978  0.00  0.00    +0.054 C 
ATOM     20  C   UNL     1      34.896 -16.497 -23.308  0.00  0.00    +0.006 C 
ATOM     21  C   UNL     1      34.487 -16.058 -20.968  0.00  0.00    +0.006 C 
BRANCH  16  22
ATOM     22  N   UNL     1      33.521 -13.087 -22.940  0.00  0.00    -0.312 N 
ATOM     23  N   UNL     1      32.428 -10.588 -23.787  0.00  0.00    +0.388 N 
ATOM     24  C   UNL     1      32.237 -12.628 -22.402  0.00  0.00    +0.068 C 
ATOM     25  C   UNL     1      33.908 -12.515 -24.236  0.00  0.00    +0.068 C 
ATOM     26  C   UNL     1      32.156 -11.099 -22.437  0.00  0.00    -0.056 C 
ATOM     27  C   UNL     1      33.774 -10.991 -24.210  0.00  0.00    -0.056 C 
ATOM     28  C   UNL     1      32.294  -9.132 -23.820  0.00  0.00    -0.101 C 
ATOM     29  H   UNL     1      31.746 -10.983 -24.433  0.00  0.00    -0.080 HD
ENDBRANCH  16  22
ENDBRANCH  13  19
BRANCH  12  30
ATOM     30  C   UNL     1      31.618 -24.009 -16.729  0.00  0.00    +0.214 C 
BRANCH  30  31
ATOM     31  C   UNL     1      32.490 -24.034 -15.507  0.00  0.00    +0.013 C 
ATOM     32  C   UNL     1      33.777 -24.567 -15.579  0.00  0.00    -0.001 C 
ATOM     33  C   UNL     1      32.013 -23.526 -14.298  0.00  0.00    -0.001 C 
ATOM     34  C   UNL     1      34.588 -24.591 -14.445  0.00  0.00    -0.000 C 
ATOM     35  C   UNL     1      32.823 -23.550 -13.163  0.00  0.00    -0.000 C 
ATOM     36  C   UNL     1      34.110 -24.083 -13.236  0.00  0.00    -0.000 C 
ENDBRANCH  30  31
BRANCH  30  37
ATOM     37  O   UNL     1      30.295 -24.396 -16.412  0.00  0.00    -0.340 OA
ATOM     38  C   UNL     1      30.260 -25.639 -15.718  0.00  0.00    +0.175 C 
ENDBRANCH  30  37
ENDBRANCH  12  30
TORSDOF 5
ENDMDL
MODEL 8
REMARK VINA RESULT:     -10.3      2.073      3.631
REMARK  Name = 11442891
REMARK  5 active torsions:
REMARK  status: ('A' for Active; 'I' for Inactive)
REMARK    1  A    between atoms: C_12  and  C_30
REMARK    2  A    between atoms: C_13  and  C_19
REMARK    3  A    between atoms: C_16  and  N_22
REMARK    4  A    between atoms: C_30  and  C_31
REMARK    5  A    between atoms: C_30  and  O_37
REMARK                            x       y       z     vdW  Elec       q    Type
REMARK                         _______ _______ _______ _____ _____    ______ ____
ROOT
ATOM      1  O   UNL     1      31.888  -9.278 -20.517  0.00  0.00    -0.271 OA
ATOM      2  O   UNL     1      34.526 -15.707 -25.280  0.00  0.00    -0.270 OA
ATOM      3  N   UNL     1      32.536  -9.938 -22.637  0.00  0.00    -0.231 N 
ATOM      4  N   UNL     1      33.618 -11.575 -25.650  0.00  0.00    -0.273 N 
ATOM      5  N   UNL     1      33.871 -12.895 -25.467  0.00  0.00    -0.157 NA
ATOM      6  N   UNL     1      33.739 -14.326 -23.546  0.00  0.00    -0.264 N 
ATOM      7  C   UNL     1      32.766 -11.369 -22.251  0.00  0.00    +0.077 C 
ATOM      8  C   UNL     1      33.195 -11.929 -23.533  0.00  0.00    +0.067 A 
ATOM      9  C   UNL     1      32.813  -9.645 -24.084  0.00  0.00    +0.091 C 
ATOM     10  C   UNL     1      33.214 -10.982 -24.510  0.00  0.00    +0.093 A 
ATOM     11  C   UNL     1      33.608 -13.099 -24.163  0.00  0.00    +0.157 A 
ATOM     12  C   UNL     1      32.107  -9.011 -21.699  0.00  0.00    +0.265 C 
ATOM     13  C   UNL     1      34.177 -15.528 -24.118  0.00  0.00    +0.251 C 
ATOM     14  H   UNL     1      33.717 -11.107 -26.510  0.00  0.00    +0.189 HD
ATOM     15  H   UNL     1      33.495 -14.363 -22.593  0.00  0.00    +0.157 HD
ENDROOT
BRANCH  13  19
ATOM     16  C   UNL     1      34.360 -18.865 -21.450  0.00  0.00    +0.048 C 
ATOM     17  C   UNL     1      34.660 -19.035 -22.802  0.00  0.00    +0.015 C 
ATOM     18  C   UNL     1      34.001 -17.606 -20.969  0.00  0.00    +0.015 C 
ATOM     19  C   UNL     1      34.240 -16.688 -23.191  0.00  0.00    +0.054 C 
ATOM     20  C   UNL     1      34.600 -17.946 -23.672  0.00  0.00    +0.006 C 
ATOM     21  C   UNL     1      33.941 -16.517 -21.839  0.00  0.00    +0.006 C 
BRANCH  16  22
ATOM     22  N   UNL     1      34.418 -19.956 -20.577  0.00  0.00    -0.312 N 
ATOM     23  N   UNL     1      34.496 -22.338 -19.001  0.00  0.00    +0.388 N 
ATOM     24  C   UNL     1      35.681 -20.682 -20.405  0.00  0.00    +0.068 C 
ATOM     25  C   UNL     1      33.198 -20.749 -20.379  0.00  0.00    +0.068 C 
ATOM     26  C   UNL     1      35.675 -21.466 -19.090  0.00  0.00    -0.056 C 
ATOM     27  C   UNL     1      33.273 -21.529 -19.065  0.00  0.00    -0.056 C 
ATOM     28  C   UNL     1      34.529 -23.121 -17.767  0.00  0.00    -0.101 C 
ATOM     29  H   UNL     1      34.505 -22.985 -19.788  0.00  0.00    -0.080 HD
ENDBRANCH  16  22
ENDBRANCH  13  19
BRANCH  12  30
ATOM     30  C   UNL     1      31.914  -7.607 -22.216  0.00  0.00    +0.214 C 
BRANCH  30  31
ATOM     31  C   UNL     1      33.007  -7.232 -23.177  0.00  0.00    +0.013 C 
ATOM     32  C   UNL     1      34.324  -7.613 -22.918  0.00  0.00    -0.001 C 
ATOM     33  C   UNL     1      32.706  -6.504 -24.327  0.00  0.00    -0.001 C 
ATOM     34  C   UNL     1      35.339  -7.266 -23.809  0.00  0.00    -0.000 C 
ATOM     35  C   UNL     1      33.720  -6.156 -25.218  0.00  0.00    -0.000 C 
ATOM     36  C   UNL     1      35.037  -6.537 -24.960  0.00  0.00    -0.000 C 
ENDBRANCH  30  31
BRANCH  30  37
ATOM     37  O   UNL     1      30.650  -7.564 -22.850  0.00  0.00    -0.340 OA
ATOM     38  C   UNL     1      30.067  -6.267 -22.778  0.00  0.00    +0.175 C 
ENDBRANCH  30  37
ENDBRANCH  12  30
TORSDOF 5
ENDMDL
MODEL 9
REMARK VINA RESULT:     -10.1      1.714      2.636
REMARK  Name = 11442891
REMARK  5 active torsions:
REMARK  status: ('A' for Active; 'I' for Inactive)
REMARK    1  A    between atoms: C_12  and  C_30
REMARK    2  A    between atoms: C_13  and  C_19
REMARK    3  A    between atoms: C_16  and  N_22
REMARK    4  A    between atoms: C_30  and  C_31
REMARK    5  A    between atoms: C_30  and  O_37
REMARK                            x       y       z     vdW  Elec       q    Type
REMARK                         _______ _______ _______ _____ _____    ______ ____
ROOT
ATOM      1  O   UNL     1      31.618 -13.831 -21.612  0.00  0.00    -0.271 OA
ATOM      2  O   UNL     1      36.383 -20.770 -21.267  0.00  0.00    -0.270 OA
ATOM      3  N   UNL     1      33.401 -14.966 -22.550  0.00  0.00    -0.231 N 
ATOM      4  N   UNL     1      36.039 -17.200 -23.540  0.00  0.00    -0.273 N 
ATOM      5  N   UNL     1      36.081 -18.328 -22.788  0.00  0.00    -0.157 NA
ATOM      6  N   UNL     1      34.751 -19.107 -20.949  0.00  0.00    -0.264 N 
ATOM      7  C   UNL     1      33.296 -16.141 -21.623  0.00  0.00    +0.077 C 
ATOM      8  C   UNL     1      34.399 -16.970 -22.112  0.00  0.00    +0.067 A 
ATOM      9  C   UNL     1      34.514 -15.078 -23.552  0.00  0.00    +0.091 C 
ATOM     10  C   UNL     1      35.044 -16.379 -23.153  0.00  0.00    +0.093 A 
ATOM     11  C   UNL     1      35.069 -18.173 -21.914  0.00  0.00    +0.157 A 
ATOM     12  C   UNL     1      32.522 -13.899 -22.445  0.00  0.00    +0.265 C 
ATOM     13  C   UNL     1      35.404 -20.318 -20.684  0.00  0.00    +0.251 C 
ATOM     14  H   UNL     1      36.660 -17.005 -24.279  0.00  0.00    +0.189 HD
ATOM     15  H   UNL     1      33.974 -18.898 -20.380  0.00  0.00    +0.157 HD
ENDROOT
BRANCH  13  19
ATOM     16  C   UNL     1      33.799 -22.587 -17.434  0.00  0.00    +0.048 C 
ATOM     17  C   UNL     1      32.943 -22.010 -18.371  0.00  0.00    +0.015 C 
ATOM     18  C   UNL     1      35.179 -22.425 -17.557  0.00  0.00    +0.015 C 
ATOM     19  C   UNL     1      34.846 -21.107 -19.554  0.00  0.00    +0.054 C 
ATOM     20  C   UNL     1      33.466 -21.269 -19.431  0.00  0.00    +0.006 C 
ATOM     21  C   UNL     1      35.703 -21.685 -18.617  0.00  0.00    +0.006 C 
BRANCH  16  22
ATOM     22  N   UNL     1      33.275 -23.329 -16.370  0.00  0.00    -0.312 N 
ATOM     23  N   UNL     1      32.178 -25.040 -14.363  0.00  0.00    +0.388 N 
ATOM     24  C   UNL     1      34.155 -24.210 -15.596  0.00  0.00    +0.068 C 
ATOM     25  C   UNL     1      31.868 -23.740 -16.442  0.00  0.00    +0.068 C 
ATOM     26  C   UNL     1      33.542 -24.513 -14.226  0.00  0.00    -0.056 C 
ATOM     27  C   UNL     1      31.329 -24.055 -15.044  0.00  0.00    -0.056 C 
ATOM     28  C   UNL     1      31.624 -25.376 -13.052  0.00  0.00    -0.101 C 
ATOM     29  H   UNL     1      32.209 -25.892 -14.922  0.00  0.00    -0.080 HD
ENDBRANCH  16  22
ENDBRANCH  13  19
BRANCH  12  30
ATOM     30  C   UNL     1      32.736 -12.782 -23.436  0.00  0.00    +0.214 C 
BRANCH  30  31
ATOM     31  C   UNL     1      32.492 -11.444 -22.799  0.00  0.00    +0.013 C 
ATOM     32  C   UNL     1      33.099 -10.302 -23.323  0.00  0.00    -0.001 C 
ATOM     33  C   UNL     1      31.660 -11.342 -21.685  0.00  0.00    -0.001 C 
ATOM     34  C   UNL     1      32.873  -9.059 -22.732  0.00  0.00    -0.000 C 
ATOM     35  C   UNL     1      31.434 -10.100 -21.093  0.00  0.00    -0.000 C 
ATOM     36  C   UNL     1      32.040  -8.957 -21.617  0.00  0.00    -0.000 C 
ENDBRANCH  30  31
BRANCH  30  37
ATOM     37  O   UNL     1      34.068 -12.884 -23.900  0.00  0.00    -0.340 OA
ATOM     38  C   UNL     1      34.240 -12.237 -25.157  0.00  0.00    +0.175 C 
ENDBRANCH  30  37
ENDBRANCH  12  30
TORSDOF 5
ENDMDL
