MODEL 1
REMARK VINA RESULT:      -2.9      0.000      0.000
REMARK  Name = 20054914
REMARK  3 active torsions:
REMARK  status: ('A' for Active; 'I' for Inactive)
REMARK    1  A    between atoms: C_10  and  C_30
REMARK    2  A    between atoms: C_30  and  C_31
REMARK    3  A    between atoms: C_31  and  O_32
REMARK                            x       y       z     vdW  Elec       q    Type
REMARK                         _______ _______ _______ _____ _____    ______ ____
ROOT
ATOM      1 CL   UNL     1      33.045 -25.825 -14.476  0.00  0.00    -0.114 Cl
ATOM      2 CL   UNL     1      33.929 -22.851 -17.595  0.00  0.00    -0.114 Cl
ATOM      3  F   UNL     1      30.991 -22.881 -11.680  0.00  0.00    -0.233 F 
ATOM      4  O   UNL     1      37.506 -25.497 -14.223  0.00  0.00    -0.330 OA
ATOM      5  O   UNL     1      38.056 -24.409 -12.213  0.00  0.00    -0.334 OA
ATOM      6  O   UNL     1      28.161 -25.825 -14.410  0.00  0.00    -0.287 OA
ATOM      7  C   UNL     1      36.158 -23.604 -15.094  0.00  0.00    +0.033 C 
ATOM      8  C   UNL     1      35.283 -23.656 -13.822  0.00  0.00    +0.007 C 
ATOM      9  C   UNL     1      33.838 -23.179 -14.049  0.00  0.00    +0.019 C 
ATOM     10  C   UNL     1      37.504 -24.098 -14.496  0.00  0.00    +0.173 C 
ATOM     11  C   UNL     1      33.120 -24.067 -15.147  0.00  0.00    +0.088 C 
ATOM     12  C   UNL     1      37.588 -23.418 -13.125  0.00  0.00    +0.149 C 
ATOM     13  C   UNL     1      36.152 -22.972 -12.763  0.00  0.00    +0.033 C 
ATOM     14  C   UNL     1      35.511 -24.526 -16.150  0.00  0.00    +0.020 C 
ATOM     15  C   UNL     1      34.012 -24.219 -16.444  0.00  0.00    +0.094 C 
ATOM     16  C   UNL     1      31.595 -23.613 -15.335  0.00  0.00    +0.050 C 
ATOM     17  C   UNL     1      33.060 -23.145 -12.719  0.00  0.00    +0.041 C 
ATOM     18  C   UNL     1      36.356 -22.162 -15.638  0.00  0.00    +0.003 C 
ATOM     19  C   UNL     1      38.026 -25.661 -12.901  0.00  0.00    +0.188 C 
ATOM     20  C   UNL     1      31.596 -22.762 -12.899  0.00  0.00    +0.180 C 
ATOM     21  C   UNL     1      30.924 -23.613 -13.949  0.00  0.00    -0.005 C 
ATOM     22  C   UNL     1      31.396 -22.180 -15.893  0.00  0.00    +0.010 C 
ATOM     23  C   UNL     1      30.867 -24.530 -16.309  0.00  0.00    -0.018 C 
ATOM     24  C   UNL     1      39.444 -26.214 -12.992  0.00  0.00    +0.061 C 
ATOM     25  C   UNL     1      37.132 -26.622 -12.122  0.00  0.00    +0.061 C 
ATOM     26  C   UNL     1      29.823 -24.327 -13.663  0.00  0.00    +0.036 C 
ATOM     27  C   UNL     1      29.771 -25.239 -16.024  0.00  0.00    +0.038 C 
ATOM     28  C   UNL     1      29.170 -25.181 -14.679  0.00  0.00    +0.195 C 
ENDROOT
BRANCH  10  30
ATOM     29  O   UNL     1      38.660 -23.004 -16.271  0.00  0.00    -0.291 OA
ATOM     30  C   UNL     1      38.692 -23.853 -15.381  0.00  0.00    +0.207 C 
BRANCH  30  31
ATOM     31  C   UNL     1      39.915 -24.704 -15.114  0.00  0.00    +0.204 C 
BRANCH  31  32
ATOM     32  O   UNL     1      40.096 -25.654 -16.141  0.00  0.00    -0.375 OA
ATOM     33  H   UNL     1      40.845 -26.230 -15.922  0.00  0.00    +0.211 HD
ENDBRANCH  31  32
ENDBRANCH  30  31
ENDBRANCH  10  30
TORSDOF 3
ENDMDL
MODEL 2
REMARK VINA RESULT:      -2.6     11.917     14.630
REMARK  Name = 20054914
REMARK  3 active torsions:
REMARK  status: ('A' for Active; 'I' for Inactive)
REMARK    1  A    between atoms: C_10  and  C_30
REMARK    2  A    between atoms: C_30  and  C_31
REMARK    3  A    between atoms: C_31  and  O_32
REMARK                            x       y       z     vdW  Elec       q    Type
REMARK                         _______ _______ _______ _____ _____    ______ ____
ROOT
ATOM      1 CL   UNL     1      34.799 -14.116 -20.857  0.00  0.00    -0.114 Cl
ATOM      2 CL   UNL     1      33.982 -13.719 -25.162  0.00  0.00    -0.114 Cl
ATOM      3  F   UNL     1      31.631 -17.300 -20.136  0.00  0.00    -0.233 F 
ATOM      4  O   UNL     1      32.993 -10.022 -21.096  0.00  0.00    -0.330 OA
ATOM      5  O   UNL     1      30.861 -10.093 -20.107  0.00  0.00    -0.334 OA
ATOM      6  O   UNL     1      36.308 -18.748 -20.519  0.00  0.00    -0.287 OA
ATOM      7  C   UNL     1      32.455 -11.731 -22.814  0.00  0.00    +0.033 C 
ATOM      8  C   UNL     1      32.062 -12.718 -21.693  0.00  0.00    +0.007 C 
ATOM      9  C   UNL     1      32.281 -14.194 -22.068  0.00  0.00    +0.019 C 
ATOM     10  C   UNL     1      32.074 -10.394 -22.121  0.00  0.00    +0.173 C 
ATOM     11  C   UNL     1      33.802 -14.465 -22.417  0.00  0.00    +0.088 C 
ATOM     12  C   UNL     1      30.760 -10.701 -21.393  0.00  0.00    +0.149 C 
ATOM     13  C   UNL     1      30.671 -12.239 -21.269  0.00  0.00    +0.033 C 
ATOM     14  C   UNL     1      33.957 -11.931 -23.112  0.00  0.00    +0.020 C 
ATOM     15  C   UNL     1      34.361 -13.398 -23.442  0.00  0.00    +0.094 C 
ATOM     16  C   UNL     1      34.042 -16.015 -22.742  0.00  0.00    +0.050 C 
ATOM     17  C   UNL     1      31.757 -15.123 -20.955  0.00  0.00    +0.041 C 
ATOM     18  C   UNL     1      31.592 -11.889 -24.096  0.00  0.00    +0.003 C 
ATOM     19  C   UNL     1      32.215  -9.663 -19.951  0.00  0.00    +0.188 C 
ATOM     20  C   UNL     1      32.028 -16.596 -21.236  0.00  0.00    +0.180 C 
ATOM     21  C   UNL     1      33.480 -16.841 -21.569  0.00  0.00    -0.005 C 
ATOM     22  C   UNL     1      33.318 -16.545 -24.006  0.00  0.00    +0.010 C 
ATOM     23  C   UNL     1      35.520 -16.304 -22.971  0.00  0.00    -0.018 C 
ATOM     24  C   UNL     1      32.240  -8.147 -19.791  0.00  0.00    +0.061 C 
ATOM     25  C   UNL     1      32.800 -10.336 -18.712  0.00  0.00    +0.061 C 
ATOM     26  C   UNL     1      34.217 -17.714 -20.863  0.00  0.00    +0.036 C 
ATOM     27  C   UNL     1      36.252 -17.174 -22.269  0.00  0.00    +0.038 C 
ATOM     28  C   UNL     1      35.645 -17.944 -21.167  0.00  0.00    +0.195 C 
ENDROOT
BRANCH  10  30
ATOM     29  O   UNL     1      30.928  -8.702 -23.348  0.00  0.00    -0.291 OA
ATOM     30  C   UNL     1      32.004  -9.220 -23.054  0.00  0.00    +0.207 C 
BRANCH  30  31
ATOM     31  C   UNL     1      33.324  -8.720 -23.602  0.00  0.00    +0.204 C 
BRANCH  31  32
ATOM     32  O   UNL     1      33.882  -7.745 -22.748  0.00  0.00    -0.375 OA
ATOM     33  H   UNL     1      34.651  -7.340 -23.178  0.00  0.00    +0.211 HD
ENDBRANCH  31  32
ENDBRANCH  30  31
ENDBRANCH  10  30
TORSDOF 3
ENDMDL
MODEL 3
REMARK VINA RESULT:      -2.3      2.437      7.466
REMARK  Name = 20054914
REMARK  3 active torsions:
REMARK  status: ('A' for Active; 'I' for Inactive)
REMARK    1  A    between atoms: C_10  and  C_30
REMARK    2  A    between atoms: C_30  and  C_31
REMARK    3  A    between atoms: C_31  and  O_32
REMARK                            x       y       z     vdW  Elec       q    Type
REMARK                         _______ _______ _______ _____ _____    ______ ____
ROOT
ATOM      1 CL   UNL     1      35.767 -25.741 -15.145  0.00  0.00    -0.114 Cl
ATOM      2 CL   UNL     1      35.578 -24.241 -11.013  0.00  0.00    -0.114 Cl
ATOM      3  F   UNL     1      37.772 -22.022 -16.833  0.00  0.00    -0.233 F 
ATOM      4  O   UNL     1      31.367 -25.122 -14.572  0.00  0.00    -0.330 OA
ATOM      5  O   UNL     1      30.699 -23.289 -15.884  0.00  0.00    -0.334 OA
ATOM      6  O   UNL     1      40.581 -25.951 -15.943  0.00  0.00    -0.287 OA
ATOM      7  C   UNL     1      33.000 -23.810 -13.241  0.00  0.00    +0.033 C 
ATOM      8  C   UNL     1      33.707 -23.387 -14.547  0.00  0.00    +0.007 C 
ATOM      9  C   UNL     1      35.211 -23.113 -14.372  0.00  0.00    +0.019 C 
ATOM     10  C   UNL     1      31.548 -23.955 -13.774  0.00  0.00    +0.173 C 
ATOM     11  C   UNL     1      35.957 -24.402 -13.833  0.00  0.00    +0.088 C 
ATOM     12  C   UNL     1      31.374 -22.776 -14.738  0.00  0.00    +0.149 C 
ATOM     13  C   UNL     1      32.795 -22.292 -15.107  0.00  0.00    +0.033 C 
ATOM     14  C   UNL     1      33.668 -25.111 -12.744  0.00  0.00    +0.020 C 
ATOM     15  C   UNL     1      35.215 -25.022 -12.583  0.00  0.00    +0.094 C 
ATOM     16  C   UNL     1      37.533 -24.138 -13.715  0.00  0.00    +0.050 C 
ATOM     17  C   UNL     1      35.825 -22.582 -15.683  0.00  0.00    +0.041 C 
ATOM     18  C   UNL     1      33.021 -22.704 -12.151  0.00  0.00    +0.003 C 
ATOM     19  C   UNL     1      30.679 -24.712 -15.757  0.00  0.00    +0.188 C 
ATOM     20  C   UNL     1      37.332 -22.376 -15.590  0.00  0.00    +0.180 C 
ATOM     21  C   UNL     1      38.031 -23.610 -15.073  0.00  0.00    -0.005 C 
ATOM     22  C   UNL     1      37.947 -23.064 -12.676  0.00  0.00    +0.010 C 
ATOM     23  C   UNL     1      38.271 -25.404 -13.302  0.00  0.00    -0.018 C 
ATOM     24  C   UNL     1      29.232 -25.185 -15.678  0.00  0.00    +0.061 C 
ATOM     25  C   UNL     1      31.368 -25.319 -16.976  0.00  0.00    +0.061 C 
ATOM     26  C   UNL     1      39.009 -24.201 -15.780  0.00  0.00    +0.036 C 
ATOM     27  C   UNL     1      39.245 -25.990 -14.005  0.00  0.00    +0.038 C 
ATOM     28  C   UNL     1      39.685 -25.423 -15.293  0.00  0.00    +0.195 C 
ENDROOT
BRANCH  10  30
ATOM     29  O   UNL     1      30.031 -25.109 -12.343  0.00  0.00    -0.291 OA
ATOM     30  C   UNL     1      30.507 -24.031 -12.696  0.00  0.00    +0.207 C 
BRANCH  30  31
ATOM     31  C   UNL     1      30.084 -22.716 -12.077  0.00  0.00    +0.204 C 
BRANCH  31  32
ATOM     32  O   UNL     1      30.025 -22.822 -10.671  0.00  0.00    -0.375 OA
ATOM     33  H   UNL     1      29.861 -23.745 -10.423  0.00  0.00    +0.211 HD
ENDBRANCH  31  32
ENDBRANCH  30  31
ENDBRANCH  10  30
TORSDOF 3
ENDMDL
MODEL 4
REMARK VINA RESULT:      -1.5     18.579     20.767
REMARK  Name = 20054914
REMARK  3 active torsions:
REMARK  status: ('A' for Active; 'I' for Inactive)
REMARK    1  A    between atoms: C_10  and  C_30
REMARK    2  A    between atoms: C_30  and  C_31
REMARK    3  A    between atoms: C_31  and  O_32
REMARK                            x       y       z     vdW  Elec       q    Type
REMARK                         _______ _______ _______ _____ _____    ______ ____
ROOT
ATOM      1 CL   UNL     1      30.164  -5.944 -25.136  0.00  0.00    -0.114 Cl
ATOM      2 CL   UNL     1      34.209  -4.986 -26.579  0.00  0.00    -0.114 Cl
ATOM      3  F   UNL     1      30.155  -2.803 -21.844  0.00  0.00    -0.233 F 
ATOM      4  O   UNL     1      32.478  -9.585 -23.929  0.00  0.00    -0.330 OA
ATOM      5  O   UNL     1      32.685  -9.590 -21.587  0.00  0.00    -0.334 OA
ATOM      6  O   UNL     1      27.752  -1.787 -26.005  0.00  0.00    -0.287 OA
ATOM      7  C   UNL     1      33.631  -7.406 -24.211  0.00  0.00    +0.033 C 
ATOM      8  C   UNL     1      32.606  -6.753 -23.258  0.00  0.00    +0.007 C 
ATOM      9  C   UNL     1      32.360  -5.262 -23.546  0.00  0.00    +0.019 C 
ATOM     10  C   UNL     1      33.652  -8.841 -23.617  0.00  0.00    +0.173 C 
ATOM     11  C   UNL     1      31.822  -5.057 -25.022  0.00  0.00    +0.088 C 
ATOM     12  C   UNL     1      33.604  -8.628 -22.099  0.00  0.00    +0.149 C 
ATOM     13  C   UNL     1      33.081  -7.191 -21.870  0.00  0.00    +0.033 C 
ATOM     14  C   UNL     1      33.083  -7.281 -25.650  0.00  0.00    +0.020 C 
ATOM     15  C   UNL     1      32.712  -5.830 -26.076  0.00  0.00    +0.094 C 
ATOM     16  C   UNL     1      31.503  -3.512 -25.300  0.00  0.00    +0.050 C 
ATOM     17  C   UNL     1      31.422  -4.649 -22.487  0.00  0.00    +0.041 C 
ATOM     18  C   UNL     1      35.054  -6.795 -24.087  0.00  0.00    +0.003 C 
ATOM     19  C   UNL     1      32.028 -10.182 -22.709  0.00  0.00    +0.188 C 
ATOM     20  C   UNL     1      31.076  -3.193 -22.775  0.00  0.00    +0.180 C 
ATOM     21  C   UNL     1      30.567  -3.010 -24.184  0.00  0.00    -0.005 C 
ATOM     22  C   UNL     1      32.731  -2.566 -25.266  0.00  0.00    +0.010 C 
ATOM     23  C   UNL     1      30.884  -3.320 -26.677  0.00  0.00    -0.018 C 
ATOM     24  C   UNL     1      32.343 -11.673 -22.742  0.00  0.00    +0.061 C 
ATOM     25  C   UNL     1      30.524  -9.961 -22.564  0.00  0.00    +0.061 C 
ATOM     26  C   UNL     1      29.365  -2.460 -24.422  0.00  0.00    +0.036 C 
ATOM     27  C   UNL     1      29.688  -2.770 -26.914  0.00  0.00    +0.038 C 
ATOM     28  C   UNL     1      28.849  -2.297 -25.798  0.00  0.00    +0.195 C 
ENDROOT
BRANCH  10  30
ATOM     29  O   UNL     1      35.917  -9.585 -23.567  0.00  0.00    -0.291 OA
ATOM     30  C   UNL     1      34.806  -9.680 -24.086  0.00  0.00    +0.207 C 
BRANCH  30  31
ATOM     31  C   UNL     1      34.520 -10.637 -25.224  0.00  0.00    +0.204 C 
BRANCH  31  32
ATOM     32  O   UNL     1      35.484 -10.500 -26.245  0.00  0.00    -0.375 OA
ATOM     33  H   UNL     1      36.169 -11.178 -26.136  0.00  0.00    +0.211 HD
ENDBRANCH  31  32
ENDBRANCH  30  31
ENDBRANCH  10  30
TORSDOF 3
ENDMDL
MODEL 5
REMARK VINA RESULT:      -1.1      2.416      4.215
REMARK  Name = 20054914
REMARK  3 active torsions:
REMARK  status: ('A' for Active; 'I' for Inactive)
REMARK    1  A    between atoms: C_10  and  C_30
REMARK    2  A    between atoms: C_30  and  C_31
REMARK    3  A    between atoms: C_31  and  O_32
REMARK                            x       y       z     vdW  Elec       q    Type
REMARK                         _______ _______ _______ _____ _____    ______ ____
ROOT
ATOM      1 CL   UNL     1      31.356 -22.262 -16.128  0.00  0.00    -0.114 Cl
ATOM      2 CL   UNL     1      30.956 -23.204 -11.849  0.00  0.00    -0.114 Cl
ATOM      3  F   UNL     1      29.664 -26.229 -17.576  0.00  0.00    -0.233 F 
ATOM      4  O   UNL     1      35.631 -22.663 -14.851  0.00  0.00    -0.330 OA
ATOM      5  O   UNL     1      36.507 -24.629 -15.798  0.00  0.00    -0.334 OA
ATOM      6  O   UNL     1      26.708 -22.308 -17.629  0.00  0.00    -0.287 OA
ATOM      7  C   UNL     1      33.837 -23.841 -13.606  0.00  0.00    +0.033 C 
ATOM      8  C   UNL     1      33.334 -24.453 -14.932  0.00  0.00    +0.007 C 
ATOM      9  C   UNL     1      31.824 -24.748 -14.940  0.00  0.00    +0.019 C 
ATOM     10  C   UNL     1      35.349 -23.722 -13.939  0.00  0.00    +0.173 C 
ATOM     11  C   UNL     1      30.992 -23.424 -14.690  0.00  0.00    +0.088 C 
ATOM     12  C   UNL     1      35.677 -25.010 -14.703  0.00  0.00    +0.149 C 
ATOM     13  C   UNL     1      34.331 -25.582 -15.204  0.00  0.00    +0.033 C 
ATOM     14  C   UNL     1      33.088 -22.508 -13.388  0.00  0.00    +0.020 C 
ATOM     15  C   UNL     1      31.536 -22.624 -13.440  0.00  0.00    +0.094 C 
ATOM     16  C   UNL     1      29.419 -23.720 -14.765  0.00  0.00    +0.050 C 
ATOM     17  C   UNL     1      31.415 -25.464 -16.242  0.00  0.00    +0.041 C 
ATOM     18  C   UNL     1      33.670 -24.796 -12.392  0.00  0.00    +0.003 C 
ATOM     19  C   UNL     1      36.491 -23.202 -15.860  0.00  0.00    +0.188 C 
ATOM     20  C   UNL     1      29.913 -25.704 -16.340  0.00  0.00    +0.180 C 
ATOM     21  C   UNL     1      29.131 -24.435 -16.099  0.00  0.00    -0.005 C 
ATOM     22  C   UNL     1      28.870 -24.662 -13.663  0.00  0.00    +0.010 C 
ATOM     23  C   UNL     1      28.613 -22.434 -14.635  0.00  0.00    -0.018 C 
ATOM     24  C   UNL     1      37.905 -22.678 -15.637  0.00  0.00    +0.061 C 
ATOM     25  C   UNL     1      35.980 -22.781 -17.236  0.00  0.00    +0.061 C 
ATOM     26  C   UNL     1      28.260 -23.972 -17.010  0.00  0.00    +0.036 C 
ATOM     27  C   UNL     1      27.745 -21.975 -15.542  0.00  0.00    +0.038 C 
ATOM     28  C   UNL     1      27.506 -22.719 -16.793  0.00  0.00    +0.195 C 
ENDROOT
BRANCH  10  30
ATOM     29  O   UNL     1      36.289 -22.361 -12.222  0.00  0.00    -0.291 OA
ATOM     30  C   UNL     1      36.221 -23.474 -12.743  0.00  0.00    +0.207 C 
BRANCH  30  31
ATOM     31  C   UNL     1      37.001 -24.662 -12.222  0.00  0.00    +0.204 C 
BRANCH  31  32
ATOM     32  O   UNL     1      37.982 -24.248 -11.296  0.00  0.00    -0.375 OA
ATOM     33  H   UNL     1      37.656 -24.390 -10.394  0.00  0.00    +0.211 HD
ENDBRANCH  31  32
ENDBRANCH  30  31
ENDBRANCH  10  30
TORSDOF 3
ENDMDL
MODEL 6
REMARK VINA RESULT:      -0.9     16.169     18.839
REMARK  Name = 20054914
REMARK  3 active torsions:
REMARK  status: ('A' for Active; 'I' for Inactive)
REMARK    1  A    between atoms: C_10  and  C_30
REMARK    2  A    between atoms: C_30  and  C_31
REMARK    3  A    between atoms: C_31  and  O_32
REMARK                            x       y       z     vdW  Elec       q    Type
REMARK                         _______ _______ _______ _____ _____    ______ ____
ROOT
ATOM      1 CL   UNL     1      31.863 -10.234 -25.581  0.00  0.00    -0.114 Cl
ATOM      2 CL   UNL     1      32.175 -11.533 -21.389  0.00  0.00    -0.114 Cl
ATOM      3  F   UNL     1      36.313 -10.603 -26.452  0.00  0.00    -0.233 F 
ATOM      4  O   UNL     1      30.929  -6.459 -23.356  0.00  0.00    -0.330 OA
ATOM      5  O   UNL     1      32.726  -4.969 -23.636  0.00  0.00    -0.334 OA
ATOM      6  O   UNL     1      33.356 -14.204 -28.002  0.00  0.00    -0.287 OA
ATOM      7  C   UNL     1      32.316  -8.224 -22.300  0.00  0.00    +0.033 C 
ATOM      8  C   UNL     1      33.242  -8.220 -23.536  0.00  0.00    +0.007 C 
ATOM      9  C   UNL     1      33.917  -9.577 -23.803  0.00  0.00    +0.019 C 
ATOM     10  C   UNL     1      31.863  -6.739 -22.317  0.00  0.00    +0.173 C 
ATOM     11  C   UNL     1      32.832 -10.707 -24.037  0.00  0.00    +0.088 C 
ATOM     12  C   UNL     1      33.128  -5.957 -22.689  0.00  0.00    +0.149 C 
ATOM     13  C   UNL     1      34.102  -6.970 -23.331  0.00  0.00    +0.033 C 
ATOM     14  C   UNL     1      31.206  -9.270 -22.546  0.00  0.00    +0.020 C 
ATOM     15  C   UNL     1      31.728 -10.693 -22.906  0.00  0.00    +0.094 C 
ATOM     16  C   UNL     1      33.534 -12.105 -24.382  0.00  0.00    +0.050 C 
ATOM     17  C   UNL     1      34.915  -9.468 -24.973  0.00  0.00    +0.041 C 
ATOM     18  C   UNL     1      33.073  -8.498 -20.971  0.00  0.00    +0.003 C 
ATOM     19  C   UNL     1      31.381  -5.271 -24.012  0.00  0.00    +0.188 C 
ATOM     20  C   UNL     1      35.549 -10.805 -25.338  0.00  0.00    +0.180 C 
ATOM     21  C   UNL     1      34.505 -11.874 -25.556  0.00  0.00    -0.005 C 
ATOM     22  C   UNL     1      34.397 -12.711 -23.244  0.00  0.00    +0.010 C 
ATOM     23  C   UNL     1      32.499 -13.170 -24.715  0.00  0.00    -0.018 C 
ATOM     24  C   UNL     1      30.479  -4.110 -23.611  0.00  0.00    +0.061 C 
ATOM     25  C   UNL     1      31.334  -5.480 -25.524  0.00  0.00    +0.061 C 
ATOM     26  C   UNL     1      34.437 -12.553 -26.713  0.00  0.00    +0.036 C 
ATOM     27  C   UNL     1      32.433 -13.847 -25.866  0.00  0.00    +0.038 C 
ATOM     28  C   UNL     1      33.405 -13.586 -26.943  0.00  0.00    +0.195 C 
ENDROOT
BRANCH  10  30
ATOM     29  O   UNL     1      30.223  -5.548 -21.062  0.00  0.00    -0.291 OA
ATOM     30  C   UNL     1      31.208  -6.285 -21.045  0.00  0.00    +0.207 C 
BRANCH  30  31
ATOM     31  C   UNL     1      31.825  -6.785 -19.756  0.00  0.00    +0.204 C 
BRANCH  31  32
ATOM     32  O   UNL     1      32.730  -5.835 -19.236  0.00  0.00    -0.375 OA
ATOM     33  H   UNL     1      32.239  -5.064 -18.911  0.00  0.00    +0.211 HD
ENDBRANCH  31  32
ENDBRANCH  30  31
ENDBRANCH  10  30
TORSDOF 3
ENDMDL
MODEL 7
REMARK VINA RESULT:      -0.2     10.426     13.166
REMARK  Name = 20054914
REMARK  3 active torsions:
REMARK  status: ('A' for Active; 'I' for Inactive)
REMARK    1  A    between atoms: C_10  and  C_30
REMARK    2  A    between atoms: C_30  and  C_31
REMARK    3  A    between atoms: C_31  and  O_32
REMARK                            x       y       z     vdW  Elec       q    Type
REMARK                         _______ _______ _______ _____ _____    ______ ____
ROOT
ATOM      1 CL   UNL     1      35.082 -15.982 -20.423  0.00  0.00    -0.114 Cl
ATOM      2 CL   UNL     1      35.316 -15.927 -24.816  0.00  0.00    -0.114 Cl
ATOM      3  F   UNL     1      31.870 -19.198 -20.228  0.00  0.00    -0.233 F 
ATOM      4  O   UNL     1      33.340 -11.973 -21.405  0.00  0.00    -0.330 OA
ATOM      5  O   UNL     1      31.035 -12.034 -20.949  0.00  0.00    -0.334 OA
ATOM      6  O   UNL     1      36.519 -20.530 -19.373  0.00  0.00    -0.287 OA
ATOM      7  C   UNL     1      33.249 -13.818 -23.062  0.00  0.00    +0.033 C 
ATOM      8  C   UNL     1      32.610 -14.731 -21.993  0.00  0.00    +0.007 C 
ATOM      9  C   UNL     1      32.929 -16.223 -22.188  0.00  0.00    +0.019 C 
ATOM     10  C   UNL     1      32.698 -12.446 -22.586  0.00  0.00    +0.173 C 
ATOM     11  C   UNL     1      34.492 -16.474 -22.142  0.00  0.00    +0.088 C 
ATOM     12  C   UNL     1      31.251 -12.737 -22.170  0.00  0.00    +0.149 C 
ATOM     13  C   UNL     1      31.152 -14.264 -21.951  0.00  0.00    +0.033 C 
ATOM     14  C   UNL     1      34.781 -13.994 -22.978  0.00  0.00    +0.020 C 
ATOM     15  C   UNL     1      35.268 -15.470 -23.085  0.00  0.00    +0.094 C 
ATOM     16  C   UNL     1      34.821 -18.036 -22.278  0.00  0.00    +0.050 C 
ATOM     17  C   UNL     1      32.164 -17.083 -21.162  0.00  0.00    +0.041 C 
ATOM     18  C   UNL     1      32.720 -14.096 -24.496  0.00  0.00    +0.003 C 
ATOM     19  C   UNL     1      32.307 -11.553 -20.510  0.00  0.00    +0.188 C 
ATOM     20  C   UNL     1      32.511 -18.565 -21.254  0.00  0.00    +0.180 C 
ATOM     21  C   UNL     1      34.004 -18.790 -21.212  0.00  0.00    -0.005 C 
ATOM     22  C   UNL     1      34.427 -18.680 -23.633  0.00  0.00    +0.010 C 
ATOM     23  C   UNL     1      36.313 -18.297 -22.126  0.00  0.00    -0.018 C 
ATOM     24  C   UNL     1      32.276 -10.030 -20.468  0.00  0.00    +0.061 C 
ATOM     25  C   UNL     1      32.585 -12.116 -19.118  0.00  0.00    +0.061 C 
ATOM     26  C   UNL     1      34.559 -19.586 -20.284  0.00  0.00    +0.036 C 
ATOM     27  C   UNL     1      36.865 -19.091 -21.204  0.00  0.00    +0.038 C 
ATOM     28  C   UNL     1      36.022 -19.796 -20.221  0.00  0.00    +0.195 C 
ENDROOT
BRANCH  10  30
ATOM     29  O   UNL     1      31.964 -10.495 -23.743  0.00  0.00    -0.291 OA
ATOM     30  C   UNL     1      32.840 -11.346 -23.598  0.00  0.00    +0.207 C 
BRANCH  30  31
ATOM     31  C   UNL     1      34.113 -11.349 -24.418  0.00  0.00    +0.204 C 
BRANCH  31  32
ATOM     32  O   UNL     1      35.008 -10.362 -23.953  0.00  0.00    -0.375 OA
ATOM     33  H   UNL     1      35.569 -10.736 -23.256  0.00  0.00    +0.211 HD
ENDBRANCH  31  32
ENDBRANCH  30  31
ENDBRANCH  10  30
TORSDOF 3
ENDMDL
