MODEL 1
REMARK VINA RESULT:      -7.0      0.000      0.000
REMARK  Name = 33498
REMARK  3 active torsions:
REMARK  status: ('A' for Active; 'I' for Inactive)
REMARK    1  A    between atoms: CA_5  and  N_11
REMARK    2  A    between atoms: CA_7  and  C_16
REMARK    3  A    between atoms: C_16  and  O_17
REMARK                            x       y       z     vdW  Elec       q    Type
REMARK                         _______ _______ _______ _____ _____    ______ ____
ROOT
ATOM      1  S   UNL     1      34.741 -18.859 -23.766  0.00  0.00    -0.118 S 
ATOM      2  O   UNL     1      34.658 -15.856 -20.219  0.00  0.00    -0.277 OA
ATOM      3  N   UNL     1      34.867 -16.550 -22.463  0.00  0.00    -0.249 N 
ATOM      4  C   UNL     1      35.697 -17.703 -22.759  0.00  0.00    +0.117 C 
ATOM      5  CA  UNL     1      35.708 -17.966 -21.237  0.00  0.00    +0.043 C 
ATOM      6  C   UNL     1      35.012 -16.580 -21.120  0.00  0.00    +0.212 C 
ATOM      7  CA  UNL     1      34.231 -15.813 -23.411  0.00  0.00    +0.123 C 
ATOM      8  C   UNL     1      34.083 -16.268 -24.677  0.00  0.00    -0.013 C 
ATOM      9  C   UNL     1      34.516 -17.662 -25.125  0.00  0.00    +0.082 C 
ATOM     10  C   UNL     1      33.463 -15.478 -25.805  0.00  0.00    +0.029 C 
ENDROOT
BRANCH   5  11
ATOM     11  N   UNL     1      34.825 -19.040 -20.796  0.00  0.00    +0.389 N 
ATOM     12  H1  UNL     1      33.853 -18.757 -20.928  0.00  0.00    -0.088 HD
ATOM     13  H2  UNL     1      34.991 -19.235 -19.809  0.00  0.00    -0.088 HD
ATOM     14  H3  UNL     1      35.012 -19.879 -21.345  0.00  0.00    -0.088 HD
ENDBRANCH   5  11
BRANCH   7  16
ATOM     15  OXT UNL     1      32.533 -14.400 -22.532  0.00  0.00    -0.244 OA
ATOM     16  C   UNL     1      33.654 -14.531 -22.983  0.00  0.00    +0.351 C 
BRANCH  16  17
ATOM     17  O   UNL     1      34.558 -13.548 -23.171  0.00  0.00    -0.476 OA
ATOM     18  H   UNL     1      34.705 -13.206 -24.031  0.00  0.00    +0.295 HD
ENDBRANCH  16  17
ENDBRANCH   7  16
TORSDOF 3
ENDMDL
MODEL 2
REMARK VINA RESULT:      -6.9      2.779      4.399
REMARK  Name = 33498
REMARK  3 active torsions:
REMARK  status: ('A' for Active; 'I' for Inactive)
REMARK    1  A    between atoms: CA_5  and  N_11
REMARK    2  A    between atoms: CA_7  and  C_16
REMARK    3  A    between atoms: C_16  and  O_17
REMARK                            x       y       z     vdW  Elec       q    Type
REMARK                         _______ _______ _______ _____ _____    ______ ____
ROOT
ATOM      1  S   UNL     1      33.742 -15.047 -21.098  0.00  0.00    -0.118 S 
ATOM      2  O   UNL     1      32.983 -14.547 -25.657  0.00  0.00    -0.277 OA
ATOM      3  N   UNL     1      34.114 -15.267 -23.718  0.00  0.00    -0.249 N 
ATOM      4  C   UNL     1      34.326 -14.314 -22.643  0.00  0.00    +0.117 C 
ATOM      5  CA  UNL     1      33.330 -13.398 -23.388  0.00  0.00    +0.043 C 
ATOM      6  C   UNL     1      33.418 -14.445 -24.534  0.00  0.00    +0.212 C 
ATOM      7  CA  UNL     1      34.568 -16.547 -23.693  0.00  0.00    +0.123 C 
ATOM      8  C   UNL     1      34.998 -17.122 -22.546  0.00  0.00    -0.013 C 
ATOM      9  C   UNL     1      34.921 -16.437 -21.182  0.00  0.00    +0.082 C 
ATOM     10  C   UNL     1      35.591 -18.507 -22.451  0.00  0.00    +0.029 C 
ENDROOT
BRANCH   5  11
ATOM     11  N   UNL     1      31.991 -13.356 -22.811  0.00  0.00    +0.389 N 
ATOM     12  H1  UNL     1      31.298 -13.474 -23.551  0.00  0.00    -0.088 HD
ATOM     13  H2  UNL     1      31.847 -12.458 -22.350  0.00  0.00    -0.088 HD
ATOM     14  H3  UNL     1      31.891 -14.108 -22.129  0.00  0.00    -0.088 HD
ENDBRANCH   5  11
BRANCH   7  16
ATOM     15  OXT UNL     1      33.821 -18.286 -25.132  0.00  0.00    -0.244 OA
ATOM     16  C   UNL     1      34.509 -17.300 -24.954  0.00  0.00    +0.351 C 
BRANCH  16  17
ATOM     17  O   UNL     1      35.326 -16.723 -25.858  0.00  0.00    -0.476 OA
ATOM     18  H   UNL     1      35.025 -16.572 -26.733  0.00  0.00    +0.295 HD
ENDBRANCH  16  17
ENDBRANCH   7  16
TORSDOF 3
ENDMDL
MODEL 3
REMARK VINA RESULT:      -6.5     10.714     12.153
REMARK  Name = 33498
REMARK  3 active torsions:
REMARK  status: ('A' for Active; 'I' for Inactive)
REMARK    1  A    between atoms: CA_5  and  N_11
REMARK    2  A    between atoms: CA_7  and  C_16
REMARK    3  A    between atoms: C_16  and  O_17
REMARK                            x       y       z     vdW  Elec       q    Type
REMARK                         _______ _______ _______ _____ _____    ______ ____
ROOT
ATOM      1  S   UNL     1      37.453 -24.026 -14.902  0.00  0.00    -0.118 S 
ATOM      2  O   UNL     1      34.956 -24.985 -11.101  0.00  0.00    -0.277 OA
ATOM      3  N   UNL     1      35.471 -23.919 -13.140  0.00  0.00    -0.249 N 
ATOM      4  C   UNL     1      36.813 -23.400 -13.333  0.00  0.00    +0.117 C 
ATOM      5  CA  UNL     1      37.199 -24.197 -12.067  0.00  0.00    +0.043 C 
ATOM      6  C   UNL     1      35.673 -24.454 -11.916  0.00  0.00    +0.212 C 
ATOM      7  CA  UNL     1      34.473 -23.790 -14.051  0.00  0.00    +0.123 C 
ATOM      8  C   UNL     1      34.726 -23.427 -15.330  0.00  0.00    -0.013 C 
ATOM      9  C   UNL     1      36.136 -23.231 -15.884  0.00  0.00    +0.082 C 
ATOM     10  C   UNL     1      33.667 -23.184 -16.379  0.00  0.00    +0.029 C 
ENDROOT
BRANCH   5  11
ATOM     11  N   UNL     1      37.923 -25.437 -12.325  0.00  0.00    +0.389 N 
ATOM     12  H1  UNL     1      38.634 -25.572 -11.605  0.00  0.00    -0.088 HD
ATOM     13  H2  UNL     1      38.370 -25.387 -13.240  0.00  0.00    -0.088 HD
ATOM     14  H3  UNL     1      37.270 -26.221 -12.308  0.00  0.00    -0.088 HD
ENDBRANCH   5  11
BRANCH   7  16
ATOM     15  OXT UNL     1      32.564 -25.189 -13.821  0.00  0.00    -0.244 OA
ATOM     16  C   UNL     1      33.113 -24.127 -13.604  0.00  0.00    +0.351 C 
BRANCH  16  17
ATOM     17  O   UNL     1      32.593 -23.083 -12.928  0.00  0.00    -0.476 OA
ATOM     18  H   UNL     1      32.979 -22.232 -13.011  0.00  0.00    +0.295 HD
ENDBRANCH  16  17
ENDBRANCH   7  16
TORSDOF 3
ENDMDL
MODEL 4
REMARK VINA RESULT:      -6.4      1.725      2.290
REMARK  Name = 33498
REMARK  3 active torsions:
REMARK  status: ('A' for Active; 'I' for Inactive)
REMARK    1  A    between atoms: CA_5  and  N_11
REMARK    2  A    between atoms: CA_7  and  C_16
REMARK    3  A    between atoms: C_16  and  O_17
REMARK                            x       y       z     vdW  Elec       q    Type
REMARK                         _______ _______ _______ _____ _____    ______ ____
ROOT
ATOM      1  S   UNL     1      34.074 -16.882 -25.054  0.00  0.00    -0.118 S 
ATOM      2  O   UNL     1      35.297 -18.024 -20.717  0.00  0.00    -0.277 OA
ATOM      3  N   UNL     1      34.812 -16.585 -22.522  0.00  0.00    -0.249 N 
ATOM      4  C   UNL     1      35.393 -16.879 -23.819  0.00  0.00    +0.117 C 
ATOM      5  CA  UNL     1      35.783 -18.252 -23.227  0.00  0.00    +0.043 C 
ATOM      6  C   UNL     1      35.309 -17.660 -21.870  0.00  0.00    +0.212 C 
ATOM      7  CA  UNL     1      34.035 -15.501 -22.270  0.00  0.00    +0.123 C 
ATOM      8  C   UNL     1      33.500 -14.767 -23.273  0.00  0.00    -0.013 C 
ATOM      9  C   UNL     1      33.632 -15.138 -24.749  0.00  0.00    +0.082 C 
ATOM     10  C   UNL     1      32.695 -13.504 -23.077  0.00  0.00    +0.029 C 
ENDROOT
BRANCH   5  11
ATOM     11  N   UNL     1      34.933 -19.360 -23.647  0.00  0.00    +0.389 N 
ATOM     12  H1  UNL     1      34.828 -19.343 -24.662  0.00  0.00    -0.088 HD
ATOM     13  H2  UNL     1      34.016 -19.270 -23.210  0.00  0.00    -0.088 HD
ATOM     14  H3  UNL     1      35.360 -20.242 -23.364  0.00  0.00    -0.088 HD
ENDBRANCH   5  11
BRANCH   7  16
ATOM     15  OXT UNL     1      32.646 -15.288 -20.352  0.00  0.00    -0.244 OA
ATOM     16  C   UNL     1      33.746 -15.200 -20.860  0.00  0.00    +0.351 C 
BRANCH  16  17
ATOM     17  O   UNL     1      34.883 -14.820 -20.242  0.00  0.00    -0.476 OA
ATOM     18  H   UNL     1      35.680 -15.289 -20.398  0.00  0.00    +0.295 HD
ENDBRANCH  16  17
ENDBRANCH   7  16
TORSDOF 3
ENDMDL
MODEL 5
REMARK VINA RESULT:      -6.3      2.496      3.067
REMARK  Name = 33498
REMARK  3 active torsions:
REMARK  status: ('A' for Active; 'I' for Inactive)
REMARK    1  A    between atoms: CA_5  and  N_11
REMARK    2  A    between atoms: CA_7  and  C_16
REMARK    3  A    between atoms: C_16  and  O_17
REMARK                            x       y       z     vdW  Elec       q    Type
REMARK                         _______ _______ _______ _____ _____    ______ ____
ROOT
ATOM      1  S   UNL     1      34.672 -15.639 -20.775  0.00  0.00    -0.118 S 
ATOM      2  O   UNL     1      35.043 -19.150 -23.798  0.00  0.00    -0.277 OA
ATOM      3  N   UNL     1      34.208 -17.125 -22.925  0.00  0.00    -0.249 N 
ATOM      4  C   UNL     1      33.855 -17.069 -21.518  0.00  0.00    +0.117 C 
ATOM      5  CA  UNL     1      34.583 -18.424 -21.379  0.00  0.00    +0.043 C 
ATOM      6  C   UNL     1      34.660 -18.398 -22.932  0.00  0.00    +0.212 C 
ATOM      7  CA  UNL     1      34.045 -16.088 -23.786  0.00  0.00    +0.123 C 
ATOM      8  C   UNL     1      33.817 -14.830 -23.342  0.00  0.00    -0.013 C 
ATOM      9  C   UNL     1      33.821 -14.447 -21.864  0.00  0.00    +0.082 C 
ATOM     10  C   UNL     1      33.546 -13.642 -24.235  0.00  0.00    +0.029 C 
ENDROOT
BRANCH   5  11
ATOM     11  N   UNL     1      35.912 -18.344 -20.782  0.00  0.00    +0.389 N 
ATOM     12  H1  UNL     1      36.619 -18.405 -21.515  0.00  0.00    -0.088 HD
ATOM     13  H2  UNL     1      36.036 -19.114 -20.125  0.00  0.00    -0.088 HD
ATOM     14  H3  UNL     1      36.009 -17.457 -20.289  0.00  0.00    -0.088 HD
ENDBRANCH   5  11
BRANCH   7  16
ATOM     15  OXT UNL     1      33.272 -16.457 -26.004  0.00  0.00    -0.244 OA
ATOM     16  C   UNL     1      34.196 -16.381 -25.219  0.00  0.00    +0.351 C 
BRANCH  16  17
ATOM     17  O   UNL     1      35.503 -16.547 -25.507  0.00  0.00    -0.476 OA
ATOM     18  H   UNL     1      35.759 -17.095 -26.223  0.00  0.00    +0.295 HD
ENDBRANCH  16  17
ENDBRANCH   7  16
TORSDOF 3
ENDMDL
MODEL 6
REMARK VINA RESULT:      -6.3      2.592      3.501
REMARK  Name = 33498
REMARK  3 active torsions:
REMARK  status: ('A' for Active; 'I' for Inactive)
REMARK    1  A    between atoms: CA_5  and  N_11
REMARK    2  A    between atoms: CA_7  and  C_16
REMARK    3  A    between atoms: C_16  and  O_17
REMARK                            x       y       z     vdW  Elec       q    Type
REMARK                         _______ _______ _______ _____ _____    ______ ____
ROOT
ATOM      1  S   UNL     1      34.492 -15.906 -21.207  0.00  0.00    -0.118 S 
ATOM      2  O   UNL     1      34.846 -16.563 -25.795  0.00  0.00    -0.277 OA
ATOM      3  N   UNL     1      33.854 -15.838 -23.783  0.00  0.00    -0.249 N 
ATOM      4  C   UNL     1      33.821 -16.751 -22.656  0.00  0.00    +0.117 C 
ATOM      5  CA  UNL     1      34.808 -17.626 -23.459  0.00  0.00    +0.043 C 
ATOM      6  C   UNL     1      34.530 -16.644 -24.631  0.00  0.00    +0.212 C 
ATOM      7  CA  UNL     1      33.306 -14.595 -23.764  0.00  0.00    +0.123 C 
ATOM      8  C   UNL     1      32.945 -13.999 -22.603  0.00  0.00    -0.013 C 
ATOM      9  C   UNL     1      33.206 -14.611 -21.229  0.00  0.00    +0.082 C 
ATOM     10  C   UNL     1      32.258 -12.658 -22.506  0.00  0.00    +0.029 C 
ENDROOT
BRANCH   5  11
ATOM     11  N   UNL     1      36.196 -17.543 -23.016  0.00  0.00    +0.389 N 
ATOM     12  H1  UNL     1      36.809 -17.480 -23.830  0.00  0.00    -0.088 HD
ATOM     13  H2  UNL     1      36.431 -18.375 -22.476  0.00  0.00    -0.088 HD
ATOM     14  H3  UNL     1      36.317 -16.714 -22.435  0.00  0.00    -0.088 HD
ENDBRANCH   5  11
BRANCH   7  16
ATOM     15  OXT UNL     1      33.747 -12.857 -25.326  0.00  0.00    -0.244 OA
ATOM     16  C   UNL     1      33.186 -13.900 -25.054  0.00  0.00    +0.351 C 
BRANCH  16  17
ATOM     17  O   UNL     1      32.367 -14.600 -25.865  0.00  0.00    -0.476 OA
ATOM     18  H   UNL     1      32.488 -15.524 -25.967  0.00  0.00    +0.295 HD
ENDBRANCH  16  17
ENDBRANCH   7  16
TORSDOF 3
ENDMDL
MODEL 7
REMARK VINA RESULT:      -6.3      2.192      3.188
REMARK  Name = 33498
REMARK  3 active torsions:
REMARK  status: ('A' for Active; 'I' for Inactive)
REMARK    1  A    between atoms: CA_5  and  N_11
REMARK    2  A    between atoms: CA_7  and  C_16
REMARK    3  A    between atoms: C_16  and  O_17
REMARK                            x       y       z     vdW  Elec       q    Type
REMARK                         _______ _______ _______ _____ _____    ______ ____
ROOT
ATOM      1  S   UNL     1      34.137 -18.100 -21.075  0.00  0.00    -0.118 S 
ATOM      2  O   UNL     1      33.980 -14.174 -23.560  0.00  0.00    -0.277 OA
ATOM      3  N   UNL     1      34.620 -16.384 -23.042  0.00  0.00    -0.249 N 
ATOM      4  C   UNL     1      35.067 -16.679 -21.693  0.00  0.00    +0.117 C 
ATOM      5  CA  UNL     1      34.525 -15.284 -21.310  0.00  0.00    +0.043 C 
ATOM      6  C   UNL     1      34.330 -15.080 -22.839  0.00  0.00    +0.212 C 
ATOM      7  CA  UNL     1      34.588 -17.299 -24.044  0.00  0.00    +0.123 C 
ATOM      8  C   UNL     1      34.691 -18.625 -23.794  0.00  0.00    -0.013 C 
ATOM      9  C   UNL     1      34.750 -19.212 -22.385  0.00  0.00    +0.082 C 
ATOM     10  C   UNL     1      34.745 -19.697 -24.856  0.00  0.00    +0.029 C 
ENDROOT
BRANCH   5  11
ATOM     11  N   UNL     1      33.245 -15.299 -20.610  0.00  0.00    +0.389 N 
ATOM     12  H1  UNL     1      32.485 -15.269 -21.291  0.00  0.00    -0.088 HD
ATOM     13  H2  UNL     1      33.184 -14.486 -19.997  0.00  0.00    -0.088 HD
ATOM     14  H3  UNL     1      33.171 -16.151 -20.055  0.00  0.00    -0.088 HD
ENDBRANCH   5  11
BRANCH   7  16
ATOM     15  OXT UNL     1      33.279 -16.691 -25.934  0.00  0.00    -0.244 OA
ATOM     16  C   UNL     1      34.368 -16.790 -25.406  0.00  0.00    +0.351 C 
BRANCH  16  17
ATOM     17  O   UNL     1      35.554 -16.457 -25.955  0.00  0.00    -0.476 OA
ATOM     18  H   UNL     1      36.057 -17.104 -26.411  0.00  0.00    +0.295 HD
ENDBRANCH  16  17
ENDBRANCH   7  16
TORSDOF 3
ENDMDL
MODEL 8
REMARK VINA RESULT:      -6.2      2.868      4.651
REMARK  Name = 33498
REMARK  3 active torsions:
REMARK  status: ('A' for Active; 'I' for Inactive)
REMARK    1  A    between atoms: CA_5  and  N_11
REMARK    2  A    between atoms: CA_7  and  C_16
REMARK    3  A    between atoms: C_16  and  O_17
REMARK                            x       y       z     vdW  Elec       q    Type
REMARK                         _______ _______ _______ _____ _____    ______ ____
ROOT
ATOM      1  S   UNL     1      32.750 -13.809 -23.592  0.00  0.00    -0.118 S 
ATOM      2  O   UNL     1      34.423 -17.558 -25.773  0.00  0.00    -0.277 OA
ATOM      3  N   UNL     1      34.332 -15.873 -24.126  0.00  0.00    -0.249 N 
ATOM      4  C   UNL     1      34.119 -14.501 -24.547  0.00  0.00    +0.117 C 
ATOM      5  CA  UNL     1      33.763 -15.083 -25.933  0.00  0.00    +0.043 C 
ATOM      6  C   UNL     1      34.256 -16.438 -25.351  0.00  0.00    +0.212 C 
ATOM      7  CA  UNL     1      34.527 -16.245 -22.834  0.00  0.00    +0.123 C 
ATOM      8  C   UNL     1      34.247 -15.408 -21.808  0.00  0.00    -0.013 C 
ATOM      9  C   UNL     1      33.605 -14.034 -21.995  0.00  0.00    +0.082 C 
ATOM     10  C   UNL     1      34.512 -15.716 -20.354  0.00  0.00    +0.029 C 
ENDROOT
BRANCH   5  11
ATOM     11  N   UNL     1      32.335 -15.122 -26.230  0.00  0.00    +0.389 N 
ATOM     12  H1  UNL     1      32.080 -14.301 -26.781  0.00  0.00    -0.088 HD
ATOM     13  H2  UNL     1      31.806 -15.124 -25.358  0.00  0.00    -0.088 HD
ATOM     14  H3  UNL     1      32.122 -15.967 -26.760  0.00  0.00    -0.088 HD
ENDBRANCH   5  11
BRANCH   7  16
ATOM     15  OXT UNL     1      34.276 -18.533 -22.240  0.00  0.00    -0.244 OA
ATOM     16  C   UNL     1      34.992 -17.620 -22.599  0.00  0.00    +0.351 C 
BRANCH  16  17
ATOM     17  O   UNL     1      36.316 -17.692 -22.844  0.00  0.00    -0.476 OA
ATOM     18  H   UNL     1      36.766 -16.954 -23.206  0.00  0.00    +0.295 HD
ENDBRANCH  16  17
ENDBRANCH   7  16
TORSDOF 3
ENDMDL
MODEL 9
REMARK VINA RESULT:      -6.1      5.787      7.160
REMARK  Name = 33498
REMARK  3 active torsions:
REMARK  status: ('A' for Active; 'I' for Inactive)
REMARK    1  A    between atoms: CA_5  and  N_11
REMARK    2  A    between atoms: CA_7  and  C_16
REMARK    3  A    between atoms: C_16  and  O_17
REMARK                            x       y       z     vdW  Elec       q    Type
REMARK                         _______ _______ _______ _____ _____    ______ ____
ROOT
ATOM      1  S   UNL     1      33.901  -8.032 -22.688  0.00  0.00    -0.118 S 
ATOM      2  O   UNL     1      31.602 -12.021 -22.045  0.00  0.00    -0.277 OA
ATOM      3  N   UNL     1      32.772 -10.367 -23.252  0.00  0.00    -0.249 N 
ATOM      4  C   UNL     1      32.405  -8.976 -23.059  0.00  0.00    +0.117 C 
ATOM      5  CA  UNL     1      31.581  -9.461 -21.846  0.00  0.00    +0.043 C 
ATOM      6  C   UNL     1      31.907 -10.893 -22.357  0.00  0.00    +0.212 C 
ATOM      7  CA  UNL     1      33.726 -10.783 -24.124  0.00  0.00    +0.123 C 
ATOM      8  C   UNL     1      34.613  -9.916 -24.667  0.00  0.00    -0.013 C 
ATOM      9  C   UNL     1      34.688  -8.440 -24.283  0.00  0.00    +0.082 C 
ATOM     10  C   UNL     1      35.648 -10.285 -25.703  0.00  0.00    +0.029 C 
ENDROOT
BRANCH   5  11
ATOM     11  N   UNL     1      32.199  -9.209 -20.548  0.00  0.00    +0.389 N 
ATOM     12  H1  UNL     1      32.656  -8.296 -20.561  0.00  0.00    -0.088 HD
ATOM     13  H2  UNL     1      32.891  -9.932 -20.354  0.00  0.00    -0.088 HD
ATOM     14  H3  UNL     1      31.482  -9.220 -19.823  0.00  0.00    -0.088 HD
ENDBRANCH   5  11
BRANCH   7  16
ATOM     15  OXT UNL     1      33.415 -12.745 -25.430  0.00  0.00    -0.244 OA
ATOM     16  C   UNL     1      33.795 -12.225 -24.400  0.00  0.00    +0.351 C 
BRANCH  16  17
ATOM     17  O   UNL     1      34.339 -12.857 -23.341  0.00  0.00    -0.476 OA
ATOM     18  H   UNL     1      34.721 -13.707 -23.447  0.00  0.00    +0.295 HD
ENDBRANCH  16  17
ENDBRANCH   7  16
TORSDOF 3
ENDMDL
