MODEL 1
REMARK VINA RESULT:      -7.9      0.000      0.000
REMARK  Name = 447531
REMARK  5 active torsions:
REMARK  status: ('A' for Active; 'I' for Inactive)
REMARK    1  A    between atoms: C_1  and  C_11
REMARK    2  A    between atoms: C_11  and  P_12
REMARK    3  A    between atoms: C_11  and  O_18
REMARK    4  A    between atoms: P_12  and  O_14
REMARK    5  A    between atoms: P_12  and  O_16
REMARK                            x       y       z     vdW  Elec       q    Type
REMARK                         _______ _______ _______ _____ _____    ______ ____
ROOT
ATOM      1  C   UNL     1      35.185 -23.077 -15.591  0.00  0.00    +0.016 C 
ATOM      2  C   UNL     1      35.321 -22.576 -16.896  0.00  0.00    -0.001 C 
ATOM      3  C   UNL     1      34.213 -22.622 -17.775  0.00  0.00    -0.000 C 
ATOM      4  C   UNL     1      33.973 -23.616 -15.158  0.00  0.00    -0.001 C 
ATOM      5  C   UNL     1      36.534 -22.031 -17.349  0.00  0.00    -0.000 C 
ATOM      6  C   UNL     1      33.001 -23.168 -17.321  0.00  0.00    -0.000 C 
ATOM      7  C   UNL     1      32.884 -23.662 -16.022  0.00  0.00    -0.000 C 
ATOM      8  C   UNL     1      34.350 -22.122 -19.079  0.00  0.00    -0.000 C 
ATOM      9  C   UNL     1      36.652 -21.538 -18.649  0.00  0.00    -0.000 C 
ATOM     10  C   UNL     1      35.562 -21.584 -19.513  0.00  0.00    -0.000 C 
ENDROOT
BRANCH   1  11
ATOM     11  C   UNL     1      36.317 -23.058 -14.611  0.00  0.00    +0.237 C 
BRANCH  11  12
ATOM     12  P   UNL     1      37.418 -24.473 -14.668  0.00  0.00    +0.367 P 
ATOM     13  O   UNL     1      37.747 -25.053 -13.324  0.00  0.00    -0.255 OA
BRANCH  12  14
ATOM     14  O   UNL     1      36.684 -25.496 -15.684  0.00  0.00    -0.322 OA
ATOM     15  H   UNL     1      37.074 -26.379 -15.592  0.00  0.00    +0.220 HD
ENDBRANCH  12  14
BRANCH  12  16
ATOM     16  O   UNL     1      38.693 -23.957 -15.518  0.00  0.00    -0.322 OA
ATOM     17  H   UNL     1      38.456 -23.906 -16.457  0.00  0.00    +0.220 HD
ENDBRANCH  12  16
ENDBRANCH  11  12
BRANCH  11  18
ATOM     18  O   UNL     1      35.822 -23.006 -13.272  0.00  0.00    -0.370 OA
ATOM     19  H   UNL     1      35.032 -23.563 -13.198  0.00  0.00    +0.212 HD
ENDBRANCH  11  18
ENDBRANCH   1  11
TORSDOF 5
ENDMDL
MODEL 2
REMARK VINA RESULT:      -7.7      9.021     10.745
REMARK  Name = 447531
REMARK  5 active torsions:
REMARK  status: ('A' for Active; 'I' for Inactive)
REMARK    1  A    between atoms: C_1  and  C_11
REMARK    2  A    between atoms: C_11  and  P_12
REMARK    3  A    between atoms: C_11  and  O_18
REMARK    4  A    between atoms: P_12  and  O_14
REMARK    5  A    between atoms: P_12  and  O_16
REMARK                            x       y       z     vdW  Elec       q    Type
REMARK                         _______ _______ _______ _____ _____    ______ ____
ROOT
ATOM      1  C   UNL     1      34.275 -15.545 -23.312  0.00  0.00    +0.016 C 
ATOM      2  C   UNL     1      34.699 -16.779 -22.792  0.00  0.00    -0.001 C 
ATOM      3  C   UNL     1      34.765 -17.904 -23.647  0.00  0.00    -0.000 C 
ATOM      4  C   UNL     1      33.920 -15.422 -24.656  0.00  0.00    -0.001 C 
ATOM      5  C   UNL     1      35.058 -16.921 -21.442  0.00  0.00    -0.000 C 
ATOM      6  C   UNL     1      34.405 -17.762 -24.998  0.00  0.00    -0.000 C 
ATOM      7  C   UNL     1      33.985 -16.529 -25.496  0.00  0.00    -0.000 C 
ATOM      8  C   UNL     1      35.188 -19.138 -23.128  0.00  0.00    -0.000 C 
ATOM      9  C   UNL     1      35.477 -18.154 -20.942  0.00  0.00    -0.000 C 
ATOM     10  C   UNL     1      35.541 -19.261 -21.784  0.00  0.00    -0.000 C 
ENDROOT
BRANCH   1  11
ATOM     11  C   UNL     1      34.182 -14.315 -22.462  0.00  0.00    +0.237 C 
BRANCH  11  12
ATOM     12  P   UNL     1      32.590 -14.023 -21.688  0.00  0.00    +0.367 P 
ATOM     13  O   UNL     1      32.646 -13.133 -20.482  0.00  0.00    -0.255 OA
BRANCH  12  14
ATOM     14  O   UNL     1      31.667 -13.468 -22.895  0.00  0.00    -0.322 OA
ATOM     15  H   UNL     1      32.118 -13.614 -23.741  0.00  0.00    +0.220 HD
ENDBRANCH  12  14
BRANCH  12  16
ATOM     16  O   UNL     1      31.997 -15.502 -21.418  0.00  0.00    -0.322 OA
ATOM     17  H   UNL     1      31.539 -15.516 -20.563  0.00  0.00    +0.220 HD
ENDBRANCH  12  16
ENDBRANCH  11  12
BRANCH  11  18
ATOM     18  O   UNL     1      34.455 -13.147 -23.237  0.00  0.00    -0.370 OA
ATOM     19  H   UNL     1      34.949 -12.510 -22.697  0.00  0.00    +0.212 HD
ENDBRANCH  11  18
ENDBRANCH   1  11
TORSDOF 5
ENDMDL
MODEL 3
REMARK VINA RESULT:      -7.6      2.310      4.000
REMARK  Name = 447531
REMARK  5 active torsions:
REMARK  status: ('A' for Active; 'I' for Inactive)
REMARK    1  A    between atoms: C_1  and  C_11
REMARK    2  A    between atoms: C_11  and  P_12
REMARK    3  A    between atoms: C_11  and  O_18
REMARK    4  A    between atoms: P_12  and  O_14
REMARK    5  A    between atoms: P_12  and  O_16
REMARK                            x       y       z     vdW  Elec       q    Type
REMARK                         _______ _______ _______ _____ _____    ______ ____
ROOT
ATOM      1  C   UNL     1      35.699 -24.077 -13.879  0.00  0.00    +0.016 C 
ATOM      2  C   UNL     1      34.449 -23.884 -14.487  0.00  0.00    -0.001 C 
ATOM      3  C   UNL     1      34.387 -23.282 -15.767  0.00  0.00    -0.000 C 
ATOM      4  C   UNL     1      36.873 -23.684 -14.521  0.00  0.00    -0.001 C 
ATOM      5  C   UNL     1      33.257 -24.273 -13.854  0.00  0.00    -0.000 C 
ATOM      6  C   UNL     1      35.579 -22.892 -16.399  0.00  0.00    -0.000 C 
ATOM      7  C   UNL     1      36.813 -23.092 -15.779  0.00  0.00    -0.000 C 
ATOM      8  C   UNL     1      33.137 -23.088 -16.375  0.00  0.00    -0.000 C 
ATOM      9  C   UNL     1      32.023 -24.072 -14.473  0.00  0.00    -0.000 C 
ATOM     10  C   UNL     1      31.963 -23.480 -15.731  0.00  0.00    -0.000 C 
ENDROOT
BRANCH   1  11
ATOM     11  C   UNL     1      35.836 -24.708 -12.527  0.00  0.00    +0.237 C 
BRANCH  11  12
ATOM     12  P   UNL     1      36.871 -23.824 -11.358  0.00  0.00    +0.367 P 
ATOM     13  O   UNL     1      37.051 -22.369 -11.671  0.00  0.00    -0.255 OA
BRANCH  12  14
ATOM     14  O   UNL     1      36.183 -24.127  -9.925  0.00  0.00    -0.322 OA
ATOM     15  H   UNL     1      35.473 -23.487  -9.765  0.00  0.00    +0.220 HD
ENDBRANCH  12  14
BRANCH  12  16
ATOM     16  O   UNL     1      38.238 -24.685 -11.302  0.00  0.00    -0.322 OA
ATOM     17  H   UNL     1      38.396 -24.982 -10.392  0.00  0.00    +0.220 HD
ENDBRANCH  12  16
ENDBRANCH  11  12
BRANCH  11  18
ATOM     18  O   UNL     1      36.402 -26.014 -12.636  0.00  0.00    -0.370 OA
ATOM     19  H   UNL     1      36.911 -26.077 -13.458  0.00  0.00    +0.212 HD
ENDBRANCH  11  18
ENDBRANCH   1  11
TORSDOF 5
ENDMDL
MODEL 4
REMARK VINA RESULT:      -7.6      0.922      1.624
REMARK  Name = 447531
REMARK  5 active torsions:
REMARK  status: ('A' for Active; 'I' for Inactive)
REMARK    1  A    between atoms: C_1  and  C_11
REMARK    2  A    between atoms: C_11  and  P_12
REMARK    3  A    between atoms: C_11  and  O_18
REMARK    4  A    between atoms: P_12  and  O_14
REMARK    5  A    between atoms: P_12  and  O_16
REMARK                            x       y       z     vdW  Elec       q    Type
REMARK                         _______ _______ _______ _____ _____    ______ ____
ROOT
ATOM      1  C   UNL     1      34.487 -23.404 -15.020  0.00  0.00    +0.016 C 
ATOM      2  C   UNL     1      34.582 -22.945 -16.343  0.00  0.00    -0.001 C 
ATOM      3  C   UNL     1      33.423 -22.926 -17.154  0.00  0.00    -0.000 C 
ATOM      4  C   UNL     1      33.266 -23.840 -14.502  0.00  0.00    -0.001 C 
ATOM      5  C   UNL     1      35.803 -22.504 -16.880  0.00  0.00    -0.000 C 
ATOM      6  C   UNL     1      32.202 -23.367 -16.617  0.00  0.00    -0.000 C 
ATOM      7  C   UNL     1      32.127 -23.821 -15.300  0.00  0.00    -0.000 C 
ATOM      8  C   UNL     1      33.518 -22.467 -18.478  0.00  0.00    -0.000 C 
ATOM      9  C   UNL     1      35.879 -22.051 -18.198  0.00  0.00    -0.000 C 
ATOM     10  C   UNL     1      34.739 -22.032 -18.995  0.00  0.00    -0.000 C 
ENDROOT
BRANCH   1  11
ATOM     11  C   UNL     1      35.674 -23.451 -14.108  0.00  0.00    +0.237 C 
BRANCH  11  12
ATOM     12  P   UNL     1      36.666 -24.943 -14.197  0.00  0.00    +0.367 P 
ATOM     13  O   UNL     1      36.472 -25.737 -15.455  0.00  0.00    -0.255 OA
BRANCH  12  14
ATOM     14  O   UNL     1      38.178 -24.419 -13.955  0.00  0.00    -0.322 OA
ATOM     15  H   UNL     1      38.273 -24.120 -13.038  0.00  0.00    +0.220 HD
ENDBRANCH  12  14
BRANCH  12  16
ATOM     16  O   UNL     1      36.325 -25.735 -12.830  0.00  0.00    -0.322 OA
ATOM     17  H   UNL     1      36.455 -25.144 -12.072  0.00  0.00    +0.220 HD
ENDBRANCH  12  16
ENDBRANCH  11  12
BRANCH  11  18
ATOM     18  O   UNL     1      35.265 -23.339 -12.744  0.00  0.00    -0.370 OA
ATOM     19  H   UNL     1      35.062 -24.220 -12.395  0.00  0.00    +0.212 HD
ENDBRANCH  11  18
ENDBRANCH   1  11
TORSDOF 5
ENDMDL
MODEL 5
REMARK VINA RESULT:      -7.4      1.998      3.502
REMARK  Name = 447531
REMARK  5 active torsions:
REMARK  status: ('A' for Active; 'I' for Inactive)
REMARK    1  A    between atoms: C_1  and  C_11
REMARK    2  A    between atoms: C_11  and  P_12
REMARK    3  A    between atoms: C_11  and  O_18
REMARK    4  A    between atoms: P_12  and  O_14
REMARK    5  A    between atoms: P_12  and  O_16
REMARK                            x       y       z     vdW  Elec       q    Type
REMARK                         _______ _______ _______ _____ _____    ______ ____
ROOT
ATOM      1  C   UNL     1      35.311 -23.625 -15.751  0.00  0.00    +0.016 C 
ATOM      2  C   UNL     1      34.970 -23.010 -16.967  0.00  0.00    -0.001 C 
ATOM      3  C   UNL     1      35.875 -22.097 -17.558  0.00  0.00    -0.000 C 
ATOM      4  C   UNL     1      36.526 -23.344 -15.126  0.00  0.00    -0.001 C 
ATOM      5  C   UNL     1      33.751 -23.281 -17.609  0.00  0.00    -0.000 C 
ATOM      6  C   UNL     1      37.094 -21.826 -16.915  0.00  0.00    -0.000 C 
ATOM      7  C   UNL     1      37.416 -22.446 -15.707  0.00  0.00    -0.000 C 
ATOM      8  C   UNL     1      35.535 -21.481 -18.773  0.00  0.00    -0.000 C 
ATOM      9  C   UNL     1      33.428 -22.660 -18.816  0.00  0.00    -0.000 C 
ATOM     10  C   UNL     1      34.319 -21.762 -19.397  0.00  0.00    -0.000 C 
ENDROOT
BRANCH   1  11
ATOM     11  C   UNL     1      34.400 -24.601 -15.072  0.00  0.00    +0.237 C 
BRANCH  11  12
ATOM     12  P   UNL     1      33.249 -23.897 -13.888  0.00  0.00    +0.367 P 
ATOM     13  O   UNL     1      32.390 -22.800 -14.442  0.00  0.00    -0.255 OA
BRANCH  12  14
ATOM     14  O   UNL     1      32.434 -25.179 -13.330  0.00  0.00    -0.322 OA
ATOM     15  H   UNL     1      32.307 -25.819 -14.048  0.00  0.00    +0.220 HD
ENDBRANCH  12  14
BRANCH  12  16
ATOM     16  O   UNL     1      34.175 -23.471 -12.633  0.00  0.00    -0.322 OA
ATOM     17  H   UNL     1      34.899 -24.109 -12.534  0.00  0.00    +0.220 HD
ENDBRANCH  12  16
ENDBRANCH  11  12
BRANCH  11  18
ATOM     18  O   UNL     1      35.154 -25.573 -14.347  0.00  0.00    -0.370 OA
ATOM     19  H   UNL     1      36.052 -25.240 -14.199  0.00  0.00    +0.212 HD
ENDBRANCH  11  18
ENDBRANCH   1  11
TORSDOF 5
ENDMDL
MODEL 6
REMARK VINA RESULT:      -7.3      1.484      3.057
REMARK  Name = 447531
REMARK  5 active torsions:
REMARK  status: ('A' for Active; 'I' for Inactive)
REMARK    1  A    between atoms: C_1  and  C_11
REMARK    2  A    between atoms: C_11  and  P_12
REMARK    3  A    between atoms: C_11  and  O_18
REMARK    4  A    between atoms: P_12  and  O_14
REMARK    5  A    between atoms: P_12  and  O_16
REMARK                            x       y       z     vdW  Elec       q    Type
REMARK                         _______ _______ _______ _____ _____    ______ ____
ROOT
ATOM      1  C   UNL     1      35.788 -23.640 -15.400  0.00  0.00    +0.016 C 
ATOM      2  C   UNL     1      35.019 -23.179 -16.481  0.00  0.00    -0.001 C 
ATOM      3  C   UNL     1      35.623 -22.348 -17.455  0.00  0.00    -0.000 C 
ATOM      4  C   UNL     1      37.133 -23.288 -15.280  0.00  0.00    -0.001 C 
ATOM      5  C   UNL     1      33.664 -23.522 -16.616  0.00  0.00    -0.000 C 
ATOM      6  C   UNL     1      36.978 -22.004 -17.318  0.00  0.00    -0.000 C 
ATOM      7  C   UNL     1      37.726 -22.471 -16.238  0.00  0.00    -0.000 C 
ATOM      8  C   UNL     1      34.854 -21.886 -18.535  0.00  0.00    -0.000 C 
ATOM      9  C   UNL     1      32.915 -23.054 -17.697  0.00  0.00    -0.000 C 
ATOM     10  C   UNL     1      33.509 -22.237 -18.654  0.00  0.00    -0.000 C 
ENDROOT
BRANCH   1  11
ATOM     11  C   UNL     1      35.212 -24.521 -14.335  0.00  0.00    +0.237 C 
BRANCH  11  12
ATOM     12  P   UNL     1      35.926 -24.333 -12.700  0.00  0.00    +0.367 P 
ATOM     13  O   UNL     1      36.311 -22.925 -12.354  0.00  0.00    -0.255 OA
BRANCH  12  14
ATOM     14  O   UNL     1      34.824 -24.993 -11.716  0.00  0.00    -0.322 OA
ATOM     15  H   UNL     1      34.533 -24.334 -11.067  0.00  0.00    +0.220 HD
ENDBRANCH  12  14
BRANCH  12  16
ATOM     16  O   UNL     1      37.140 -25.401 -12.666  0.00  0.00    -0.322 OA
ATOM     17  H   UNL     1      37.546 -25.401 -11.785  0.00  0.00    +0.220 HD
ENDBRANCH  12  16
ENDBRANCH  11  12
BRANCH  11  18
ATOM     18  O   UNL     1      35.381 -25.898 -14.675  0.00  0.00    -0.370 OA
ATOM     19  H   UNL     1      34.997 -26.452 -13.978  0.00  0.00    +0.212 HD
ENDBRANCH  11  18
ENDBRANCH   1  11
TORSDOF 5
ENDMDL
MODEL 7
REMARK VINA RESULT:      -7.3      6.645      7.914
REMARK  Name = 447531
REMARK  5 active torsions:
REMARK  status: ('A' for Active; 'I' for Inactive)
REMARK    1  A    between atoms: C_1  and  C_11
REMARK    2  A    between atoms: C_11  and  P_12
REMARK    3  A    between atoms: C_11  and  O_18
REMARK    4  A    between atoms: P_12  and  O_14
REMARK    5  A    between atoms: P_12  and  O_16
REMARK                            x       y       z     vdW  Elec       q    Type
REMARK                         _______ _______ _______ _____ _____    ______ ____
ROOT
ATOM      1  C   UNL     1      34.341 -18.829 -21.380  0.00  0.00    +0.016 C 
ATOM      2  C   UNL     1      35.165 -19.707 -20.659  0.00  0.00    -0.001 C 
ATOM      3  C   UNL     1      34.576 -20.768 -19.930  0.00  0.00    -0.000 C 
ATOM      4  C   UNL     1      32.955 -18.993 -21.384  0.00  0.00    -0.001 C 
ATOM      5  C   UNL     1      36.561 -19.556 -20.643  0.00  0.00    -0.000 C 
ATOM      6  C   UNL     1      33.179 -20.918 -19.945  0.00  0.00    -0.000 C 
ATOM      7  C   UNL     1      32.376 -20.035 -20.667  0.00  0.00    -0.000 C 
ATOM      8  C   UNL     1      35.400 -21.646 -19.208  0.00  0.00    -0.000 C 
ATOM      9  C   UNL     1      37.365 -20.438 -19.920  0.00  0.00    -0.000 C 
ATOM     10  C   UNL     1      36.785 -21.481 -19.203  0.00  0.00    -0.000 C 
ENDROOT
BRANCH   1  11
ATOM     11  C   UNL     1      34.898 -17.686 -22.172  0.00  0.00    +0.237 C 
BRANCH  11  12
ATOM     12  P   UNL     1      34.501 -16.048 -21.559  0.00  0.00    +0.367 P 
ATOM     13  O   UNL     1      35.052 -15.750 -20.196  0.00  0.00    -0.255 OA
BRANCH  12  14
ATOM     14  O   UNL     1      35.021 -15.059 -22.729  0.00  0.00    -0.322 OA
ATOM     15  H   UNL     1      34.270 -14.565 -23.093  0.00  0.00    +0.220 HD
ENDBRANCH  12  14
BRANCH  12  16
ATOM     16  O   UNL     1      32.892 -15.952 -21.681  0.00  0.00    -0.322 OA
ATOM     17  H   UNL     1      32.636 -15.982 -22.616  0.00  0.00    +0.220 HD
ENDBRANCH  12  16
ENDBRANCH  11  12
BRANCH  11  18
ATOM     18  O   UNL     1      34.417 -17.724 -23.517  0.00  0.00    -0.370 OA
ATOM     19  H   UNL     1      33.510 -17.383 -23.544  0.00  0.00    +0.212 HD
ENDBRANCH  11  18
ENDBRANCH   1  11
TORSDOF 5
ENDMDL
MODEL 8
REMARK VINA RESULT:      -7.2      1.521      2.242
REMARK  Name = 447531
REMARK  5 active torsions:
REMARK  status: ('A' for Active; 'I' for Inactive)
REMARK    1  A    between atoms: C_1  and  C_11
REMARK    2  A    between atoms: C_11  and  P_12
REMARK    3  A    between atoms: C_11  and  O_18
REMARK    4  A    between atoms: P_12  and  O_14
REMARK    5  A    between atoms: P_12  and  O_16
REMARK                            x       y       z     vdW  Elec       q    Type
REMARK                         _______ _______ _______ _____ _____    ______ ____
ROOT
ATOM      1  C   UNL     1      35.175 -23.862 -13.989  0.00  0.00    +0.016 C 
ATOM      2  C   UNL     1      35.672 -23.225 -15.137  0.00  0.00    -0.001 C 
ATOM      3  C   UNL     1      34.798 -22.975 -16.222  0.00  0.00    -0.000 C 
ATOM      4  C   UNL     1      33.837 -24.248 -13.910  0.00  0.00    -0.001 C 
ATOM      5  C   UNL     1      37.017 -22.832 -15.234  0.00  0.00    -0.000 C 
ATOM      6  C   UNL     1      33.454 -23.370 -16.125  0.00  0.00    -0.000 C 
ATOM      7  C   UNL     1      32.978 -24.002 -14.977  0.00  0.00    -0.000 C 
ATOM      8  C   UNL     1      35.295 -22.339 -17.371  0.00  0.00    -0.000 C 
ATOM      9  C   UNL     1      37.493 -22.200 -16.383  0.00  0.00    -0.000 C 
ATOM     10  C   UNL     1      36.634 -21.954 -17.450  0.00  0.00    -0.000 C 
ENDROOT
BRANCH   1  11
ATOM     11  C   UNL     1      36.045 -24.157 -12.805  0.00  0.00    +0.237 C 
BRANCH  11  12
ATOM     12  P   UNL     1      37.137 -25.571 -12.975  0.00  0.00    +0.367 P 
ATOM     13  O   UNL     1      38.576 -25.214 -13.201  0.00  0.00    -0.255 OA
BRANCH  12  14
ATOM     14  O   UNL     1      36.858 -26.440 -11.639  0.00  0.00    -0.322 OA
ATOM     15  H   UNL     1      36.323 -27.216 -11.864  0.00  0.00    +0.220 HD
ENDBRANCH  12  14
BRANCH  12  16
ATOM     16  O   UNL     1      36.462 -26.461 -14.143  0.00  0.00    -0.322 OA
ATOM     17  H   UNL     1      35.695 -26.935 -13.787  0.00  0.00    +0.220 HD
ENDBRANCH  12  16
ENDBRANCH  11  12
BRANCH  11  18
ATOM     18  O   UNL     1      35.248 -24.420 -11.649  0.00  0.00    -0.370 OA
ATOM     19  H   UNL     1      35.434 -25.316 -11.326  0.00  0.00    +0.212 HD
ENDBRANCH  11  18
ENDBRANCH   1  11
TORSDOF 5
ENDMDL
MODEL 9
REMARK VINA RESULT:      -7.2      8.107      9.559
REMARK  Name = 447531
REMARK  5 active torsions:
REMARK  status: ('A' for Active; 'I' for Inactive)
REMARK    1  A    between atoms: C_1  and  C_11
REMARK    2  A    between atoms: C_11  and  P_12
REMARK    3  A    between atoms: C_11  and  O_18
REMARK    4  A    between atoms: P_12  and  O_14
REMARK    5  A    between atoms: P_12  and  O_16
REMARK                            x       y       z     vdW  Elec       q    Type
REMARK                         _______ _______ _______ _____ _____    ______ ____
ROOT
ATOM      1  C   UNL     1      34.169 -16.100 -21.788  0.00  0.00    +0.016 C 
ATOM      2  C   UNL     1      33.894 -15.718 -23.111  0.00  0.00    -0.001 C 
ATOM      3  C   UNL     1      33.048 -14.609 -23.349  0.00  0.00    -0.000 C 
ATOM      4  C   UNL     1      33.619 -15.399 -20.714  0.00  0.00    -0.001 C 
ATOM      5  C   UNL     1      34.438 -16.413 -24.203  0.00  0.00    -0.000 C 
ATOM      6  C   UNL     1      32.503 -13.914 -22.256  0.00  0.00    -0.000 C 
ATOM      7  C   UNL     1      32.788 -14.308 -20.949  0.00  0.00    -0.000 C 
ATOM      8  C   UNL     1      32.771 -14.227 -24.672  0.00  0.00    -0.000 C 
ATOM      9  C   UNL     1      34.153 -16.020 -25.511  0.00  0.00    -0.000 C 
ATOM     10  C   UNL     1      33.321 -14.929 -25.745  0.00  0.00    -0.000 C 
ENDROOT
BRANCH   1  11
ATOM     11  C   UNL     1      35.056 -17.264 -21.466  0.00  0.00    +0.237 C 
BRANCH  11  12
ATOM     12  P   UNL     1      34.236 -18.855 -21.345  0.00  0.00    +0.367 P 
ATOM     13  O   UNL     1      32.816 -18.782 -20.868  0.00  0.00    -0.255 OA
BRANCH  12  14
ATOM     14  O   UNL     1      34.423 -19.501 -22.816  0.00  0.00    -0.322 OA
ATOM     15  H   UNL     1      34.750 -20.410 -22.732  0.00  0.00    +0.220 HD
ENDBRANCH  12  14
BRANCH  12  16
ATOM     16  O   UNL     1      35.222 -19.745 -20.422  0.00  0.00    -0.322 OA
ATOM     17  H   UNL     1      34.698 -20.232 -19.766  0.00  0.00    +0.220 HD
ENDBRANCH  12  16
ENDBRANCH  11  12
BRANCH  11  18
ATOM     18  O   UNL     1      35.707 -17.067 -20.210  0.00  0.00    -0.370 OA
ATOM     19  H   UNL     1      35.774 -16.117 -20.027  0.00  0.00    +0.212 HD
ENDBRANCH  11  18
ENDBRANCH   1  11
TORSDOF 5
ENDMDL
