MODEL 1
REMARK VINA RESULT:      -6.1      0.000      0.000
REMARK  Name = 1712076
REMARK  6 active torsions:
REMARK  status: ('A' for Active; 'I' for Inactive)
REMARK    1  A    between atoms: C_1  and  C_2
REMARK    2  A    between atoms: C_1  and  C_7
REMARK    3  A    between atoms: C_2  and  O_5
REMARK    4  A    between atoms: C_7  and  C_8
REMARK    5  A    between atoms: C_8  and  C_9
REMARK    6  A    between atoms: C_9  and  C_11
REMARK                            x       y       z     vdW  Elec       q    Type
REMARK                         _______ _______ _______ _____ _____    ______ ____
ROOT
ATOM      1  C   UNL     1      34.882 -17.060 -21.172  0.00  0.00    +0.027 C 
ENDROOT
BRANCH   1   2
ATOM      2  C   UNL     1      34.267 -15.650 -21.285  0.00  0.00    +0.088 C 
ATOM      3  C   UNL     1      32.778 -15.632 -20.935  0.00  0.00    +0.029 C 
ATOM      4  C   UNL     1      34.495 -15.027 -22.663  0.00  0.00    +0.029 C 
BRANCH   2   5
ATOM      5  O   UNL     1      34.945 -14.812 -20.340  0.00  0.00    -0.387 OA
ATOM      6  H   UNL     1      35.695 -14.376 -20.772  0.00  0.00    +0.210 HD
ENDBRANCH   2   5
ENDBRANCH   1   2
BRANCH   1   7
ATOM      7  C   UNL     1      34.933 -17.863 -22.476  0.00  0.00    +0.003 C 
BRANCH   7   8
ATOM      8  C   UNL     1      34.572 -19.335 -22.227  0.00  0.00    +0.004 C 
BRANCH   8   9
ATOM      9  C   UNL     1      34.574 -19.714 -20.733  0.00  0.00    +0.022 C 
ATOM     10  C   UNL     1      35.754 -20.641 -20.432  0.00  0.00    +0.005 C 
BRANCH   9  11
ATOM     11  C   UNL     1      33.289 -20.392 -20.322  0.00  0.00    -0.026 C 
ATOM     12  C   UNL     1      33.228 -21.426 -19.476  0.00  0.00    -0.005 C 
ENDBRANCH   9  11
ENDBRANCH   8   9
ENDBRANCH   7   8
ENDBRANCH   1   7
TORSDOF 6
ENDMDL
MODEL 2
REMARK VINA RESULT:      -5.9      1.673      2.979
REMARK  Name = 1712076
REMARK  6 active torsions:
REMARK  status: ('A' for Active; 'I' for Inactive)
REMARK    1  A    between atoms: C_1  and  C_2
REMARK    2  A    between atoms: C_1  and  C_7
REMARK    3  A    between atoms: C_2  and  O_5
REMARK    4  A    between atoms: C_7  and  C_8
REMARK    5  A    between atoms: C_8  and  C_9
REMARK    6  A    between atoms: C_9  and  C_11
REMARK                            x       y       z     vdW  Elec       q    Type
REMARK                         _______ _______ _______ _____ _____    ______ ____
ROOT
ATOM      1  C   UNL     1      33.786 -18.496 -21.053  0.00  0.00    +0.027 C 
ENDROOT
BRANCH   1   2
ATOM      2  C   UNL     1      35.126 -17.794 -21.359  0.00  0.00    +0.088 C 
ATOM      3  C   UNL     1      35.143 -17.145 -22.744  0.00  0.00    +0.029 C 
ATOM      4  C   UNL     1      36.322 -18.733 -21.198  0.00  0.00    +0.029 C 
BRANCH   2   5
ATOM      5  O   UNL     1      35.292 -16.751 -20.389  0.00  0.00    -0.387 OA
ATOM      6  H   UNL     1      34.895 -17.024 -19.548  0.00  0.00    +0.210 HD
ENDBRANCH   2   5
ENDBRANCH   1   2
BRANCH   1   7
ATOM      7  C   UNL     1      33.794 -20.021 -21.196  0.00  0.00    +0.003 C 
BRANCH   7   8
ATOM      8  C   UNL     1      33.267 -20.695 -19.921  0.00  0.00    +0.004 C 
BRANCH   8   9
ATOM      9  C   UNL     1      34.028 -21.988 -19.562  0.00  0.00    +0.022 C 
ATOM     10  C   UNL     1      33.476 -22.573 -18.260  0.00  0.00    +0.005 C 
BRANCH   9  11
ATOM     11  C   UNL     1      35.510 -21.744 -19.411  0.00  0.00    -0.026 C 
ATOM     12  C   UNL     1      36.157 -21.777 -18.241  0.00  0.00    -0.005 C 
ENDBRANCH   9  11
ENDBRANCH   8   9
ENDBRANCH   7   8
ENDBRANCH   1   7
TORSDOF 6
ENDMDL
MODEL 3
REMARK VINA RESULT:      -5.8      2.983      5.709
REMARK  Name = 1712076
REMARK  6 active torsions:
REMARK  status: ('A' for Active; 'I' for Inactive)
REMARK    1  A    between atoms: C_1  and  C_2
REMARK    2  A    between atoms: C_1  and  C_7
REMARK    3  A    between atoms: C_2  and  O_5
REMARK    4  A    between atoms: C_7  and  C_8
REMARK    5  A    between atoms: C_8  and  C_9
REMARK    6  A    between atoms: C_9  and  C_11
REMARK                            x       y       z     vdW  Elec       q    Type
REMARK                         _______ _______ _______ _____ _____    ______ ____
ROOT
ATOM      1  C   UNL     1      33.459 -21.291 -19.800  0.00  0.00    +0.027 C 
ENDROOT
BRANCH   1   2
ATOM      2  C   UNL     1      33.930 -22.425 -18.866  0.00  0.00    +0.088 C 
ATOM      3  C   UNL     1      32.922 -22.724 -17.754  0.00  0.00    +0.029 C 
ATOM      4  C   UNL     1      35.311 -22.150 -18.271  0.00  0.00    +0.029 C 
BRANCH   2   5
ATOM      5  O   UNL     1      34.056 -23.610 -19.664  0.00  0.00    -0.387 OA
ATOM      6  H   UNL     1      34.658 -23.439 -20.404  0.00  0.00    +0.210 HD
ENDBRANCH   2   5
ENDBRANCH   1   2
BRANCH   1   7
ATOM      7  C   UNL     1      34.572 -20.421 -20.392  0.00  0.00    +0.003 C 
BRANCH   7   8
ATOM      8  C   UNL     1      33.990 -19.169 -21.064  0.00  0.00    +0.004 C 
BRANCH   8   9
ATOM      9  C   UNL     1      35.074 -18.214 -21.605  0.00  0.00    +0.022 C 
ATOM     10  C   UNL     1      34.869 -16.812 -21.028  0.00  0.00    +0.005 C 
BRANCH   9  11
ATOM     11  C   UNL     1      35.056 -18.141 -23.113  0.00  0.00    -0.026 C 
ATOM     12  C   UNL     1      34.872 -19.200 -23.909  0.00  0.00    -0.005 C 
ENDBRANCH   9  11
ENDBRANCH   8   9
ENDBRANCH   7   8
ENDBRANCH   1   7
TORSDOF 6
ENDMDL
MODEL 4
REMARK VINA RESULT:      -5.7      1.413      1.966
REMARK  Name = 1712076
REMARK  6 active torsions:
REMARK  status: ('A' for Active; 'I' for Inactive)
REMARK    1  A    between atoms: C_1  and  C_2
REMARK    2  A    between atoms: C_1  and  C_7
REMARK    3  A    between atoms: C_2  and  O_5
REMARK    4  A    between atoms: C_7  and  C_8
REMARK    5  A    between atoms: C_8  and  C_9
REMARK    6  A    between atoms: C_9  and  C_11
REMARK                            x       y       z     vdW  Elec       q    Type
REMARK                         _______ _______ _______ _____ _____    ______ ____
ROOT
ATOM      1  C   UNL     1      34.499 -15.353 -21.408  0.00  0.00    +0.027 C 
ENDROOT
BRANCH   1   2
ATOM      2  C   UNL     1      33.822 -14.645 -22.599  0.00  0.00    +0.088 C 
ATOM      3  C   UNL     1      32.432 -14.108 -22.248  0.00  0.00    +0.029 C 
ATOM      4  C   UNL     1      33.747 -15.539 -23.837  0.00  0.00    +0.029 C 
BRANCH   2   5
ATOM      5  O   UNL     1      34.642 -13.524 -22.953  0.00  0.00    -0.387 OA
ATOM      6  H   UNL     1      34.426 -12.771 -22.382  0.00  0.00    +0.210 HD
ENDBRANCH   2   5
ENDBRANCH   1   2
BRANCH   1   7
ATOM      7  C   UNL     1      34.032 -16.787 -21.141  0.00  0.00    +0.003 C 
BRANCH   7   8
ATOM      8  C   UNL     1      35.218 -17.762 -21.159  0.00  0.00    +0.004 C 
BRANCH   8   9
ATOM      9  C   UNL     1      34.826 -19.184 -21.610  0.00  0.00    +0.022 C 
ATOM     10  C   UNL     1      34.789 -19.254 -23.138  0.00  0.00    +0.005 C 
BRANCH   9  11
ATOM     11  C   UNL     1      33.483 -19.598 -21.059  0.00  0.00    -0.026 C 
ATOM     12  C   UNL     1      33.318 -20.550 -20.134  0.00  0.00    -0.005 C 
ENDBRANCH   9  11
ENDBRANCH   8   9
ENDBRANCH   7   8
ENDBRANCH   1   7
TORSDOF 6
ENDMDL
MODEL 5
REMARK VINA RESULT:      -5.6      2.324      3.591
REMARK  Name = 1712076
REMARK  6 active torsions:
REMARK  status: ('A' for Active; 'I' for Inactive)
REMARK    1  A    between atoms: C_1  and  C_2
REMARK    2  A    between atoms: C_1  and  C_7
REMARK    3  A    between atoms: C_2  and  O_5
REMARK    4  A    between atoms: C_7  and  C_8
REMARK    5  A    between atoms: C_8  and  C_9
REMARK    6  A    between atoms: C_9  and  C_11
REMARK                            x       y       z     vdW  Elec       q    Type
REMARK                         _______ _______ _______ _____ _____    ______ ____
ROOT
ATOM      1  C   UNL     1      34.004 -16.952 -21.546  0.00  0.00    +0.027 C 
ENDROOT
BRANCH   1   2
ATOM      2  C   UNL     1      33.999 -15.489 -21.059  0.00  0.00    +0.088 C 
ATOM      3  C   UNL     1      32.656 -15.080 -20.448  0.00  0.00    +0.029 C 
ATOM      4  C   UNL     1      34.401 -14.509 -22.161  0.00  0.00    +0.029 C 
BRANCH   2   5
ATOM      5  O   UNL     1      34.993 -15.378 -20.031  0.00  0.00    -0.387 OA
ATOM      6  H   UNL     1      35.661 -16.070 -20.150  0.00  0.00    +0.210 HD
ENDBRANCH   2   5
ENDBRANCH   1   2
BRANCH   1   7
ATOM      7  C   UNL     1      35.367 -17.651 -21.519  0.00  0.00    +0.003 C 
BRANCH   7   8
ATOM      8  C   UNL     1      35.844 -17.979 -22.942  0.00  0.00    +0.004 C 
BRANCH   8   9
ATOM      9  C   UNL     1      34.696 -18.016 -23.970  0.00  0.00    +0.022 C 
ATOM     10  C   UNL     1      34.631 -19.395 -24.631  0.00  0.00    +0.005 C 
BRANCH   9  11
ATOM     11  C   UNL     1      34.861 -16.959 -25.036  0.00  0.00    -0.026 C 
ATOM     12  C   UNL     1      33.889 -16.122 -25.414  0.00  0.00    -0.005 C 
ENDBRANCH   9  11
ENDBRANCH   8   9
ENDBRANCH   7   8
ENDBRANCH   1   7
TORSDOF 6
ENDMDL
MODEL 6
REMARK VINA RESULT:      -5.6      1.758      2.278
REMARK  Name = 1712076
REMARK  6 active torsions:
REMARK  status: ('A' for Active; 'I' for Inactive)
REMARK    1  A    between atoms: C_1  and  C_2
REMARK    2  A    between atoms: C_1  and  C_7
REMARK    3  A    between atoms: C_2  and  O_5
REMARK    4  A    between atoms: C_7  and  C_8
REMARK    5  A    between atoms: C_8  and  C_9
REMARK    6  A    between atoms: C_9  and  C_11
REMARK                            x       y       z     vdW  Elec       q    Type
REMARK                         _______ _______ _______ _____ _____    ______ ____
ROOT
ATOM      1  C   UNL     1      34.526 -18.069 -23.483  0.00  0.00    +0.027 C 
ENDROOT
BRANCH   1   2
ATOM      2  C   UNL     1      34.498 -16.561 -23.809  0.00  0.00    +0.088 C 
ATOM      3  C   UNL     1      33.617 -15.769 -22.840  0.00  0.00    +0.029 C 
ATOM      4  C   UNL     1      34.076 -16.288 -25.253  0.00  0.00    +0.029 C 
BRANCH   2   5
ATOM      5  O   UNL     1      35.838 -16.071 -23.675  0.00  0.00    -0.387 OA
ATOM      6  H   UNL     1      36.450 -16.668 -24.132  0.00  0.00    +0.210 HD
ENDBRANCH   2   5
ENDBRANCH   1   2
BRANCH   1   7
ATOM      7  C   UNL     1      35.629 -18.514 -22.518  0.00  0.00    +0.003 C 
BRANCH   7   8
ATOM      8  C   UNL     1      35.068 -18.723 -21.104  0.00  0.00    +0.004 C 
BRANCH   8   9
ATOM      9  C   UNL     1      34.331 -20.068 -20.939  0.00  0.00    +0.022 C 
ATOM     10  C   UNL     1      32.861 -19.819 -20.595  0.00  0.00    +0.005 C 
BRANCH   9  11
ATOM     11  C   UNL     1      34.957 -20.924 -19.864  0.00  0.00    -0.026 C 
ATOM     12  C   UNL     1      34.363 -21.993 -19.322  0.00  0.00    -0.005 C 
ENDBRANCH   9  11
ENDBRANCH   8   9
ENDBRANCH   7   8
ENDBRANCH   1   7
TORSDOF 6
ENDMDL
MODEL 7
REMARK VINA RESULT:      -5.6      1.678      2.896
REMARK  Name = 1712076
REMARK  6 active torsions:
REMARK  status: ('A' for Active; 'I' for Inactive)
REMARK    1  A    between atoms: C_1  and  C_2
REMARK    2  A    between atoms: C_1  and  C_7
REMARK    3  A    between atoms: C_2  and  O_5
REMARK    4  A    between atoms: C_7  and  C_8
REMARK    5  A    between atoms: C_8  and  C_9
REMARK    6  A    between atoms: C_9  and  C_11
REMARK                            x       y       z     vdW  Elec       q    Type
REMARK                         _______ _______ _______ _____ _____    ______ ____
ROOT
ATOM      1  C   UNL     1      34.697 -15.422 -22.857  0.00  0.00    +0.027 C 
ENDROOT
BRANCH   1   2
ATOM      2  C   UNL     1      33.664 -14.361 -23.288  0.00  0.00    +0.088 C 
ATOM      3  C   UNL     1      32.494 -14.252 -22.306  0.00  0.00    +0.029 C 
ATOM      4  C   UNL     1      33.145 -14.600 -24.706  0.00  0.00    +0.029 C 
BRANCH   2   5
ATOM      5  O   UNL     1      34.334 -13.094 -23.305  0.00  0.00    -0.387 OA
ATOM      6  H   UNL     1      34.139 -12.613 -22.486  0.00  0.00    +0.210 HD
ENDBRANCH   2   5
ENDBRANCH   1   2
BRANCH   1   7
ATOM      7  C   UNL     1      34.414 -16.114 -21.520  0.00  0.00    +0.003 C 
BRANCH   7   8
ATOM      8  C   UNL     1      35.174 -17.444 -21.418  0.00  0.00    +0.004 C 
BRANCH   8   9
ATOM      9  C   UNL     1      34.342 -18.653 -21.890  0.00  0.00    +0.022 C 
ATOM     10  C   UNL     1      34.265 -19.700 -20.776  0.00  0.00    +0.005 C 
BRANCH   9  11
ATOM     11  C   UNL     1      34.923 -19.286 -23.131  0.00  0.00    -0.026 C 
ATOM     12  C   UNL     1      34.596 -18.925 -24.377  0.00  0.00    -0.005 C 
ENDBRANCH   9  11
ENDBRANCH   8   9
ENDBRANCH   7   8
ENDBRANCH   1   7
TORSDOF 6
ENDMDL
MODEL 8
REMARK VINA RESULT:      -5.5      1.783      5.159
REMARK  Name = 1712076
REMARK  6 active torsions:
REMARK  status: ('A' for Active; 'I' for Inactive)
REMARK    1  A    between atoms: C_1  and  C_2
REMARK    2  A    between atoms: C_1  and  C_7
REMARK    3  A    between atoms: C_2  and  O_5
REMARK    4  A    between atoms: C_7  and  C_8
REMARK    5  A    between atoms: C_8  and  C_9
REMARK    6  A    between atoms: C_9  and  C_11
REMARK                            x       y       z     vdW  Elec       q    Type
REMARK                         _______ _______ _______ _____ _____    ______ ____
ROOT
ATOM      1  C   UNL     1      33.884 -17.228 -21.196  0.00  0.00    +0.027 C 
ENDROOT
BRANCH   1   2
ATOM      2  C   UNL     1      34.673 -18.539 -21.385  0.00  0.00    +0.088 C 
ATOM      3  C   UNL     1      35.038 -18.796 -22.849  0.00  0.00    +0.029 C 
ATOM      4  C   UNL     1      33.939 -19.747 -20.802  0.00  0.00    +0.029 C 
BRANCH   2   5
ATOM      5  O   UNL     1      35.897 -18.411 -20.650  0.00  0.00    -0.387 OA
ATOM      6  H   UNL     1      35.969 -17.511 -20.296  0.00  0.00    +0.210 HD
ENDBRANCH   2   5
ENDBRANCH   1   2
BRANCH   1   7
ATOM      7  C   UNL     1      34.718 -16.010 -20.786  0.00  0.00    +0.003 C 
BRANCH   7   8
ATOM      8  C   UNL     1      34.580 -14.879 -21.815  0.00  0.00    +0.004 C 
BRANCH   8   9
ATOM      9  C   UNL     1      33.256 -14.939 -22.605  0.00  0.00    +0.022 C 
ATOM     10  C   UNL     1      33.545 -14.932 -24.108  0.00  0.00    +0.005 C 
BRANCH   9  11
ATOM     11  C   UNL     1      32.347 -13.783 -22.266  0.00  0.00    -0.026 C 
ATOM     12  C   UNL     1      32.275 -13.220 -21.054  0.00  0.00    -0.005 C 
ENDBRANCH   9  11
ENDBRANCH   8   9
ENDBRANCH   7   8
ENDBRANCH   1   7
TORSDOF 6
ENDMDL
MODEL 9
REMARK VINA RESULT:      -5.5      1.802      2.998
REMARK  Name = 1712076
REMARK  6 active torsions:
REMARK  status: ('A' for Active; 'I' for Inactive)
REMARK    1  A    between atoms: C_1  and  C_2
REMARK    2  A    between atoms: C_1  and  C_7
REMARK    3  A    between atoms: C_2  and  O_5
REMARK    4  A    between atoms: C_7  and  C_8
REMARK    5  A    between atoms: C_8  and  C_9
REMARK    6  A    between atoms: C_9  and  C_11
REMARK                            x       y       z     vdW  Elec       q    Type
REMARK                         _______ _______ _______ _____ _____    ______ ____
ROOT
ATOM      1  C   UNL     1      33.419 -15.012 -22.842  0.00  0.00    +0.027 C 
ENDROOT
BRANCH   1   2
ATOM      2  C   UNL     1      33.226 -14.889 -21.317  0.00  0.00    +0.088 C 
ATOM      3  C   UNL     1      34.551 -14.943 -20.553  0.00  0.00    +0.029 C 
ATOM      4  C   UNL     1      32.255 -15.935 -20.769  0.00  0.00    +0.029 C 
BRANCH   2   5
ATOM      5  O   UNL     1      32.633 -13.608 -21.064  0.00  0.00    -0.387 OA
ATOM      6  H   UNL     1      33.040 -13.212 -20.278  0.00  0.00    +0.210 HD
ENDBRANCH   2   5
ENDBRANCH   1   2
BRANCH   1   7
ATOM      7  C   UNL     1      34.761 -15.599 -23.291  0.00  0.00    +0.003 C 
BRANCH   7   8
ATOM      8  C   UNL     1      34.551 -16.853 -24.152  0.00  0.00    +0.004 C 
BRANCH   8   9
ATOM      9  C   UNL     1      35.318 -18.083 -23.625  0.00  0.00    +0.022 C 
ATOM     10  C   UNL     1      34.793 -19.352 -24.300  0.00  0.00    +0.005 C 
BRANCH   9  11
ATOM     11  C   UNL     1      35.193 -18.224 -22.128  0.00  0.00    -0.026 C 
ATOM     12  C   UNL     1      34.293 -19.009 -21.525  0.00  0.00    -0.005 C 
ENDBRANCH   9  11
ENDBRANCH   8   9
ENDBRANCH   7   8
ENDBRANCH   1   7
TORSDOF 6
ENDMDL
