MODEL 1
REMARK VINA RESULT:      -8.7      0.000      0.000
REMARK  Name = 15004
REMARK  11 active torsions:
REMARK  status: ('A' for Active; 'I' for Inactive)
REMARK    1  A    between atoms: C_1  and  C_18
REMARK    2  A    between atoms: C_2  and  O_9
REMARK    3  A    between atoms: C_3  and  O_7
REMARK    4  A    between atoms: O_9  and  C_10
REMARK    5  A    between atoms: C_10  and  C_13
REMARK    6  A    between atoms: N_12  and  C_14
REMARK    7  A    between atoms: N_12  and  C_16
REMARK    8  A    between atoms: C_18  and  C_20
REMARK    9  A    between atoms: C_20  and  O_21
REMARK   10  A    between atoms: O_21  and  C_22
REMARK   11  A    between atoms: C_22  and  C_23
REMARK                            x       y       z     vdW  Elec       q    Type
REMARK                         _______ _______ _______ _____ _____    ______ ____
ROOT
ATOM      1  C   UNL     1      35.499 -19.904 -20.641  0.00  0.00    -0.008 C 
ATOM      2  C   UNL     1      34.675 -21.967 -18.974  0.00  0.00    +0.173 C 
ATOM      3  C   UNL     1      36.007 -21.578 -18.975  0.00  0.00    +0.172 C 
ATOM      4  C   UNL     1      36.421 -20.542 -19.812  0.00  0.00    +0.036 C 
ATOM      5  C   UNL     1      34.161 -20.302 -20.633  0.00  0.00    -0.000 C 
ATOM      6  C   UNL     1      33.748 -21.338 -19.795  0.00  0.00    +0.040 C 
ENDROOT
BRANCH   3   7
ATOM      7  O   UNL     1      36.918 -22.193 -18.170  0.00  0.00    -0.468 OA
ATOM      8  C   UNL     1      37.121 -21.632 -16.874  0.00  0.00    +0.253 C 
ENDBRANCH   3   7
BRANCH   2   9
ATOM      9  O   UNL     1      34.254 -22.987 -18.153  0.00  0.00    -0.463 OA
BRANCH   9  10
ATOM     10  C   UNL     1      32.936 -22.910 -17.654  0.00  0.00    +0.290 C 
BRANCH  10  13
ATOM     11  O   UNL     1      34.023 -23.238 -15.575  0.00  0.00    -0.271 OA
ATOM     12  N   UNL     1      31.703 -23.330 -15.535  0.00  0.00    -0.277 N 
ATOM     13  C   UNL     1      32.939 -23.177 -16.164  0.00  0.00    +0.270 C 
BRANCH  12  14
ATOM     14  C   UNL     1      30.402 -23.249 -16.195  0.00  0.00    +0.094 C 
ATOM     15  C   UNL     1      29.367 -22.597 -15.302  0.00  0.00    +0.023 C 
ENDBRANCH  12  14
BRANCH  12  16
ATOM     16  C   UNL     1      31.655 -23.580 -14.099  0.00  0.00    +0.094 C 
ATOM     17  C   UNL     1      31.650 -25.063 -13.794  0.00  0.00    +0.023 C 
ENDBRANCH  12  16
ENDBRANCH  10  13
ENDBRANCH   9  10
ENDBRANCH   2   9
BRANCH   1  18
ATOM     18  C   UNL     1      35.940 -18.796 -21.536  0.00  0.00    +0.136 C 
BRANCH  18  20
ATOM     19  O   UNL     1      35.233 -16.820 -20.306  0.00  0.00    -0.250 OA
ATOM     20  C   UNL     1      35.178 -17.503 -21.319  0.00  0.00    +0.321 C 
BRANCH  20  21
ATOM     21  O   UNL     1      34.428 -17.228 -22.429  0.00  0.00    -0.448 OA
BRANCH  21  22
ATOM     22  C   UNL     1      35.081 -16.446 -23.434  0.00  0.00    +0.208 C 
BRANCH  22  23
ATOM     23  C   UNL     1      34.539 -16.847 -24.797  0.00  0.00    +0.047 C 
ATOM     24  C   UNL     1      34.448 -18.355 -24.948  0.00  0.00    +0.004 C 
ENDBRANCH  22  23
ENDBRANCH  21  22
ENDBRANCH  20  21
ENDBRANCH  18  20
ENDBRANCH   1  18
TORSDOF 11
ENDMDL
MODEL 2
REMARK VINA RESULT:      -8.4      1.072      1.498
REMARK  Name = 15004
REMARK  11 active torsions:
REMARK  status: ('A' for Active; 'I' for Inactive)
REMARK    1  A    between atoms: C_1  and  C_18
REMARK    2  A    between atoms: C_2  and  O_9
REMARK    3  A    between atoms: C_3  and  O_7
REMARK    4  A    between atoms: O_9  and  C_10
REMARK    5  A    between atoms: C_10  and  C_13
REMARK    6  A    between atoms: N_12  and  C_14
REMARK    7  A    between atoms: N_12  and  C_16
REMARK    8  A    between atoms: C_18  and  C_20
REMARK    9  A    between atoms: C_20  and  O_21
REMARK   10  A    between atoms: O_21  and  C_22
REMARK   11  A    between atoms: C_22  and  C_23
REMARK                            x       y       z     vdW  Elec       q    Type
REMARK                         _______ _______ _______ _____ _____    ______ ____
ROOT
ATOM      1  C   UNL     1      35.230 -19.911 -20.786  0.00  0.00    -0.008 C 
ATOM      2  C   UNL     1      34.560 -21.928 -18.998  0.00  0.00    +0.173 C 
ATOM      3  C   UNL     1      35.883 -21.525 -19.110  0.00  0.00    +0.172 C 
ATOM      4  C   UNL     1      36.220 -20.512 -20.008  0.00  0.00    +0.036 C 
ATOM      5  C   UNL     1      33.903 -20.323 -20.665  0.00  0.00    -0.000 C 
ATOM      6  C   UNL     1      33.567 -21.336 -19.767  0.00  0.00    +0.040 C 
ENDROOT
BRANCH   3   7
ATOM      7  O   UNL     1      36.860 -22.103 -18.356  0.00  0.00    -0.468 OA
ATOM      8  C   UNL     1      37.092 -21.551 -17.061  0.00  0.00    +0.253 C 
ENDBRANCH   3   7
BRANCH   2   9
ATOM      9  O   UNL     1      34.216 -22.925 -18.116  0.00  0.00    -0.463 OA
BRANCH   9  10
ATOM     10  C   UNL     1      32.888 -22.931 -17.637  0.00  0.00    +0.290 C 
BRANCH  10  13
ATOM     11  O   UNL     1      33.966 -23.281 -15.557  0.00  0.00    -0.271 OA
ATOM     12  N   UNL     1      31.645 -23.352 -15.523  0.00  0.00    -0.277 N 
ATOM     13  C   UNL     1      32.885 -23.206 -16.148  0.00  0.00    +0.270 C 
BRANCH  12  14
ATOM     14  C   UNL     1      30.347 -23.255 -16.186  0.00  0.00    +0.094 C 
ATOM     15  C   UNL     1      29.317 -22.591 -15.295  0.00  0.00    +0.023 C 
ENDBRANCH  12  14
BRANCH  12  16
ATOM     16  C   UNL     1      31.592 -23.610 -14.089  0.00  0.00    +0.094 C 
ATOM     17  C   UNL     1      31.582 -25.094 -13.792  0.00  0.00    +0.023 C 
ENDBRANCH  12  16
ENDBRANCH  10  13
ENDBRANCH   9  10
ENDBRANCH   2   9
BRANCH   1  18
ATOM     18  C   UNL     1      35.590 -18.827 -21.745  0.00  0.00    +0.136 C 
BRANCH  18  20
ATOM     19  O   UNL     1      35.374 -16.915 -20.257  0.00  0.00    -0.250 OA
ATOM     20  C   UNL     1      35.101 -17.456 -21.319  0.00  0.00    +0.321 C 
BRANCH  20  21
ATOM     21  O   UNL     1      34.315 -16.929 -22.306  0.00  0.00    -0.448 OA
BRANCH  21  22
ATOM     22  C   UNL     1      34.282 -15.500 -22.369  0.00  0.00    +0.208 C 
BRANCH  22  23
ATOM     23  C   UNL     1      32.881 -15.025 -22.014  0.00  0.00    +0.047 C 
ATOM     24  C   UNL     1      32.812 -14.478 -20.600  0.00  0.00    +0.004 C 
ENDBRANCH  22  23
ENDBRANCH  21  22
ENDBRANCH  20  21
ENDBRANCH  18  20
ENDBRANCH   1  18
TORSDOF 11
ENDMDL
MODEL 3
REMARK VINA RESULT:      -8.2      2.718      4.243
REMARK  Name = 15004
REMARK  11 active torsions:
REMARK  status: ('A' for Active; 'I' for Inactive)
REMARK    1  A    between atoms: C_1  and  C_18
REMARK    2  A    between atoms: C_2  and  O_9
REMARK    3  A    between atoms: C_3  and  O_7
REMARK    4  A    between atoms: O_9  and  C_10
REMARK    5  A    between atoms: C_10  and  C_13
REMARK    6  A    between atoms: N_12  and  C_14
REMARK    7  A    between atoms: N_12  and  C_16
REMARK    8  A    between atoms: C_18  and  C_20
REMARK    9  A    between atoms: C_20  and  O_21
REMARK   10  A    between atoms: O_21  and  C_22
REMARK   11  A    between atoms: C_22  and  C_23
REMARK                            x       y       z     vdW  Elec       q    Type
REMARK                         _______ _______ _______ _____ _____    ______ ____
ROOT
ATOM      1  C   UNL     1      34.773 -20.578 -20.218  0.00  0.00    -0.008 C 
ATOM      2  C   UNL     1      35.062 -22.411 -18.151  0.00  0.00    +0.173 C 
ATOM      3  C   UNL     1      33.822 -22.248 -18.753  0.00  0.00    +0.172 C 
ATOM      4  C   UNL     1      33.676 -21.327 -19.791  0.00  0.00    +0.036 C 
ATOM      5  C   UNL     1      36.015 -20.749 -19.606  0.00  0.00    -0.000 C 
ATOM      6  C   UNL     1      36.160 -21.670 -18.568  0.00  0.00    +0.040 C 
ENDROOT
BRANCH   3   7
ATOM      7  O   UNL     1      32.743 -22.974 -18.347  0.00  0.00    -0.468 OA
ATOM      8  C   UNL     1      32.074 -22.535 -17.165  0.00  0.00    +0.253 C 
ENDBRANCH   3   7
BRANCH   2   9
ATOM      9  O   UNL     1      35.217 -23.315 -17.128  0.00  0.00    -0.463 OA
BRANCH   9  10
ATOM     10  C   UNL     1      35.496 -22.795 -15.845  0.00  0.00    +0.290 C 
BRANCH  10  13
ATOM     11  O   UNL     1      37.787 -22.290 -15.517  0.00  0.00    -0.271 OA
ATOM     12  N   UNL     1      37.142 -24.461 -15.006  0.00  0.00    -0.277 N 
ATOM     13  C   UNL     1      36.911 -23.157 -15.445  0.00  0.00    +0.270 C 
BRANCH  12  14
ATOM     14  C   UNL     1      36.129 -25.508 -14.893  0.00  0.00    +0.094 C 
ATOM     15  C   UNL     1      36.656 -26.844 -15.376  0.00  0.00    +0.023 C 
ENDBRANCH  12  14
BRANCH  12  16
ATOM     16  C   UNL     1      38.487 -24.854 -14.603  0.00  0.00    +0.094 C 
ATOM     17  C   UNL     1      38.632 -24.868 -13.095  0.00  0.00    +0.023 C 
ENDBRANCH  12  16
ENDBRANCH  10  13
ENDBRANCH   9  10
ENDBRANCH   2   9
BRANCH   1  18
ATOM     18  C   UNL     1      34.618 -19.594 -21.327  0.00  0.00    +0.136 C 
BRANCH  18  20
ATOM     19  O   UNL     1      36.777 -18.641 -21.920  0.00  0.00    -0.250 OA
ATOM     20  C   UNL     1      35.701 -18.532 -21.349  0.00  0.00    +0.321 C 
BRANCH  20  21
ATOM     21  O   UNL     1      35.282 -17.445 -20.633  0.00  0.00    -0.448 OA
BRANCH  21  22
ATOM     22  C   UNL     1      34.518 -16.482 -21.367  0.00  0.00    +0.208 C 
BRANCH  22  23
ATOM     23  C   UNL     1      34.307 -15.254 -20.496  0.00  0.00    +0.047 C 
ATOM     24  C   UNL     1      32.854 -14.815 -20.482  0.00  0.00    +0.004 C 
ENDBRANCH  22  23
ENDBRANCH  21  22
ENDBRANCH  20  21
ENDBRANCH  18  20
ENDBRANCH   1  18
TORSDOF 11
ENDMDL
MODEL 4
REMARK VINA RESULT:      -8.2      6.184     11.291
REMARK  Name = 15004
REMARK  11 active torsions:
REMARK  status: ('A' for Active; 'I' for Inactive)
REMARK    1  A    between atoms: C_1  and  C_18
REMARK    2  A    between atoms: C_2  and  O_9
REMARK    3  A    between atoms: C_3  and  O_7
REMARK    4  A    between atoms: O_9  and  C_10
REMARK    5  A    between atoms: C_10  and  C_13
REMARK    6  A    between atoms: N_12  and  C_14
REMARK    7  A    between atoms: N_12  and  C_16
REMARK    8  A    between atoms: C_18  and  C_20
REMARK    9  A    between atoms: C_20  and  O_21
REMARK   10  A    between atoms: O_21  and  C_22
REMARK   11  A    between atoms: C_22  and  C_23
REMARK                            x       y       z     vdW  Elec       q    Type
REMARK                         _______ _______ _______ _____ _____    ______ ____
ROOT
ATOM      1  C   UNL     1      34.072 -15.279 -21.328  0.00  0.00    -0.008 C 
ATOM      2  C   UNL     1      32.525 -13.132 -22.174  0.00  0.00    +0.173 C 
ATOM      3  C   UNL     1      33.417 -13.724 -23.058  0.00  0.00    +0.172 C 
ATOM      4  C   UNL     1      34.194 -14.802 -22.633  0.00  0.00    +0.036 C 
ATOM      5  C   UNL     1      33.172 -14.677 -20.447  0.00  0.00    -0.000 C 
ATOM      6  C   UNL     1      32.396 -13.599 -20.873  0.00  0.00    +0.040 C 
ENDROOT
BRANCH   3   7
ATOM      7  O   UNL     1      33.545 -13.269 -24.335  0.00  0.00    -0.468 OA
ATOM      8  C   UNL     1      33.150 -14.155 -25.382  0.00  0.00    +0.253 C 
ENDBRANCH   3   7
BRANCH   2   9
ATOM      9  O   UNL     1      31.754 -12.070 -22.582  0.00  0.00    -0.463 OA
BRANCH   9  10
ATOM     10  C   UNL     1      31.910 -10.854 -21.881  0.00  0.00    +0.290 C 
BRANCH  10  13
ATOM     11  O   UNL     1      32.604 -10.076 -24.009  0.00  0.00    -0.271 OA
ATOM     12  N   UNL     1      32.742  -8.542 -22.271  0.00  0.00    -0.277 N 
ATOM     13  C   UNL     1      32.452  -9.793 -22.816  0.00  0.00    +0.270 C 
BRANCH  12  14
ATOM     14  C   UNL     1      32.561  -8.167 -20.871  0.00  0.00    +0.094 C 
ATOM     15  C   UNL     1      32.070  -6.740 -20.738  0.00  0.00    +0.023 C 
ENDBRANCH  12  14
BRANCH  12  16
ATOM     16  C   UNL     1      33.258  -7.487 -23.134  0.00  0.00    +0.094 C 
ATOM     17  C   UNL     1      34.760  -7.589 -23.300  0.00  0.00    +0.023 C 
ENDBRANCH  12  16
ENDBRANCH  10  13
ENDBRANCH   9  10
ENDBRANCH   2   9
BRANCH   1  18
ATOM     18  C   UNL     1      34.902 -16.431 -20.873  0.00  0.00    +0.136 C 
BRANCH  18  20
ATOM     19  O   UNL     1      35.819 -17.647 -22.769  0.00  0.00    -0.250 OA
ATOM     20  C   UNL     1      34.979 -17.557 -21.885  0.00  0.00    +0.321 C 
BRANCH  20  21
ATOM     21  O   UNL     1      33.967 -18.446 -21.651  0.00  0.00    -0.448 OA
BRANCH  21  22
ATOM     22  C   UNL     1      34.332 -19.611 -20.904  0.00  0.00    +0.208 C 
BRANCH  22  23
ATOM     23  C   UNL     1      33.070 -20.257 -20.352  0.00  0.00    +0.047 C 
ATOM     24  C   UNL     1      33.385 -21.462 -19.485  0.00  0.00    +0.004 C 
ENDBRANCH  22  23
ENDBRANCH  21  22
ENDBRANCH  20  21
ENDBRANCH  18  20
ENDBRANCH   1  18
TORSDOF 11
ENDMDL
MODEL 5
REMARK VINA RESULT:      -8.1      4.173      7.841
REMARK  Name = 15004
REMARK  11 active torsions:
REMARK  status: ('A' for Active; 'I' for Inactive)
REMARK    1  A    between atoms: C_1  and  C_18
REMARK    2  A    between atoms: C_2  and  O_9
REMARK    3  A    between atoms: C_3  and  O_7
REMARK    4  A    between atoms: O_9  and  C_10
REMARK    5  A    between atoms: C_10  and  C_13
REMARK    6  A    between atoms: N_12  and  C_14
REMARK    7  A    between atoms: N_12  and  C_16
REMARK    8  A    between atoms: C_18  and  C_20
REMARK    9  A    between atoms: C_20  and  O_21
REMARK   10  A    between atoms: O_21  and  C_22
REMARK   11  A    between atoms: C_22  and  C_23
REMARK                            x       y       z     vdW  Elec       q    Type
REMARK                         _______ _______ _______ _____ _____    ______ ____
ROOT
ATOM      1  C   UNL     1      31.243 -23.004 -15.723  0.00  0.00    -0.008 C 
ATOM      2  C   UNL     1      33.971 -23.447 -16.001  0.00  0.00    +0.173 C 
ATOM      3  C   UNL     1      33.179 -23.313 -17.134  0.00  0.00    +0.172 C 
ATOM      4  C   UNL     1      31.809 -23.092 -16.994  0.00  0.00    +0.036 C 
ATOM      5  C   UNL     1      32.047 -23.139 -14.590  0.00  0.00    -0.000 C 
ATOM      6  C   UNL     1      33.417 -23.361 -14.731  0.00  0.00    +0.040 C 
ENDROOT
BRANCH   3   7
ATOM      7  O   UNL     1      33.720 -23.396 -18.381  0.00  0.00    -0.468 OA
ATOM      8  C   UNL     1      33.900 -22.172 -19.093  0.00  0.00    +0.253 C 
ENDBRANCH   3   7
BRANCH   2   9
ATOM      9  O   UNL     1      35.322 -23.666 -16.126  0.00  0.00    -0.463 OA
BRANCH   9  10
ATOM     10  C   UNL     1      36.126 -23.390 -14.999  0.00  0.00    +0.290 C 
BRANCH  10  13
ATOM     11  O   UNL     1      38.178 -22.739 -15.989  0.00  0.00    -0.271 OA
ATOM     12  N   UNL     1      38.177 -24.794 -14.908  0.00  0.00    -0.277 N 
ATOM     13  C   UNL     1      37.584 -23.610 -15.347  0.00  0.00    +0.270 C 
BRANCH  12  14
ATOM     14  C   UNL     1      37.512 -25.839 -14.134  0.00  0.00    +0.094 C 
ATOM     15  C   UNL     1      36.807 -26.833 -15.034  0.00  0.00    +0.023 C 
ENDBRANCH  12  14
BRANCH  12  16
ATOM     16  C   UNL     1      39.581 -25.047 -15.212  0.00  0.00    +0.094 C 
ATOM     17  C   UNL     1      40.268 -25.786 -14.083  0.00  0.00    +0.023 C 
ENDBRANCH  12  16
ENDBRANCH  10  13
ENDBRANCH   9  10
ENDBRANCH   2   9
BRANCH   1  18
ATOM     18  C   UNL     1      29.778 -22.766 -15.572  0.00  0.00    +0.136 C 
BRANCH  18  20
ATOM     19  O   UNL     1      29.152 -25.017 -14.896  0.00  0.00    -0.250 OA
ATOM     20  C   UNL     1      28.953 -24.038 -15.601  0.00  0.00    +0.321 C 
BRANCH  20  21
ATOM     21  O   UNL     1      27.961 -23.912 -16.534  0.00  0.00    -0.448 OA
BRANCH  21  22
ATOM     22  C   UNL     1      27.866 -22.629 -17.162  0.00  0.00    +0.208 C 
BRANCH  22  23
ATOM     23  C   UNL     1      26.555 -21.976 -16.750  0.00  0.00    +0.047 C 
ATOM     24  C   UNL     1      25.979 -21.118 -17.862  0.00  0.00    +0.004 C 
ENDBRANCH  22  23
ENDBRANCH  21  22
ENDBRANCH  20  21
ENDBRANCH  18  20
ENDBRANCH   1  18
TORSDOF 11
ENDMDL
MODEL 6
REMARK VINA RESULT:      -8.0      6.051      9.948
REMARK  Name = 15004
REMARK  11 active torsions:
REMARK  status: ('A' for Active; 'I' for Inactive)
REMARK    1  A    between atoms: C_1  and  C_18
REMARK    2  A    between atoms: C_2  and  O_9
REMARK    3  A    between atoms: C_3  and  O_7
REMARK    4  A    between atoms: O_9  and  C_10
REMARK    5  A    between atoms: C_10  and  C_13
REMARK    6  A    between atoms: N_12  and  C_14
REMARK    7  A    between atoms: N_12  and  C_16
REMARK    8  A    between atoms: C_18  and  C_20
REMARK    9  A    between atoms: C_20  and  O_21
REMARK   10  A    between atoms: O_21  and  C_22
REMARK   11  A    between atoms: C_22  and  C_23
REMARK                            x       y       z     vdW  Elec       q    Type
REMARK                         _______ _______ _______ _____ _____    ______ ____
ROOT
ATOM      1  C   UNL     1      31.853 -10.813 -21.744  0.00  0.00    -0.008 C 
ATOM      2  C   UNL     1      32.447 -13.520 -21.936  0.00  0.00    +0.173 C 
ATOM      3  C   UNL     1      32.647 -12.695 -23.035  0.00  0.00    +0.172 C 
ATOM      4  C   UNL     1      32.348 -11.336 -22.939  0.00  0.00    +0.036 C 
ATOM      5  C   UNL     1      31.656 -11.650 -20.645  0.00  0.00    -0.000 C 
ATOM      6  C   UNL     1      31.955 -13.010 -20.742  0.00  0.00    +0.040 C 
ENDROOT
BRANCH   3   7
ATOM      7  O   UNL     1      33.131 -13.193 -24.207  0.00  0.00    -0.468 OA
ATOM      8  C   UNL     1      33.820 -12.282 -25.063  0.00  0.00    +0.253 C 
ENDBRANCH   3   7
BRANCH   2   9
ATOM      9  O   UNL     1      32.738 -14.861 -22.019  0.00  0.00    -0.463 OA
BRANCH   9  10
ATOM     10  C   UNL     1      33.976 -15.285 -21.490  0.00  0.00    +0.290 C 
BRANCH  10  13
ATOM     11  O   UNL     1      35.263 -15.502 -23.467  0.00  0.00    -0.271 OA
ATOM     12  N   UNL     1      34.765 -17.479 -22.357  0.00  0.00    -0.277 N 
ATOM     13  C   UNL     1      34.724 -16.095 -22.529  0.00  0.00    +0.270 C 
BRANCH  12  14
ATOM     14  C   UNL     1      34.153 -18.214 -21.253  0.00  0.00    +0.094 C 
ATOM     15  C   UNL     1      34.942 -19.461 -20.910  0.00  0.00    +0.023 C 
ENDBRANCH  12  14
BRANCH  12  16
ATOM     16  C   UNL     1      35.480 -18.300 -23.327  0.00  0.00    +0.094 C 
ATOM     17  C   UNL     1      34.569 -18.753 -24.449  0.00  0.00    +0.023 C 
ENDBRANCH  12  16
ENDBRANCH  10  13
ENDBRANCH   9  10
ENDBRANCH   2   9
BRANCH   1  18
ATOM     18  C   UNL     1      31.535  -9.360 -21.640  0.00  0.00    +0.136 C 
BRANCH  18  20
ATOM     19  O   UNL     1      32.280  -8.456 -19.508  0.00  0.00    -0.250 OA
ATOM     20  C   UNL     1      32.462  -8.603 -20.709  0.00  0.00    +0.321 C 
BRANCH  20  21
ATOM     21  O   UNL     1      33.522  -8.118 -21.423  0.00  0.00    -0.448 OA
BRANCH  21  22
ATOM     22  C   UNL     1      33.184  -7.337 -22.574  0.00  0.00    +0.208 C 
BRANCH  22  23
ATOM     23  C   UNL     1      34.358  -7.353 -23.540  0.00  0.00    +0.047 C 
ATOM     24  C   UNL     1      34.693  -8.761 -23.999  0.00  0.00    +0.004 C 
ENDBRANCH  22  23
ENDBRANCH  21  22
ENDBRANCH  20  21
ENDBRANCH  18  20
ENDBRANCH   1  18
TORSDOF 11
ENDMDL
MODEL 7
REMARK VINA RESULT:      -8.0      2.344      3.512
REMARK  Name = 15004
REMARK  11 active torsions:
REMARK  status: ('A' for Active; 'I' for Inactive)
REMARK    1  A    between atoms: C_1  and  C_18
REMARK    2  A    between atoms: C_2  and  O_9
REMARK    3  A    between atoms: C_3  and  O_7
REMARK    4  A    between atoms: O_9  and  C_10
REMARK    5  A    between atoms: C_10  and  C_13
REMARK    6  A    between atoms: N_12  and  C_14
REMARK    7  A    between atoms: N_12  and  C_16
REMARK    8  A    between atoms: C_18  and  C_20
REMARK    9  A    between atoms: C_20  and  O_21
REMARK   10  A    between atoms: O_21  and  C_22
REMARK   11  A    between atoms: C_22  and  C_23
REMARK                            x       y       z     vdW  Elec       q    Type
REMARK                         _______ _______ _______ _____ _____    ______ ____
ROOT
ATOM      1  C   UNL     1      34.273 -20.610 -20.180  0.00  0.00    -0.008 C 
ATOM      2  C   UNL     1      35.890 -22.014 -18.411  0.00  0.00    +0.173 C 
ATOM      3  C   UNL     1      34.540 -22.323 -18.497  0.00  0.00    +0.172 C 
ATOM      4  C   UNL     1      33.728 -21.618 -19.385  0.00  0.00    +0.036 C 
ATOM      5  C   UNL     1      35.632 -20.307 -20.086  0.00  0.00    -0.000 C 
ATOM      6  C   UNL     1      36.444 -21.012 -19.198  0.00  0.00    +0.040 C 
ENDROOT
BRANCH   3   7
ATOM      7  O   UNL     1      33.995 -23.306 -17.727  0.00  0.00    -0.468 OA
ATOM      8  C   UNL     1      32.684 -23.074 -17.213  0.00  0.00    +0.253 C 
ENDBRANCH   3   7
BRANCH   2   9
ATOM      9  O   UNL     1      36.701 -22.702 -17.540  0.00  0.00    -0.463 OA
BRANCH   9  10
ATOM     10  C   UNL     1      36.577 -22.397 -16.167  0.00  0.00    +0.290 C 
BRANCH  10  13
ATOM     11  O   UNL     1      38.509 -23.504 -15.357  0.00  0.00    -0.271 OA
ATOM     12  N   UNL     1      36.472 -24.329 -14.604  0.00  0.00    -0.277 N 
ATOM     13  C   UNL     1      37.275 -23.459 -15.344  0.00  0.00    +0.270 C 
BRANCH  12  14
ATOM     14  C   UNL     1      35.013 -24.297 -14.552  0.00  0.00    +0.094 C 
ATOM     15  C   UNL     1      34.511 -24.175 -13.128  0.00  0.00    +0.023 C 
ENDBRANCH  12  14
BRANCH  12  16
ATOM     16  C   UNL     1      37.099 -25.363 -13.789  0.00  0.00    +0.094 C 
ATOM     17  C   UNL     1      37.143 -26.691 -14.516  0.00  0.00    +0.023 C 
ENDBRANCH  12  16
ENDBRANCH  10  13
ENDBRANCH   9  10
ENDBRANCH   2   9
BRANCH   1  18
ATOM     18  C   UNL     1      33.406 -19.856 -21.130  0.00  0.00    +0.136 C 
BRANCH  18  20
ATOM     19  O   UNL     1      34.285 -17.613 -21.467  0.00  0.00    -0.250 OA
ATOM     20  C   UNL     1      34.138 -18.756 -21.875  0.00  0.00    +0.321 C 
BRANCH  20  21
ATOM     21  O   UNL     1      34.603 -19.247 -23.063  0.00  0.00    -0.448 OA
BRANCH  21  22
ATOM     22  C   UNL     1      35.303 -18.308 -23.886  0.00  0.00    +0.208 C 
BRANCH  22  23
ATOM     23  C   UNL     1      34.432 -17.958 -25.082  0.00  0.00    +0.047 C 
ATOM     24  C   UNL     1      34.218 -16.460 -25.206  0.00  0.00    +0.004 C 
ENDBRANCH  22  23
ENDBRANCH  21  22
ENDBRANCH  20  21
ENDBRANCH  18  20
ENDBRANCH   1  18
TORSDOF 11
ENDMDL
MODEL 8
REMARK VINA RESULT:      -8.0      2.283      3.793
REMARK  Name = 15004
REMARK  11 active torsions:
REMARK  status: ('A' for Active; 'I' for Inactive)
REMARK    1  A    between atoms: C_1  and  C_18
REMARK    2  A    between atoms: C_2  and  O_9
REMARK    3  A    between atoms: C_3  and  O_7
REMARK    4  A    between atoms: O_9  and  C_10
REMARK    5  A    between atoms: C_10  and  C_13
REMARK    6  A    between atoms: N_12  and  C_14
REMARK    7  A    between atoms: N_12  and  C_16
REMARK    8  A    between atoms: C_18  and  C_20
REMARK    9  A    between atoms: C_20  and  O_21
REMARK   10  A    between atoms: O_21  and  C_22
REMARK   11  A    between atoms: C_22  and  C_23
REMARK                            x       y       z     vdW  Elec       q    Type
REMARK                         _______ _______ _______ _____ _____    ______ ____
ROOT
ATOM      1  C   UNL     1      34.624 -20.193 -20.582  0.00  0.00    -0.008 C 
ATOM      2  C   UNL     1      36.162 -21.673 -18.803  0.00  0.00    +0.173 C 
ATOM      3  C   UNL     1      34.813 -21.963 -18.947  0.00  0.00    +0.172 C 
ATOM      4  C   UNL     1      34.040 -21.220 -19.839  0.00  0.00    +0.036 C 
ATOM      5  C   UNL     1      35.982 -19.910 -20.431  0.00  0.00    -0.000 C 
ATOM      6  C   UNL     1      36.754 -20.653 -19.538  0.00  0.00    +0.040 C 
ENDROOT
BRANCH   3   7
ATOM      7  O   UNL     1      34.230 -22.963 -18.228  0.00  0.00    -0.468 OA
ATOM      8  C   UNL     1      32.901 -22.735 -17.761  0.00  0.00    +0.253 C 
ENDBRANCH   3   7
BRANCH   2   9
ATOM      9  O   UNL     1      36.934 -22.398 -17.927  0.00  0.00    -0.463 OA
BRANCH   9  10
ATOM     10  C   UNL     1      37.093 -21.876 -16.625  0.00  0.00    +0.290 C 
BRANCH  10  13
ATOM     11  O   UNL     1      38.727 -23.331 -15.716  0.00  0.00    -0.271 OA
ATOM     12  N   UNL     1      36.589 -23.523 -14.830  0.00  0.00    -0.277 N 
ATOM     13  C   UNL     1      37.545 -22.976 -15.687  0.00  0.00    +0.270 C 
BRANCH  12  14
ATOM     14  C   UNL     1      35.187 -23.119 -14.757  0.00  0.00    +0.094 C 
ATOM     15  C   UNL     1      34.270 -24.317 -14.630  0.00  0.00    +0.023 C 
ENDBRANCH  12  14
BRANCH  12  16
ATOM     16  C   UNL     1      36.979 -24.579 -13.903  0.00  0.00    +0.094 C 
ATOM     17  C   UNL     1      37.389 -24.015 -12.560  0.00  0.00    +0.023 C 
ENDBRANCH  12  16
ENDBRANCH  10  13
ENDBRANCH   9  10
ENDBRANCH   2   9
BRANCH   1  18
ATOM     18  C   UNL     1      33.799 -19.399 -21.537  0.00  0.00    +0.136 C 
BRANCH  18  20
ATOM     19  O   UNL     1      34.951 -19.341 -23.679  0.00  0.00    -0.250 OA
ATOM     20  C   UNL     1      34.607 -18.768 -22.654  0.00  0.00    +0.321 C 
BRANCH  20  21
ATOM     21  O   UNL     1      34.885 -17.469 -22.333  0.00  0.00    -0.448 OA
BRANCH  21  22
ATOM     22  C   UNL     1      33.944 -16.837 -21.458  0.00  0.00    +0.208 C 
BRANCH  22  23
ATOM     23  C   UNL     1      34.389 -15.403 -21.213  0.00  0.00    +0.047 C 
ATOM     24  C   UNL     1      33.260 -14.549 -20.663  0.00  0.00    +0.004 C 
ENDBRANCH  22  23
ENDBRANCH  21  22
ENDBRANCH  20  21
ENDBRANCH  18  20
ENDBRANCH   1  18
TORSDOF 11
ENDMDL
MODEL 9
REMARK VINA RESULT:      -8.0      4.924     10.185
REMARK  Name = 15004
REMARK  11 active torsions:
REMARK  status: ('A' for Active; 'I' for Inactive)
REMARK    1  A    between atoms: C_1  and  C_18
REMARK    2  A    between atoms: C_2  and  O_9
REMARK    3  A    between atoms: C_3  and  O_7
REMARK    4  A    between atoms: O_9  and  C_10
REMARK    5  A    between atoms: C_10  and  C_13
REMARK    6  A    between atoms: N_12  and  C_14
REMARK    7  A    between atoms: N_12  and  C_16
REMARK    8  A    between atoms: C_18  and  C_20
REMARK    9  A    between atoms: C_20  and  O_21
REMARK   10  A    between atoms: O_21  and  C_22
REMARK   11  A    between atoms: C_22  and  C_23
REMARK                            x       y       z     vdW  Elec       q    Type
REMARK                         _______ _______ _______ _____ _____    ______ ____
ROOT
ATOM      1  C   UNL     1      34.897 -17.645 -22.967  0.00  0.00    -0.008 C 
ATOM      2  C   UNL     1      34.223 -15.057 -23.720  0.00  0.00    +0.173 C 
ATOM      3  C   UNL     1      34.339 -16.044 -24.689  0.00  0.00    +0.172 C 
ATOM      4  C   UNL     1      34.678 -17.343 -24.311  0.00  0.00    +0.036 C 
ATOM      5  C   UNL     1      34.778 -16.645 -22.000  0.00  0.00    -0.000 C 
ATOM      6  C   UNL     1      34.440 -15.346 -22.379  0.00  0.00    +0.040 C 
ENDROOT
BRANCH   3   7
ATOM      7  O   UNL     1      34.126 -15.764 -26.005  0.00  0.00    -0.468 OA
ATOM      8  C   UNL     1      32.812 -15.347 -26.375  0.00  0.00    +0.253 C 
ENDBRANCH   3   7
BRANCH   2   9
ATOM      9  O   UNL     1      33.890 -13.773 -24.080  0.00  0.00    -0.463 OA
BRANCH   9  10
ATOM     10  C   UNL     1      32.875 -13.137 -23.332  0.00  0.00    +0.290 C 
BRANCH  10  13
ATOM     11  O   UNL     1      33.998 -11.178 -24.050  0.00  0.00    -0.271 OA
ATOM     12  N   UNL     1      32.265 -10.861 -22.536  0.00  0.00    -0.277 N 
ATOM     13  C   UNL     1      33.100 -11.640 -23.338  0.00  0.00    +0.270 C 
BRANCH  12  14
ATOM     14  C   UNL     1      31.185 -11.369 -21.694  0.00  0.00    +0.094 C 
ATOM     15  C   UNL     1      31.464 -11.122 -20.226  0.00  0.00    +0.023 C 
ENDBRANCH  12  14
BRANCH  12  16
ATOM     16  C   UNL     1      32.439  -9.413 -22.515  0.00  0.00    +0.094 C 
ATOM     17  C   UNL     1      31.473  -8.725 -23.457  0.00  0.00    +0.023 C 
ENDBRANCH  12  16
ENDBRANCH  10  13
ENDBRANCH   9  10
ENDBRANCH   2   9
BRANCH   1  18
ATOM     18  C   UNL     1      35.259 -19.033 -22.562  0.00  0.00    +0.136 C 
BRANCH  18  20
ATOM     19  O   UNL     1      33.304 -19.684 -21.268  0.00  0.00    -0.250 OA
ATOM     20  C   UNL     1      34.514 -19.518 -21.333  0.00  0.00    +0.321 C 
BRANCH  20  21
ATOM     21  O   UNL     1      35.407 -19.737 -20.321  0.00  0.00    -0.448 OA
BRANCH  21  22
ATOM     22  C   UNL     1      35.916 -21.071 -20.227  0.00  0.00    +0.208 C 
BRANCH  22  23
ATOM     23  C   UNL     1      35.374 -21.716 -18.960  0.00  0.00    +0.047 C 
ATOM     24  C   UNL     1      34.128 -22.539 -19.234  0.00  0.00    +0.004 C 
ENDBRANCH  22  23
ENDBRANCH  21  22
ENDBRANCH  20  21
ENDBRANCH  18  20
ENDBRANCH   1  18
TORSDOF 11
ENDMDL
