MODEL 1
REMARK VINA RESULT:      -7.3      0.000      0.000
REMARK  Name = 2730282
REMARK  6 active torsions:
REMARK  status: ('A' for Active; 'I' for Inactive)
REMARK    1  A    between atoms: N_1  and  C_3
REMARK    2  A    between atoms: N_1  and  C_14
REMARK    3  A    between atoms: C_3  and  N_6
REMARK    4  A    between atoms: N_6  and  C_9
REMARK    5  A    between atoms: C_15  and  O_20
REMARK    6  A    between atoms: C_16  and  O_22
REMARK                            x       y       z     vdW  Elec       q    Type
REMARK                         _______ _______ _______ _____ _____    ______ ____
ROOT
ATOM      1  N   UNL     1      35.124 -17.407 -20.731  0.00  0.00    -0.368 N 
ATOM      2  C   UNL     1      35.036 -18.411 -21.673  0.00  0.00    +0.225 C 
ATOM      3  H   UNL     1      34.581 -17.454 -19.911  0.00  0.00    +0.159 HD
ATOM      4  H   UNL     1      35.729 -16.645 -20.878  0.00  0.00    +0.159 HD
ENDROOT
BRANCH   2   5
ATOM      5  N   UNL     1      34.272 -19.466 -21.630  0.00  0.00    -0.212 NA
BRANCH   5   6
ATOM      6  C   UNL     1      34.409 -20.359 -20.553  0.00  0.00    +0.090 C 
ATOM      7  C   UNL     1      33.414 -21.839 -18.932  0.00  0.00    +0.143 C 
ATOM      8  C   UNL     1      35.810 -21.525 -18.976  0.00  0.00    +0.143 C 
ATOM      9  C   UNL     1      35.674 -20.640 -20.046  0.00  0.00    +0.056 C 
ATOM     10  C   UNL     1      33.278 -20.954 -20.001  0.00  0.00    +0.056 C 
ATOM     11  C   UNL     1      34.680 -22.126 -18.419  0.00  0.00    +0.074 C 
BRANCH   7  12
ATOM     12  O   UNL     1      32.311 -22.424 -18.388  0.00  0.00    -0.471 OA
ATOM     13  C   UNL     1      32.478 -23.084 -17.135  0.00  0.00    +0.252 C 
ENDBRANCH   7  12
BRANCH   8  14
ATOM     14  O   UNL     1      37.044 -21.805 -18.476  0.00  0.00    -0.471 OA
ATOM     15  C   UNL     1      37.194 -21.764 -17.058  0.00  0.00    +0.252 C 
ENDBRANCH   8  14
ENDBRANCH   5   6
ENDBRANCH   2   5
BRANCH   2  16
ATOM     16  N   UNL     1      35.813 -18.310 -22.810  0.00  0.00    -0.180 NA
BRANCH  16  19
ATOM     17  N   UNL     1      35.224 -16.856 -24.536  0.00  0.00    -0.370 N 
ATOM     18  N   UNL     1      34.479 -19.011 -24.684  0.00  0.00    -0.370 N 
ATOM     19  C   UNL     1      35.200 -18.098 -23.946  0.00  0.00    +0.196 C 
ATOM     20  H   UNL     1      35.708 -16.116 -24.105  0.00  0.00    +0.159 HD
ATOM     21  H   UNL     1      34.757 -16.709 -25.390  0.00  0.00    +0.159 HD
ATOM     22  H   UNL     1      34.388 -19.938 -24.367  0.00  0.00    +0.159 HD
ATOM     23  H   UNL     1      34.057 -18.736 -25.530  0.00  0.00    +0.159 HD
ENDBRANCH  16  19
ENDBRANCH   2  16
TORSDOF 6
ENDMDL
MODEL 2
REMARK VINA RESULT:      -7.1      6.898      8.958
REMARK  Name = 2730282
REMARK  6 active torsions:
REMARK  status: ('A' for Active; 'I' for Inactive)
REMARK    1  A    between atoms: N_1  and  C_3
REMARK    2  A    between atoms: N_1  and  C_14
REMARK    3  A    between atoms: C_3  and  N_6
REMARK    4  A    between atoms: N_6  and  C_9
REMARK    5  A    between atoms: C_15  and  O_20
REMARK    6  A    between atoms: C_16  and  O_22
REMARK                            x       y       z     vdW  Elec       q    Type
REMARK                         _______ _______ _______ _____ _____    ______ ____
ROOT
ATOM      1  N   UNL     1      36.769 -26.948 -13.773  0.00  0.00    -0.368 N 
ATOM      2  C   UNL     1      37.447 -25.805 -13.403  0.00  0.00    +0.225 C 
ATOM      3  H   UNL     1      35.796 -26.915 -13.922  0.00  0.00    +0.159 HD
ATOM      4  H   UNL     1      37.256 -27.794 -13.889  0.00  0.00    +0.159 HD
ENDROOT
BRANCH   2   5
ATOM      5  N   UNL     1      36.940 -24.622 -13.194  0.00  0.00    -0.212 NA
BRANCH   5   6
ATOM      6  C   UNL     1      35.765 -24.257 -13.872  0.00  0.00    +0.090 C 
ATOM      7  C   UNL     1      33.377 -23.935 -13.881  0.00  0.00    +0.143 C 
ATOM      8  C   UNL     1      34.666 -23.499 -15.878  0.00  0.00    +0.143 C 
ATOM      9  C   UNL     1      35.832 -23.861 -15.204  0.00  0.00    +0.056 C 
ATOM     10  C   UNL     1      34.543 -24.296 -13.207  0.00  0.00    +0.056 C 
ATOM     11  C   UNL     1      33.438 -23.535 -15.217  0.00  0.00    +0.074 C 
BRANCH   7  12
ATOM     12  O   UNL     1      32.179 -23.971 -13.235  0.00  0.00    -0.471 OA
ATOM     13  C   UNL     1      31.231 -24.939 -13.680  0.00  0.00    +0.252 C 
ENDBRANCH   7  12
BRANCH   8  14
ATOM     14  O   UNL     1      34.725 -23.110 -17.181  0.00  0.00    -0.471 OA
ATOM     15  C   UNL     1      33.487 -23.008 -17.884  0.00  0.00    +0.252 C 
ENDBRANCH   8  14
ENDBRANCH   5   6
ENDBRANCH   2   5
BRANCH   2  16
ATOM     16  N   UNL     1      38.811 -25.889 -13.204  0.00  0.00    -0.180 NA
BRANCH  16  19
ATOM     17  N   UNL     1      40.723 -26.529 -14.377  0.00  0.00    -0.370 N 
ATOM     18  N   UNL     1      39.406 -24.921 -15.323  0.00  0.00    -0.370 N 
ATOM     19  C   UNL     1      39.585 -25.768 -14.252  0.00  0.00    +0.196 C 
ATOM     20  H   UNL     1      40.962 -27.175 -13.674  0.00  0.00    +0.159 HD
ATOM     21  H   UNL     1      41.298 -26.427 -15.169  0.00  0.00    +0.159 HD
ATOM     22  H   UNL     1      38.624 -24.323 -15.352  0.00  0.00    +0.159 HD
ATOM     23  H   UNL     1      40.058 -24.915 -16.060  0.00  0.00    +0.159 HD
ENDBRANCH  16  19
ENDBRANCH   2  16
TORSDOF 6
ENDMDL
MODEL 3
REMARK VINA RESULT:      -7.1      6.902      9.187
REMARK  Name = 2730282
REMARK  6 active torsions:
REMARK  status: ('A' for Active; 'I' for Inactive)
REMARK    1  A    between atoms: N_1  and  C_3
REMARK    2  A    between atoms: N_1  and  C_14
REMARK    3  A    between atoms: C_3  and  N_6
REMARK    4  A    between atoms: N_6  and  C_9
REMARK    5  A    between atoms: C_15  and  O_20
REMARK    6  A    between atoms: C_16  and  O_22
REMARK                            x       y       z     vdW  Elec       q    Type
REMARK                         _______ _______ _______ _____ _____    ______ ____
ROOT
ATOM      1  N   UNL     1      36.812 -26.959 -13.744  0.00  0.00    -0.368 N 
ATOM      2  C   UNL     1      37.474 -25.808 -13.371  0.00  0.00    +0.225 C 
ATOM      3  H   UNL     1      35.837 -26.941 -13.885  0.00  0.00    +0.159 HD
ATOM      4  H   UNL     1      37.312 -27.797 -13.870  0.00  0.00    +0.159 HD
ENDROOT
BRANCH   2   5
ATOM      5  N   UNL     1      36.950 -24.635 -13.148  0.00  0.00    -0.212 NA
BRANCH   5   6
ATOM      6  C   UNL     1      35.783 -24.271 -13.841  0.00  0.00    +0.090 C 
ATOM      7  C   UNL     1      34.706 -23.513 -15.860  0.00  0.00    +0.143 C 
ATOM      8  C   UNL     1      33.395 -23.944 -13.876  0.00  0.00    +0.143 C 
ATOM      9  C   UNL     1      34.554 -24.306 -13.189  0.00  0.00    +0.056 C 
ATOM     10  C   UNL     1      35.865 -23.875 -15.173  0.00  0.00    +0.056 C 
ATOM     11  C   UNL     1      33.471 -23.548 -15.211  0.00  0.00    +0.074 C 
BRANCH   7  12
ATOM     12  O   UNL     1      34.780 -23.126 -17.163  0.00  0.00    -0.471 OA
ATOM     13  C   UNL     1      33.550 -22.995 -17.872  0.00  0.00    +0.252 C 
ENDBRANCH   7  12
BRANCH   8  14
ATOM     14  O   UNL     1      32.191 -23.978 -13.244  0.00  0.00    -0.471 OA
ATOM     15  C   UNL     1      31.258 -24.967 -13.678  0.00  0.00    +0.252 C 
ENDBRANCH   8  14
ENDBRANCH   5   6
ENDBRANCH   2   5
BRANCH   2  16
ATOM     16  N   UNL     1      38.841 -25.871 -13.183  0.00  0.00    -0.180 NA
BRANCH  16  19
ATOM     17  N   UNL     1      40.725 -26.556 -14.375  0.00  0.00    -0.370 N 
ATOM     18  N   UNL     1      39.426 -24.931 -15.317  0.00  0.00    -0.370 N 
ATOM     19  C   UNL     1      39.603 -25.773 -14.242  0.00  0.00    +0.196 C 
ATOM     20  H   UNL     1      40.961 -27.200 -13.670  0.00  0.00    +0.159 HD
ATOM     21  H   UNL     1      41.292 -26.470 -15.175  0.00  0.00    +0.159 HD
ATOM     22  H   UNL     1      38.655 -24.319 -15.341  0.00  0.00    +0.159 HD
ATOM     23  H   UNL     1      40.069 -24.942 -16.063  0.00  0.00    +0.159 HD
ENDBRANCH  16  19
ENDBRANCH   2  16
TORSDOF 6
ENDMDL
MODEL 4
REMARK VINA RESULT:      -7.1      5.936      7.910
REMARK  Name = 2730282
REMARK  6 active torsions:
REMARK  status: ('A' for Active; 'I' for Inactive)
REMARK    1  A    between atoms: N_1  and  C_3
REMARK    2  A    between atoms: N_1  and  C_14
REMARK    3  A    between atoms: C_3  and  N_6
REMARK    4  A    between atoms: N_6  and  C_9
REMARK    5  A    between atoms: C_15  and  O_20
REMARK    6  A    between atoms: C_16  and  O_22
REMARK                            x       y       z     vdW  Elec       q    Type
REMARK                         _______ _______ _______ _____ _____    ______ ____
ROOT
ATOM      1  N   UNL     1      29.969 -25.365 -14.110  0.00  0.00    -0.368 N 
ATOM      2  C   UNL     1      29.680 -24.288 -14.923  0.00  0.00    +0.225 C 
ATOM      3  H   UNL     1      30.741 -25.327 -13.501  0.00  0.00    +0.159 HD
ATOM      4  H   UNL     1      29.403 -26.170 -14.139  0.00  0.00    +0.159 HD
ENDROOT
BRANCH   2   5
ATOM      5  N   UNL     1      30.342 -23.169 -15.012  0.00  0.00    -0.212 NA
BRANCH   5   6
ATOM      6  C   UNL     1      31.657 -23.196 -15.506  0.00  0.00    +0.090 C 
ATOM      7  C   UNL     1      33.188 -23.169 -17.368  0.00  0.00    +0.143 C 
ATOM      8  C   UNL     1      34.032 -23.308 -15.107  0.00  0.00    +0.143 C 
ATOM      9  C   UNL     1      32.726 -23.280 -14.618  0.00  0.00    +0.056 C 
ATOM     10  C   UNL     1      31.882 -23.141 -16.878  0.00  0.00    +0.056 C 
ATOM     11  C   UNL     1      34.263 -23.252 -16.482  0.00  0.00    +0.074 C 
BRANCH   7  12
ATOM     12  O   UNL     1      33.413 -23.115 -18.709  0.00  0.00    -0.471 OA
ATOM     13  C   UNL     1      33.581 -21.822 -19.287  0.00  0.00    +0.252 C 
ENDBRANCH   7  12
BRANCH   8  14
ATOM     14  O   UNL     1      35.081 -23.389 -14.244  0.00  0.00    -0.471 OA
ATOM     15  C   UNL     1      34.904 -24.197 -13.082  0.00  0.00    +0.252 C 
ENDBRANCH   8  14
ENDBRANCH   5   6
ENDBRANCH   2   5
BRANCH   2  16
ATOM     16  N   UNL     1      28.588 -24.379 -15.765  0.00  0.00    -0.180 NA
BRANCH  16  19
ATOM     17  N   UNL     1      28.305 -22.892 -17.540  0.00  0.00    -0.370 N 
ATOM     18  N   UNL     1      27.330 -22.341 -15.549  0.00  0.00    -0.370 N 
ATOM     19  C   UNL     1      28.091 -23.263 -16.233  0.00  0.00    +0.196 C 
ATOM     20  H   UNL     1      28.836 -23.470 -18.134  0.00  0.00    +0.159 HD
ATOM     21  H   UNL     1      27.927 -22.049 -17.880  0.00  0.00    +0.159 HD
ATOM     22  H   UNL     1      27.106 -22.493 -14.603  0.00  0.00    +0.159 HD
ATOM     23  H   UNL     1      27.009 -21.531 -16.007  0.00  0.00    +0.159 HD
ENDBRANCH  16  19
ENDBRANCH   2  16
TORSDOF 6
ENDMDL
MODEL 5
REMARK VINA RESULT:      -7.1      5.569      7.873
REMARK  Name = 2730282
REMARK  6 active torsions:
REMARK  status: ('A' for Active; 'I' for Inactive)
REMARK    1  A    between atoms: N_1  and  C_3
REMARK    2  A    between atoms: N_1  and  C_14
REMARK    3  A    between atoms: C_3  and  N_6
REMARK    4  A    between atoms: N_6  and  C_9
REMARK    5  A    between atoms: C_15  and  O_20
REMARK    6  A    between atoms: C_16  and  O_22
REMARK                            x       y       z     vdW  Elec       q    Type
REMARK                         _______ _______ _______ _____ _____    ______ ____
ROOT
ATOM      1  N   UNL     1      37.712 -23.297 -15.944  0.00  0.00    -0.368 N 
ATOM      2  C   UNL     1      36.611 -23.891 -15.361  0.00  0.00    +0.225 C 
ATOM      3  H   UNL     1      37.804 -22.317 -15.933  0.00  0.00    +0.159 HD
ATOM      4  H   UNL     1      38.404 -23.853 -16.368  0.00  0.00    +0.159 HD
ENDROOT
BRANCH   2   5
ATOM      5  N   UNL     1      35.608 -23.293 -14.781  0.00  0.00    -0.212 NA
BRANCH   5   6
ATOM      6  C   UNL     1      34.363 -23.269 -15.433  0.00  0.00    +0.090 C 
ATOM      7  C   UNL     1      31.962 -23.456 -15.351  0.00  0.00    +0.143 C 
ATOM      8  C   UNL     1      33.071 -23.015 -17.452  0.00  0.00    +0.143 C 
ATOM      9  C   UNL     1      34.307 -23.038 -16.804  0.00  0.00    +0.056 C 
ATOM     10  C   UNL     1      33.197 -23.479 -14.703  0.00  0.00    +0.056 C 
ATOM     11  C   UNL     1      31.899 -23.224 -16.725  0.00  0.00    +0.074 C 
BRANCH   7  12
ATOM     12  O   UNL     1      30.818 -23.661 -14.641  0.00  0.00    -0.471 OA
ATOM     13  C   UNL     1      30.690 -24.908 -13.962  0.00  0.00    +0.252 C 
ENDBRANCH   7  12
BRANCH   8  14
ATOM     14  O   UNL     1      33.009 -22.788 -18.792  0.00  0.00    -0.471 OA
ATOM     15  C   UNL     1      33.750 -21.678 -19.298  0.00  0.00    +0.252 C 
ENDBRANCH   8  14
ENDBRANCH   5   6
ENDBRANCH   2   5
BRANCH   2  16
ATOM     16  N   UNL     1      36.516 -25.269 -15.395  0.00  0.00    -0.180 NA
BRANCH  16  19
ATOM     17  N   UNL     1      37.807 -26.926 -14.381  0.00  0.00    -0.370 N 
ATOM     18  N   UNL     1      36.385 -25.743 -13.041  0.00  0.00    -0.370 N 
ATOM     19  C   UNL     1      36.866 -25.926 -14.319  0.00  0.00    +0.196 C 
ATOM     20  H   UNL     1      38.227 -27.153 -15.242  0.00  0.00    +0.159 HD
ATOM     21  H   UNL     1      38.060 -27.415 -13.565  0.00  0.00    +0.159 HD
ATOM     22  H   UNL     1      35.704 -25.054 -12.865  0.00  0.00    +0.159 HD
ATOM     23  H   UNL     1      36.723 -26.302 -12.304  0.00  0.00    +0.159 HD
ENDBRANCH  16  19
ENDBRANCH   2  16
TORSDOF 6
ENDMDL
MODEL 6
REMARK VINA RESULT:      -7.1      5.961      8.009
REMARK  Name = 2730282
REMARK  6 active torsions:
REMARK  status: ('A' for Active; 'I' for Inactive)
REMARK    1  A    between atoms: N_1  and  C_3
REMARK    2  A    between atoms: N_1  and  C_14
REMARK    3  A    between atoms: C_3  and  N_6
REMARK    4  A    between atoms: N_6  and  C_9
REMARK    5  A    between atoms: C_15  and  O_20
REMARK    6  A    between atoms: C_16  and  O_22
REMARK                            x       y       z     vdW  Elec       q    Type
REMARK                         _______ _______ _______ _____ _____    ______ ____
ROOT
ATOM      1  N   UNL     1      29.995 -25.413 -14.138  0.00  0.00    -0.368 N 
ATOM      2  C   UNL     1      29.708 -24.332 -14.946  0.00  0.00    +0.225 C 
ATOM      3  H   UNL     1      30.756 -25.372 -13.515  0.00  0.00    +0.159 HD
ATOM      4  H   UNL     1      29.439 -26.224 -14.185  0.00  0.00    +0.159 HD
ENDROOT
BRANCH   2   5
ATOM      5  N   UNL     1      30.359 -23.204 -15.013  0.00  0.00    -0.212 NA
BRANCH   5   6
ATOM      6  C   UNL     1      31.667 -23.205 -15.525  0.00  0.00    +0.090 C 
ATOM      7  C   UNL     1      34.049 -23.271 -15.161  0.00  0.00    +0.143 C 
ATOM      8  C   UNL     1      33.170 -23.138 -17.408  0.00  0.00    +0.143 C 
ATOM      9  C   UNL     1      31.871 -23.138 -16.900  0.00  0.00    +0.056 C 
ATOM     10  C   UNL     1      32.750 -23.271 -14.653  0.00  0.00    +0.056 C 
ATOM     11  C   UNL     1      34.259 -23.205 -16.539  0.00  0.00    +0.074 C 
BRANCH   7  12
ATOM     12  O   UNL     1      35.112 -23.336 -14.313  0.00  0.00    -0.471 OA
ATOM     13  C   UNL     1      35.476 -24.627 -13.826  0.00  0.00    +0.252 C 
ENDBRANCH   7  12
BRANCH   8  14
ATOM     14  O   UNL     1      33.375 -23.073 -18.751  0.00  0.00    -0.471 OA
ATOM     15  C   UNL     1      33.573 -21.777 -19.316  0.00  0.00    +0.252 C 
ENDBRANCH   8  14
ENDBRANCH   5   6
ENDBRANCH   2   5
BRANCH   2  16
ATOM     16  N   UNL     1      28.633 -24.426 -15.808  0.00  0.00    -0.180 NA
BRANCH  16  19
ATOM     17  N   UNL     1      28.227 -22.957 -17.573  0.00  0.00    -0.370 N 
ATOM     18  N   UNL     1      27.413 -22.374 -15.520  0.00  0.00    -0.370 N 
ATOM     19  C   UNL     1      28.111 -23.311 -16.250  0.00  0.00    +0.196 C 
ATOM     20  H   UNL     1      28.706 -23.546 -18.200  0.00  0.00    +0.159 HD
ATOM     21  H   UNL     1      27.832 -22.114 -17.893  0.00  0.00    +0.159 HD
ATOM     22  H   UNL     1      27.261 -22.513 -14.558  0.00  0.00    +0.159 HD
ATOM     23  H   UNL     1      27.065 -21.566 -15.962  0.00  0.00    +0.159 HD
ENDBRANCH  16  19
ENDBRANCH   2  16
TORSDOF 6
ENDMDL
MODEL 7
REMARK VINA RESULT:      -7.1      5.633      8.216
REMARK  Name = 2730282
REMARK  6 active torsions:
REMARK  status: ('A' for Active; 'I' for Inactive)
REMARK    1  A    between atoms: N_1  and  C_3
REMARK    2  A    between atoms: N_1  and  C_14
REMARK    3  A    between atoms: C_3  and  N_6
REMARK    4  A    between atoms: N_6  and  C_9
REMARK    5  A    between atoms: C_15  and  O_20
REMARK    6  A    between atoms: C_16  and  O_22
REMARK                            x       y       z     vdW  Elec       q    Type
REMARK                         _______ _______ _______ _____ _____    ______ ____
ROOT
ATOM      1  N   UNL     1      37.769 -23.258 -15.951  0.00  0.00    -0.368 N 
ATOM      2  C   UNL     1      36.711 -23.863 -15.304  0.00  0.00    +0.225 C 
ATOM      3  H   UNL     1      37.836 -22.276 -15.970  0.00  0.00    +0.159 HD
ATOM      4  H   UNL     1      38.455 -23.807 -16.393  0.00  0.00    +0.159 HD
ENDROOT
BRANCH   2   5
ATOM      5  N   UNL     1      35.721 -23.275 -14.694  0.00  0.00    -0.212 NA
BRANCH   5   6
ATOM      6  C   UNL     1      34.437 -23.343 -15.262  0.00  0.00    +0.090 C 
ATOM      7  C   UNL     1      32.980 -23.065 -17.162  0.00  0.00    +0.143 C 
ATOM      8  C   UNL     1      32.085 -23.820 -15.047  0.00  0.00    +0.143 C 
ATOM      9  C   UNL     1      33.359 -23.753 -14.484  0.00  0.00    +0.056 C 
ATOM     10  C   UNL     1      34.254 -22.998 -16.598  0.00  0.00    +0.056 C 
ATOM     11  C   UNL     1      31.895 -23.477 -16.386  0.00  0.00    +0.074 C 
BRANCH   7  12
ATOM     12  O   UNL     1      32.795 -22.730 -18.468  0.00  0.00    -0.471 OA
ATOM     13  C   UNL     1      33.911 -22.171 -19.159  0.00  0.00    +0.252 C 
ENDBRANCH   7  12
BRANCH   8  14
ATOM     14  O   UNL     1      31.026 -24.220 -14.292  0.00  0.00    -0.471 OA
ATOM     15  C   UNL     1      30.158 -25.201 -14.859  0.00  0.00    +0.252 C 
ENDBRANCH   8  14
ENDBRANCH   5   6
ENDBRANCH   2   5
BRANCH   2  16
ATOM     16  N   UNL     1      36.651 -25.243 -15.298  0.00  0.00    -0.180 NA
BRANCH  16  19
ATOM     17  N   UNL     1      36.457 -25.831 -13.049  0.00  0.00    -0.370 N 
ATOM     18  N   UNL     1      38.287 -26.603 -14.177  0.00  0.00    -0.370 N 
ATOM     19  C   UNL     1      37.126 -25.866 -14.250  0.00  0.00    +0.196 C 
ATOM     20  H   UNL     1      35.611 -25.334 -12.972  0.00  0.00    +0.159 HD
ATOM     21  H   UNL     1      36.826 -26.302 -12.267  0.00  0.00    +0.159 HD
ATOM     22  H   UNL     1      38.856 -26.704 -14.974  0.00  0.00    +0.159 HD
ATOM     23  H   UNL     1      38.547 -27.029 -13.329  0.00  0.00    +0.159 HD
ENDBRANCH  16  19
ENDBRANCH   2  16
TORSDOF 6
ENDMDL
MODEL 8
REMARK VINA RESULT:      -7.0      3.444      6.288
REMARK  Name = 2730282
REMARK  6 active torsions:
REMARK  status: ('A' for Active; 'I' for Inactive)
REMARK    1  A    between atoms: N_1  and  C_3
REMARK    2  A    between atoms: N_1  and  C_14
REMARK    3  A    between atoms: C_3  and  N_6
REMARK    4  A    between atoms: N_6  and  C_9
REMARK    5  A    between atoms: C_15  and  O_20
REMARK    6  A    between atoms: C_16  and  O_22
REMARK                            x       y       z     vdW  Elec       q    Type
REMARK                         _______ _______ _______ _____ _____    ______ ____
ROOT
ATOM      1  N   UNL     1      36.487 -19.902 -19.842  0.00  0.00    -0.368 N 
ATOM      2  C   UNL     1      35.442 -20.519 -20.498  0.00  0.00    +0.225 C 
ATOM      3  H   UNL     1      36.939 -19.131 -20.255  0.00  0.00    +0.159 HD
ATOM      4  H   UNL     1      36.780 -20.232 -18.962  0.00  0.00    +0.159 HD
ENDROOT
BRANCH   2   5
ATOM      5  N   UNL     1      34.955 -20.212 -21.668  0.00  0.00    -0.212 NA
BRANCH   5   6
ATOM      6  C   UNL     1      34.935 -18.863 -22.062  0.00  0.00    +0.090 C 
ATOM      7  C   UNL     1      34.884 -16.523 -21.488  0.00  0.00    +0.143 C 
ATOM      8  C   UNL     1      34.925 -17.201 -23.807  0.00  0.00    +0.143 C 
ATOM      9  C   UNL     1      34.945 -18.539 -23.415  0.00  0.00    +0.056 C 
ATOM     10  C   UNL     1      34.904 -17.861 -21.096  0.00  0.00    +0.056 C 
ATOM     11  C   UNL     1      34.895 -16.192 -22.844  0.00  0.00    +0.074 C 
BRANCH   7  12
ATOM     12  O   UNL     1      34.854 -15.539 -20.547  0.00  0.00    -0.471 OA
ATOM     13  C   UNL     1      33.825 -14.558 -20.666  0.00  0.00    +0.252 C 
ENDBRANCH   7  12
BRANCH   8  14
ATOM     14  O   UNL     1      34.935 -16.878 -25.129  0.00  0.00    -0.471 OA
ATOM     15  C   UNL     1      33.904 -16.007 -25.592  0.00  0.00    +0.252 C 
ENDBRANCH   8  14
ENDBRANCH   5   6
ENDBRANCH   2   5
BRANCH   2  16
ATOM     16  N   UNL     1      34.832 -21.597 -19.887  0.00  0.00    -0.180 NA
BRANCH  16  19
ATOM     17  N   UNL     1      32.992 -22.379 -18.684  0.00  0.00    -0.370 N 
ATOM     18  N   UNL     1      32.722 -20.443 -19.866  0.00  0.00    -0.370 N 
ATOM     19  C   UNL     1      33.585 -21.457 -19.514  0.00  0.00    +0.196 C 
ATOM     20  H   UNL     1      33.507 -23.154 -18.363  0.00  0.00    +0.159 HD
ATOM     21  H   UNL     1      32.053 -22.264 -18.413  0.00  0.00    +0.159 HD
ATOM     22  H   UNL     1      33.029 -19.719 -20.458  0.00  0.00    +0.159 HD
ATOM     23  H   UNL     1      31.799 -20.441 -19.523  0.00  0.00    +0.159 HD
ENDBRANCH  16  19
ENDBRANCH   2  16
TORSDOF 6
ENDMDL
MODEL 9
REMARK VINA RESULT:      -7.0      3.433      5.634
REMARK  Name = 2730282
REMARK  6 active torsions:
REMARK  status: ('A' for Active; 'I' for Inactive)
REMARK    1  A    between atoms: N_1  and  C_3
REMARK    2  A    between atoms: N_1  and  C_14
REMARK    3  A    between atoms: C_3  and  N_6
REMARK    4  A    between atoms: N_6  and  C_9
REMARK    5  A    between atoms: C_15  and  O_20
REMARK    6  A    between atoms: C_16  and  O_22
REMARK                            x       y       z     vdW  Elec       q    Type
REMARK                         _______ _______ _______ _____ _____    ______ ____
ROOT
ATOM      1  N   UNL     1      33.123 -21.261 -19.439  0.00  0.00    -0.368 N 
ATOM      2  C   UNL     1      33.935 -22.344 -19.174  0.00  0.00    +0.225 C 
ATOM      3  H   UNL     1      32.189 -21.259 -19.126  0.00  0.00    +0.159 HD
ATOM      4  H   UNL     1      33.476 -20.491 -19.940  0.00  0.00    +0.159 HD
ENDROOT
BRANCH   2   5
ATOM      5  N   UNL     1      33.608 -23.438 -18.544  0.00  0.00    -0.212 NA
BRANCH   5   6
ATOM      6  C   UNL     1      33.325 -23.370 -17.169  0.00  0.00    +0.090 C 
ATOM      7  C   UNL     1      34.077 -23.425 -14.880  0.00  0.00    +0.143 C 
ATOM      8  C   UNL     1      31.733 -23.118 -15.378  0.00  0.00    +0.143 C 
ATOM      9  C   UNL     1      32.014 -23.184 -16.742  0.00  0.00    +0.056 C 
ATOM     10  C   UNL     1      34.358 -23.492 -16.245  0.00  0.00    +0.056 C 
ATOM     11  C   UNL     1      32.764 -23.238 -14.446  0.00  0.00    +0.074 C 
BRANCH   7  12
ATOM     12  O   UNL     1      35.084 -23.543 -13.972  0.00  0.00    -0.471 OA
ATOM     13  C   UNL     1      34.784 -24.223 -12.754  0.00  0.00    +0.252 C 
ENDBRANCH   7  12
BRANCH   8  14
ATOM     14  O   UNL     1      30.453 -22.936 -14.954  0.00  0.00    -0.471 OA
ATOM     15  C   UNL     1      29.416 -23.139 -15.914  0.00  0.00    +0.252 C 
ENDBRANCH   8  14
ENDBRANCH   5   6
ENDBRANCH   2   5
BRANCH   2  16
ATOM     16  N   UNL     1      35.238 -22.311 -19.629  0.00  0.00    -0.180 NA
BRANCH  16  19
ATOM     17  N   UNL     1      36.258 -20.239 -19.956  0.00  0.00    -0.370 N 
ATOM     18  N   UNL     1      36.657 -21.299 -17.972  0.00  0.00    -0.370 N 
ATOM     19  C   UNL     1      36.010 -21.352 -19.187  0.00  0.00    +0.196 C 
ATOM     20  H   UNL     1      35.852 -20.158 -20.848  0.00  0.00    +0.159 HD
ATOM     21  H   UNL     1      36.842 -19.525 -19.612  0.00  0.00    +0.159 HD
ATOM     22  H   UNL     1      36.558 -22.038 -17.329  0.00  0.00    +0.159 HD
ATOM     23  H   UNL     1      37.217 -20.521 -17.745  0.00  0.00    +0.159 HD
ENDBRANCH  16  19
ENDBRANCH   2  16
TORSDOF 6
ENDMDL
