MODEL 1
REMARK VINA RESULT:     -10.4      0.000      0.000
REMARK  Name = 224246
REMARK  6 active torsions:
REMARK  status: ('A' for Active; 'I' for Inactive)
REMARK    1  A    between atoms: C_7  and  O_22
REMARK    2  A    between atoms: C_7  and  C_27
REMARK    3  A    between atoms: C_10  and  O_24
REMARK    4  A    between atoms: C_27  and  C_28
REMARK    5  A    between atoms: C_28  and  O_29
REMARK    6  A    between atoms: O_29  and  C_31
REMARK                            x       y       z     vdW  Elec       q    Type
REMARK                         _______ _______ _______ _____ _____    ______ ____
ROOT
ATOM      1  F   UNL     1      35.114 -25.499 -15.093  0.00  0.00    -0.237 F 
ATOM      2  O   UNL     1      39.855 -26.537 -14.590  0.00  0.00    -0.287 OA
ATOM      3  C   UNL     1      32.145 -23.643 -14.813  0.00  0.00    +0.032 C 
ATOM      4  C   UNL     1      33.236 -23.535 -15.901  0.00  0.00    +0.005 C 
ATOM      5  C   UNL     1      34.629 -23.207 -15.342  0.00  0.00    +0.033 C 
ATOM      6  C   UNL     1      35.062 -24.335 -14.342  0.00  0.00    +0.164 C 
ATOM      7  C   UNL     1      30.906 -23.893 -15.716  0.00  0.00    +0.143 C 
ATOM      8  C   UNL     1      32.553 -24.791 -13.868  0.00  0.00    +0.035 C 
ATOM      9  C   UNL     1      32.619 -22.591 -16.930  0.00  0.00    +0.003 C 
ATOM     10  C   UNL     1      33.967 -24.614 -13.268  0.00  0.00    +0.141 C 
ATOM     11  C   UNL     1      36.528 -24.114 -13.797  0.00  0.00    +0.064 C 
ATOM     12  C   UNL     1      31.119 -22.949 -16.922  0.00  0.00    +0.034 C 
ATOM     13  C   UNL     1      35.647 -23.060 -16.488  0.00  0.00    +0.007 C 
ATOM     14  C   UNL     1      31.944 -22.323 -14.015  0.00  0.00    +0.003 C 
ATOM     15  C   UNL     1      37.067 -22.846 -15.977  0.00  0.00    +0.023 C 
ATOM     16  C   UNL     1      37.447 -23.939 -15.011  0.00  0.00    -0.035 C 
ATOM     17  C   UNL     1      36.690 -22.863 -12.903  0.00  0.00    +0.011 C 
ATOM     18  C   UNL     1      36.957 -25.303 -12.949  0.00  0.00    -0.017 C 
ATOM     19  C   UNL     1      38.510 -24.720 -15.262  0.00  0.00    +0.034 C 
ATOM     20  C   UNL     1      38.013 -26.086 -13.194  0.00  0.00    +0.038 C 
ATOM     21  C   UNL     1      38.873 -25.836 -14.364  0.00  0.00    +0.195 C 
ENDROOT
BRANCH   7  22
ATOM     22  O   UNL     1      30.866 -25.242 -16.172  0.00  0.00    -0.380 OA
ATOM     23  H   UNL     1      29.979 -25.443 -16.507  0.00  0.00    +0.211 HD
ENDBRANCH   7  22
BRANCH  10  24
ATOM     24  O   UNL     1      33.918 -23.613 -12.265  0.00  0.00    -0.382 OA
ATOM     25  H   UNL     1      34.293 -23.961 -11.441  0.00  0.00    +0.210 HD
ENDBRANCH  10  24
BRANCH   7  27
ATOM     26  O   UNL     1      29.133 -24.527 -14.256  0.00  0.00    -0.290 OA
ATOM     27  C   UNL     1      29.585 -23.690 -15.036  0.00  0.00    +0.218 C 
BRANCH  27  28
ATOM     28  C   UNL     1      28.852 -22.407 -15.364  0.00  0.00    +0.274 C 
BRANCH  28  29
ATOM     29  O   UNL     1      27.528 -22.680 -15.775  0.00  0.00    -0.440 OA
BRANCH  29  31
ATOM     30  O   UNL     1      27.749 -23.344 -17.977  0.00  0.00    -0.250 OA
ATOM     31  C   UNL     1      27.284 -22.601 -17.123  0.00  0.00    +0.318 C 
ATOM     32  C   UNL     1      26.355 -21.462 -17.416  0.00  0.00    +0.121 C 
ENDBRANCH  29  31
ENDBRANCH  28  29
ENDBRANCH  27  28
ENDBRANCH   7  27
TORSDOF 6
ENDMDL
MODEL 2
REMARK VINA RESULT:      -8.3     10.006     12.573
REMARK  Name = 224246
REMARK  6 active torsions:
REMARK  status: ('A' for Active; 'I' for Inactive)
REMARK    1  A    between atoms: C_7  and  O_22
REMARK    2  A    between atoms: C_7  and  C_27
REMARK    3  A    between atoms: C_10  and  O_24
REMARK    4  A    between atoms: C_27  and  C_28
REMARK    5  A    between atoms: C_28  and  O_29
REMARK    6  A    between atoms: O_29  and  C_31
REMARK                            x       y       z     vdW  Elec       q    Type
REMARK                         _______ _______ _______ _____ _____    ______ ____
ROOT
ATOM      1  F   UNL     1      35.480 -14.592 -23.858  0.00  0.00    -0.237 F 
ATOM      2  O   UNL     1      34.613 -10.334 -26.076  0.00  0.00    -0.287 OA
ATOM      3  C   UNL     1      34.758 -17.568 -22.137  0.00  0.00    +0.032 C 
ATOM      4  C   UNL     1      34.706 -17.312 -23.660  0.00  0.00    +0.005 C 
ATOM      5  C   UNL     1      33.749 -16.177 -24.057  0.00  0.00    +0.033 C 
ATOM      6  C   UNL     1      34.210 -14.848 -23.365  0.00  0.00    +0.164 C 
ATOM      7  C   UNL     1      35.724 -18.785 -22.115  0.00  0.00    +0.143 C 
ATOM      8  C   UNL     1      35.266 -16.273 -21.472  0.00  0.00    +0.035 C 
ATOM      9  C   UNL     1      34.476 -18.703 -24.245  0.00  0.00    +0.003 C 
ATOM     10  C   UNL     1      34.418 -15.030 -21.831  0.00  0.00    +0.141 C 
ATOM     11  C   UNL     1      33.328 -13.614 -23.804  0.00  0.00    +0.064 C 
ATOM     12  C   UNL     1      35.284 -19.641 -23.325  0.00  0.00    +0.034 C 
ATOM     13  C   UNL     1      33.710 -16.022 -25.589  0.00  0.00    +0.007 C 
ATOM     14  C   UNL     1      33.385 -17.989 -21.539  0.00  0.00    +0.003 C 
ATOM     15  C   UNL     1      32.860 -14.834 -26.027  0.00  0.00    +0.023 C 
ATOM     16  C   UNL     1      33.322 -13.576 -25.337  0.00  0.00    -0.035 C 
ATOM     17  C   UNL     1      31.857 -13.686 -23.331  0.00  0.00    +0.011 C 
ATOM     18  C   UNL     1      33.899 -12.327 -23.225  0.00  0.00    -0.017 C 
ATOM     19  C   UNL     1      33.737 -12.524 -26.059  0.00  0.00    +0.034 C 
ATOM     20  C   UNL     1      34.316 -11.277 -23.939  0.00  0.00    +0.038 C 
ATOM     21  C   UNL     1      34.249 -11.299 -25.411  0.00  0.00    +0.195 C 
ENDROOT
BRANCH   7  22
ATOM     22  O   UNL     1      37.076 -18.372 -22.293  0.00  0.00    -0.380 OA
ATOM     23  H   UNL     1      37.666 -18.994 -21.841  0.00  0.00    +0.211 HD
ENDBRANCH   7  22
BRANCH  10  24
ATOM     24  O   UNL     1      33.194 -15.088 -21.118  0.00  0.00    -0.382 OA
ATOM     25  H   UNL     1      32.721 -15.902 -21.351  0.00  0.00    +0.210 HD
ENDBRANCH  10  24
BRANCH   7  27
ATOM     26  O   UNL     1      36.588 -19.339 -19.964  0.00  0.00    -0.290 OA
ATOM     27  C   UNL     1      35.736 -19.551 -20.825  0.00  0.00    +0.218 C 
BRANCH  27  28
ATOM     28  C   UNL     1      34.647 -20.588 -20.652  0.00  0.00    +0.274 C 
BRANCH  28  29
ATOM     29  O   UNL     1      34.928 -21.427 -19.551  0.00  0.00    -0.440 OA
BRANCH  29  31
ATOM     30  O   UNL     1      32.751 -22.200 -19.535  0.00  0.00    -0.250 OA
ATOM     31  C   UNL     1      33.865 -22.124 -19.034  0.00  0.00    +0.318 C 
ATOM     32  C   UNL     1      34.257 -22.793 -17.752  0.00  0.00    +0.121 C 
ENDBRANCH  29  31
ENDBRANCH  28  29
ENDBRANCH  27  28
ENDBRANCH   7  27
TORSDOF 6
ENDMDL
MODEL 3
REMARK VINA RESULT:      -8.0     13.975     16.592
REMARK  Name = 224246
REMARK  6 active torsions:
REMARK  status: ('A' for Active; 'I' for Inactive)
REMARK    1  A    between atoms: C_7  and  O_22
REMARK    2  A    between atoms: C_7  and  C_27
REMARK    3  A    between atoms: C_10  and  O_24
REMARK    4  A    between atoms: C_27  and  C_28
REMARK    5  A    between atoms: C_28  and  O_29
REMARK    6  A    between atoms: O_29  and  C_31
REMARK                            x       y       z     vdW  Elec       q    Type
REMARK                         _______ _______ _______ _____ _____    ______ ____
ROOT
ATOM      1  F   UNL     1      31.617  -9.409 -24.030  0.00  0.00    -0.237 F 
ATOM      2  O   UNL     1      30.665  -4.626 -23.895  0.00  0.00    -0.287 OA
ATOM      3  C   UNL     1      33.344 -12.400 -23.390  0.00  0.00    +0.032 C 
ATOM      4  C   UNL     1      32.309 -11.687 -22.491  0.00  0.00    +0.005 C 
ATOM      5  C   UNL     1      32.707 -10.251 -22.119  0.00  0.00    +0.033 C 
ATOM      6  C   UNL     1      32.865  -9.404 -23.428  0.00  0.00    +0.164 C 
ATOM      7  C   UNL     1      32.676 -13.799 -23.492  0.00  0.00    +0.143 C 
ATOM      8  C   UNL     1      33.451 -11.589 -24.697  0.00  0.00    +0.035 C 
ATOM      9  C   UNL     1      32.061 -12.693 -21.370  0.00  0.00    +0.003 C 
ATOM     10  C   UNL     1      33.799 -10.100 -24.465  0.00  0.00    +0.141 C 
ATOM     11  C   UNL     1      33.181  -7.888 -23.119  0.00  0.00    +0.064 C 
ATOM     12  C   UNL     1      32.138 -14.067 -22.067  0.00  0.00    +0.034 C 
ATOM     13  C   UNL     1      31.656  -9.630 -21.179  0.00  0.00    +0.007 C 
ATOM     14  C   UNL     1      34.741 -12.543 -22.719  0.00  0.00    +0.003 C 
ATOM     15  C   UNL     1      31.949  -8.166 -20.871  0.00  0.00    +0.023 C 
ATOM     16  C   UNL     1      32.106  -7.383 -22.150  0.00  0.00    -0.035 C 
ATOM     17  C   UNL     1      34.558  -7.649 -22.457  0.00  0.00    +0.011 C 
ATOM     18  C   UNL     1      33.182  -7.078 -24.409  0.00  0.00    -0.017 C 
ATOM     19  C   UNL     1      31.301  -6.340 -22.405  0.00  0.00    +0.034 C 
ATOM     20  C   UNL     1      32.382  -6.039 -24.669  0.00  0.00    +0.038 C 
ATOM     21  C   UNL     1      31.393  -5.589 -23.674  0.00  0.00    +0.195 C 
ENDROOT
BRANCH   7  22
ATOM     22  O   UNL     1      31.590 -13.783 -24.414  0.00  0.00    -0.380 OA
ATOM     23  H   UNL     1      30.764 -13.611 -23.936  0.00  0.00    +0.211 HD
ENDBRANCH   7  22
BRANCH  10  24
ATOM     24  O   UNL     1      35.170  -9.998 -24.120  0.00  0.00    -0.382 OA
ATOM     25  H   UNL     1      35.606  -9.364 -24.710  0.00  0.00    +0.210 HD
ENDBRANCH  10  24
BRANCH   7  27
ATOM     26  O   UNL     1      33.826 -15.006 -25.194  0.00  0.00    -0.290 OA
ATOM     27  C   UNL     1      33.577 -14.887 -23.995  0.00  0.00    +0.218 C 
BRANCH  27  28
ATOM     28  C   UNL     1      34.152 -15.818 -22.949  0.00  0.00    +0.274 C 
BRANCH  28  29
ATOM     29  O   UNL     1      35.316 -16.454 -23.435  0.00  0.00    -0.440 OA
BRANCH  29  31
ATOM     30  O   UNL     1      35.964 -18.374 -22.325  0.00  0.00    -0.250 OA
ATOM     31  C   UNL     1      35.387 -17.811 -23.246  0.00  0.00    +0.318 C 
ATOM     32  C   UNL     1      34.651 -18.526 -24.339  0.00  0.00    +0.121 C 
ENDBRANCH  29  31
ENDBRANCH  28  29
ENDBRANCH  27  28
ENDBRANCH   7  27
TORSDOF 6
ENDMDL
MODEL 4
REMARK VINA RESULT:      -7.6      1.755      8.017
REMARK  Name = 224246
REMARK  6 active torsions:
REMARK  status: ('A' for Active; 'I' for Inactive)
REMARK    1  A    between atoms: C_7  and  O_22
REMARK    2  A    between atoms: C_7  and  C_27
REMARK    3  A    between atoms: C_10  and  O_24
REMARK    4  A    between atoms: C_27  and  C_28
REMARK    5  A    between atoms: C_28  and  O_29
REMARK    6  A    between atoms: O_29  and  C_31
REMARK                            x       y       z     vdW  Elec       q    Type
REMARK                         _______ _______ _______ _____ _____    ______ ____
ROOT
ATOM      1  F   UNL     1      32.271 -22.502 -14.200  0.00  0.00    -0.237 F 
ATOM      2  O   UNL     1      27.731 -21.586 -15.732  0.00  0.00    -0.287 OA
ATOM      3  C   UNL     1      35.315 -24.230 -13.899  0.00  0.00    +0.032 C 
ATOM      4  C   UNL     1      34.893 -23.228 -14.997  0.00  0.00    +0.005 C 
ATOM      5  C   UNL     1      33.622 -23.646 -15.753  0.00  0.00    +0.033 C 
ATOM      6  C   UNL     1      32.435 -23.769 -14.737  0.00  0.00    +0.164 C 
ATOM      7  C   UNL     1      36.627 -23.550 -13.421  0.00  0.00    +0.143 C 
ATOM      8  C   UNL     1      34.162 -24.301 -12.877  0.00  0.00    +0.035 C 
ATOM      9  C   UNL     1      36.179 -23.009 -15.790  0.00  0.00    +0.003 C 
ATOM     10  C   UNL     1      32.801 -24.665 -13.516  0.00  0.00    +0.141 C 
ATOM     11  C   UNL     1      31.070 -24.105 -15.458  0.00  0.00    +0.064 C 
ATOM     12  C   UNL     1      37.294 -23.055 -14.725  0.00  0.00    +0.034 C 
ATOM     13  C   UNL     1      33.301 -22.629 -16.864  0.00  0.00    +0.007 C 
ATOM     14  C   UNL     1      35.640 -25.646 -14.455  0.00  0.00    +0.003 C 
ATOM     15  C   UNL     1      31.986 -22.941 -17.570  0.00  0.00    +0.023 C 
ATOM     16  C   UNL     1      30.868 -23.064 -16.566  0.00  0.00    -0.035 C 
ATOM     17  C   UNL     1      31.027 -25.503 -16.117  0.00  0.00    +0.011 C 
ATOM     18  C   UNL     1      29.924 -24.070 -14.456  0.00  0.00    -0.017 C 
ATOM     19  C   UNL     1      29.798 -22.258 -16.646  0.00  0.00    +0.034 C 
ATOM     20  C   UNL     1      28.857 -23.269 -14.530  0.00  0.00    +0.038 C 
ATOM     21  C   UNL     1      28.714 -22.315 -15.644  0.00  0.00    +0.195 C 
ENDROOT
BRANCH   7  22
ATOM     22  O   UNL     1      36.351 -22.436 -12.577  0.00  0.00    -0.380 OA
ATOM     23  H   UNL     1      36.739 -22.590 -11.702  0.00  0.00    +0.211 HD
ENDBRANCH   7  22
BRANCH  10  24
ATOM     24  O   UNL     1      32.799 -26.048 -13.832  0.00  0.00    -0.382 OA
ATOM     25  H   UNL     1      33.636 -26.446 -13.548  0.00  0.00    +0.210 HD
ENDBRANCH  10  24
BRANCH   7  27
ATOM     26  O   UNL     1      37.101 -25.017 -11.604  0.00  0.00    -0.290 OA
ATOM     27  C   UNL     1      37.523 -24.428 -12.598  0.00  0.00    +0.218 C 
BRANCH  27  28
ATOM     28  C   UNL     1      38.959 -24.542 -13.062  0.00  0.00    +0.274 C 
BRANCH  28  29
ATOM     29  O   UNL     1      39.286 -25.886 -13.346  0.00  0.00    -0.440 OA
BRANCH  29  31
ATOM     30  O   UNL     1      41.268 -26.854 -14.032  0.00  0.00    -0.250 OA
ATOM     31  C   UNL     1      40.334 -26.085 -14.210  0.00  0.00    +0.318 C 
ATOM     32  C   UNL     1      40.178 -25.218 -15.422  0.00  0.00    +0.121 C 
ENDBRANCH  29  31
ENDBRANCH  28  29
ENDBRANCH  27  28
ENDBRANCH   7  27
TORSDOF 6
ENDMDL
