MODEL 1
REMARK VINA RESULT:      -9.9      0.000      0.000
REMARK  Name = 196970
REMARK  5 active torsions:
REMARK  status: ('A' for Active; 'I' for Inactive)
REMARK    1  A    between atoms: N_1  and  C_6
REMARK    2  A    between atoms: N_1  and  S_16
REMARK    3  A    between atoms: C_8  and  C_15
REMARK    4  A    between atoms: S_16  and  C_19
REMARK    5  A    between atoms: C_22  and  C_26
REMARK                            x       y       z     vdW  Elec       q    Type
REMARK                         _______ _______ _______ _____ _____    ______ ____
ROOT
ATOM      1  N   UNL     1      35.055 -17.851 -21.082  0.00  0.00    -0.214 N 
ATOM      2  H   UNL     1      35.844 -17.818 -20.493  0.00  0.00    +0.174 HD
ENDROOT
BRANCH   1   6
ATOM      3  N   UNL     1      34.637 -17.186 -24.027  0.00  0.00    -0.310 N 
ATOM      4  C   UNL     1      34.301 -16.409 -22.942  0.00  0.00    +0.064 C 
ATOM      5  C   UNL     1      33.724 -15.237 -23.437  0.00  0.00    +0.022 C 
ATOM      6  C   UNL     1      34.463 -16.650 -21.572  0.00  0.00    +0.078 C 
ATOM      7  C   UNL     1      33.286 -14.258 -22.523  0.00  0.00    -0.020 C 
ATOM      8  C   UNL     1      33.725 -15.340 -24.856  0.00  0.00    +0.084 C 
ATOM      9  C   UNL     1      34.021 -15.664 -20.685  0.00  0.00    +0.017 C 
ATOM     10  C   UNL     1      33.442 -14.486 -21.151  0.00  0.00    -0.003 C 
ATOM     11  C   UNL     1      34.293 -16.548 -25.188  0.00  0.00    +0.072 C 
ATOM     12  C   UNL     1      32.655 -12.969 -22.951  0.00  0.00    +0.031 C 
ATOM     13  H   UNL     1      35.063 -18.071 -23.975  0.00  0.00    +0.152 HD
BRANCH   8  15
ATOM     14  N   UNL     1      32.845 -13.625 -26.589  0.00  0.00    -0.191 NA
ATOM     15  C   UNL     1      33.241 -14.397 -25.809  0.00  0.00    +0.102 C 
ENDBRANCH   8  15
ENDBRANCH   1   6
BRANCH   1  16
ATOM     16  S   UNL     1      34.366 -19.364 -21.537  0.00  0.00    +0.074 S 
ATOM     17  O   UNL     1      32.925 -19.296 -21.378  0.00  0.00    -0.150 OA
ATOM     18  O   UNL     1      34.931 -19.808 -22.797  0.00  0.00    -0.150 OA
BRANCH  16  19
ATOM     19  C   UNL     1      34.972 -20.437 -20.266  0.00  0.00    +0.126 C 
ATOM     20  C   UNL     1      34.077 -21.226 -19.567  0.00  0.00    +0.030 C 
ATOM     21  C   UNL     1      36.328 -20.464 -19.999  0.00  0.00    +0.020 C 
ATOM     22  C   UNL     1      34.555 -22.072 -18.566  0.00  0.00    +0.070 C 
ATOM     23  C   UNL     1      36.806 -21.309 -18.998  0.00  0.00    +0.002 C 
ATOM     24  C   UNL     1      35.920 -22.114 -18.281  0.00  0.00    +0.010 C 
BRANCH  22  26
ATOM     25  N   UNL     1      32.908 -23.563 -17.233  0.00  0.00    -0.191 NA
ATOM     26  C   UNL     1      33.646 -22.894 -17.831  0.00  0.00    +0.100 C 
ENDBRANCH  22  26
ENDBRANCH  16  19
ENDBRANCH   1  16
TORSDOF 5
ENDMDL
MODEL 2
REMARK VINA RESULT:      -9.9      3.941      6.623
REMARK  Name = 196970
REMARK  5 active torsions:
REMARK  status: ('A' for Active; 'I' for Inactive)
REMARK    1  A    between atoms: N_1  and  C_6
REMARK    2  A    between atoms: N_1  and  S_16
REMARK    3  A    between atoms: C_8  and  C_15
REMARK    4  A    between atoms: S_16  and  C_19
REMARK    5  A    between atoms: C_22  and  C_26
REMARK                            x       y       z     vdW  Elec       q    Type
REMARK                         _______ _______ _______ _____ _____    ______ ____
ROOT
ATOM      1  N   UNL     1      33.777 -23.087 -17.807  0.00  0.00    -0.214 N 
ATOM      2  H   UNL     1      32.992 -23.506 -18.229  0.00  0.00    +0.174 HD
ENDROOT
BRANCH   1   6
ATOM      3  N   UNL     1      32.771 -21.113 -19.901  0.00  0.00    -0.310 N 
ATOM      4  C   UNL     1      34.072 -21.302 -19.491  0.00  0.00    +0.064 C 
ATOM      5  C   UNL     1      34.866 -20.412 -20.219  0.00  0.00    +0.022 C 
ATOM      6  C   UNL     1      34.601 -22.184 -18.542  0.00  0.00    +0.078 C 
ATOM      7  C   UNL     1      36.255 -20.400 -19.989  0.00  0.00    -0.020 C 
ATOM      8  C   UNL     1      33.996 -19.684 -21.078  0.00  0.00    +0.084 C 
ATOM      9  C   UNL     1      35.983 -22.154 -18.332  0.00  0.00    +0.017 C 
ATOM     10  C   UNL     1      36.799 -21.277 -19.042  0.00  0.00    -0.003 C 
ATOM     11  C   UNL     1      32.716 -20.137 -20.860  0.00  0.00    +0.072 C 
ATOM     12  C   UNL     1      37.193 -19.487 -20.715  0.00  0.00    +0.031 C 
ATOM     13  H   UNL     1      31.994 -21.608 -19.555  0.00  0.00    +0.152 HD
BRANCH   8  15
ATOM     14  N   UNL     1      34.607 -17.825 -22.776  0.00  0.00    -0.191 NA
ATOM     15  C   UNL     1      34.332 -18.662 -22.012  0.00  0.00    +0.102 C 
ENDBRANCH   8  15
ENDBRANCH   1   6
BRANCH   1  16
ATOM     16  S   UNL     1      34.180 -23.434 -16.168  0.00  0.00    +0.074 S 
ATOM     17  O   UNL     1      34.834 -24.729 -16.105  0.00  0.00    -0.150 OA
ATOM     18  O   UNL     1      34.808 -22.280 -15.556  0.00  0.00    -0.150 OA
BRANCH  16  19
ATOM     19  C   UNL     1      32.582 -23.632 -15.435  0.00  0.00    +0.126 C 
ATOM     20  C   UNL     1      31.487 -23.035 -16.033  0.00  0.00    +0.030 C 
ATOM     21  C   UNL     1      32.460 -24.380 -14.278  0.00  0.00    +0.020 C 
ATOM     22  C   UNL     1      30.227 -23.191 -15.454  0.00  0.00    +0.070 C 
ATOM     23  C   UNL     1      31.201 -24.537 -13.700  0.00  0.00    +0.002 C 
ATOM     24  C   UNL     1      30.084 -23.943 -14.288  0.00  0.00    +0.010 C 
BRANCH  22  26
ATOM     25  N   UNL     1      28.153 -22.086 -16.546  0.00  0.00    -0.191 NA
ATOM     26  C   UNL     1      29.083 -22.582 -16.056  0.00  0.00    +0.100 C 
ENDBRANCH  22  26
ENDBRANCH  16  19
ENDBRANCH   1  16
TORSDOF 5
ENDMDL
MODEL 3
REMARK VINA RESULT:      -9.9      2.017      8.193
REMARK  Name = 196970
REMARK  5 active torsions:
REMARK  status: ('A' for Active; 'I' for Inactive)
REMARK    1  A    between atoms: N_1  and  C_6
REMARK    2  A    between atoms: N_1  and  S_16
REMARK    3  A    between atoms: C_8  and  C_15
REMARK    4  A    between atoms: S_16  and  C_19
REMARK    5  A    between atoms: C_22  and  C_26
REMARK                            x       y       z     vdW  Elec       q    Type
REMARK                         _______ _______ _______ _____ _____    ______ ____
ROOT
ATOM      1  N   UNL     1      34.607 -17.485 -22.408  0.00  0.00    -0.214 N 
ATOM      2  H   UNL     1      34.592 -17.584 -23.388  0.00  0.00    +0.174 HD
ENDROOT
BRANCH   1   6
ATOM      3  N   UNL     1      32.909 -19.605 -21.025  0.00  0.00    -0.310 N 
ATOM      4  C   UNL     1      34.278 -19.471 -20.974  0.00  0.00    +0.064 C 
ATOM      5  C   UNL     1      34.763 -20.497 -20.160  0.00  0.00    +0.022 C 
ATOM      6  C   UNL     1      35.117 -18.528 -21.580  0.00  0.00    +0.078 C 
ATOM      7  C   UNL     1      36.151 -20.590 -19.939  0.00  0.00    -0.020 C 
ATOM      8  C   UNL     1      33.636 -21.251 -19.726  0.00  0.00    +0.084 C 
ATOM      9  C   UNL     1      36.491 -18.640 -21.346  0.00  0.00    +0.017 C 
ATOM     10  C   UNL     1      37.002 -19.654 -20.539  0.00  0.00    -0.003 C 
ATOM     11  C   UNL     1      32.513 -20.678 -20.273  0.00  0.00    +0.072 C 
ATOM     12  C   UNL     1      36.770 -21.651 -19.084  0.00  0.00    +0.031 C 
ATOM     13  H   UNL     1      32.304 -19.014 -21.528  0.00  0.00    +0.152 HD
BRANCH   8  15
ATOM     14  N   UNL     1      33.599 -23.336 -18.188  0.00  0.00    -0.191 NA
ATOM     15  C   UNL     1      33.616 -22.397 -18.880  0.00  0.00    +0.102 C 
ENDBRANCH   8  15
ENDBRANCH   1   6
BRANCH   1  16
ATOM     16  S   UNL     1      34.017 -16.046 -21.665  0.00  0.00    +0.074 S 
ATOM     17  O   UNL     1      32.707 -16.309 -21.099  0.00  0.00    -0.150 OA
ATOM     18  O   UNL     1      35.052 -15.452 -20.841  0.00  0.00    -0.150 OA
BRANCH  16  19
ATOM     19  C   UNL     1      33.768 -14.990 -23.064  0.00  0.00    +0.126 C 
ATOM     20  C   UNL     1      33.737 -13.620 -22.877  0.00  0.00    +0.030 C 
ATOM     21  C   UNL     1      33.610 -15.557 -24.315  0.00  0.00    +0.020 C 
ATOM     22  C   UNL     1      33.541 -12.788 -23.980  0.00  0.00    +0.070 C 
ATOM     23  C   UNL     1      33.414 -14.726 -25.417  0.00  0.00    +0.002 C 
ATOM     24  C   UNL     1      33.380 -13.341 -25.250  0.00  0.00    +0.010 C 
BRANCH  22  26
ATOM     25  N   UNL     1      33.477 -10.217 -23.669  0.00  0.00    -0.191 NA
ATOM     26  C   UNL     1      33.506 -11.370 -23.808  0.00  0.00    +0.100 C 
ENDBRANCH  22  26
ENDBRANCH  16  19
ENDBRANCH   1  16
TORSDOF 5
ENDMDL
MODEL 4
REMARK VINA RESULT:      -9.6      3.471      5.666
REMARK  Name = 196970
REMARK  5 active torsions:
REMARK  status: ('A' for Active; 'I' for Inactive)
REMARK    1  A    between atoms: N_1  and  C_6
REMARK    2  A    between atoms: N_1  and  S_16
REMARK    3  A    between atoms: C_8  and  C_15
REMARK    4  A    between atoms: S_16  and  C_19
REMARK    5  A    between atoms: C_22  and  C_26
REMARK                            x       y       z     vdW  Elec       q    Type
REMARK                         _______ _______ _______ _____ _____    ______ ____
ROOT
ATOM      1  N   UNL     1      32.566 -14.312 -23.152  0.00  0.00    -0.214 N 
ATOM      2  H   UNL     1      32.064 -14.814 -23.834  0.00  0.00    +0.174 HD
ENDROOT
BRANCH   1   6
ATOM      3  N   UNL     1      31.387 -11.970 -21.597  0.00  0.00    -0.310 N 
ATOM      4  C   UNL     1      32.322 -11.914 -22.606  0.00  0.00    +0.064 C 
ATOM      5  C   UNL     1      32.641 -10.567 -22.797  0.00  0.00    +0.022 C 
ATOM      6  C   UNL     1      32.903 -12.942 -23.358  0.00  0.00    +0.078 C 
ATOM      7  C   UNL     1      33.585 -10.228 -23.786  0.00  0.00    -0.020 C 
ATOM      8  C   UNL     1      31.865  -9.820 -21.868  0.00  0.00    +0.084 C 
ATOM      9  C   UNL     1      33.837 -12.580 -24.333  0.00  0.00    +0.017 C 
ATOM     10  C   UNL     1      34.175 -11.246 -24.546  0.00  0.00    -0.003 C 
ATOM     11  C   UNL     1      31.106 -10.709 -21.145  0.00  0.00    +0.072 C 
ATOM     12  C   UNL     1      33.996  -8.817 -24.070  0.00  0.00    +0.031 C 
ATOM     13  H   UNL     1      30.981 -12.797 -21.251  0.00  0.00    +0.152 HD
BRANCH   8  15
ATOM     14  N   UNL     1      31.820  -7.252 -21.517  0.00  0.00    -0.191 NA
ATOM     15  C   UNL     1      31.840  -8.408 -21.675  0.00  0.00    +0.102 C 
ENDBRANCH   8  15
ENDBRANCH   1   6
BRANCH   1  16
ATOM     16  S   UNL     1      33.055 -15.076 -21.687  0.00  0.00    +0.074 S 
ATOM     17  O   UNL     1      33.894 -14.163 -20.932  0.00  0.00    -0.150 OA
ATOM     18  O   UNL     1      31.913 -15.701 -21.047  0.00  0.00    -0.150 OA
BRANCH  16  19
ATOM     19  C   UNL     1      34.110 -16.366 -22.284  0.00  0.00    +0.126 C 
ATOM     20  C   UNL     1      34.732 -17.203 -21.376  0.00  0.00    +0.030 C 
ATOM     21  C   UNL     1      34.291 -16.510 -23.647  0.00  0.00    +0.020 C 
ATOM     22  C   UNL     1      35.564 -18.219 -21.847  0.00  0.00    +0.070 C 
ATOM     23  C   UNL     1      35.122 -17.526 -24.119  0.00  0.00    +0.002 C 
ATOM     24  C   UNL     1      35.758 -18.381 -23.219  0.00  0.00    +0.010 C 
BRANCH  22  26
ATOM     25  N   UNL     1      36.747 -19.806 -20.175  0.00  0.00    -0.191 NA
ATOM     26  C   UNL     1      36.216 -19.094 -20.925  0.00  0.00    +0.100 C 
ENDBRANCH  22  26
ENDBRANCH  16  19
ENDBRANCH   1  16
TORSDOF 5
ENDMDL
MODEL 5
REMARK VINA RESULT:      -9.4      3.448      5.536
REMARK  Name = 196970
REMARK  5 active torsions:
REMARK  status: ('A' for Active; 'I' for Inactive)
REMARK    1  A    between atoms: N_1  and  C_6
REMARK    2  A    between atoms: N_1  and  S_16
REMARK    3  A    between atoms: C_8  and  C_15
REMARK    4  A    between atoms: S_16  and  C_19
REMARK    5  A    between atoms: C_22  and  C_26
REMARK                            x       y       z     vdW  Elec       q    Type
REMARK                         _______ _______ _______ _____ _____    ______ ____
ROOT
ATOM      1  N   UNL     1      33.000 -13.849 -23.088  0.00  0.00    -0.214 N 
ATOM      2  H   UNL     1      33.084 -14.233 -23.991  0.00  0.00    +0.174 HD
ENDROOT
BRANCH   1   6
ATOM      3  N   UNL     1      34.564 -11.567 -24.366  0.00  0.00    -0.310 N 
ATOM      4  C   UNL     1      33.475 -11.465 -23.530  0.00  0.00    +0.064 C 
ATOM      5  C   UNL     1      33.208 -10.103 -23.366  0.00  0.00    +0.022 C 
ATOM      6  C   UNL     1      32.714 -12.463 -22.912  0.00  0.00    +0.078 C 
ATOM      7  C   UNL     1      32.129  -9.718 -22.547  0.00  0.00    -0.020 C 
ATOM      8  C   UNL     1      34.174  -9.394 -24.133  0.00  0.00    +0.084 C 
ATOM      9  C   UNL     1      31.649 -12.056 -22.103  0.00  0.00    +0.017 C 
ATOM     10  C   UNL     1      31.359 -10.706 -21.921  0.00  0.00    -0.003 C 
ATOM     11  C   UNL     1      34.993 -10.320 -24.736  0.00  0.00    +0.072 C 
ATOM     12  C   UNL     1      31.760  -8.287 -22.306  0.00  0.00    +0.031 C 
ATOM     13  H   UNL     1      34.975 -12.413 -24.656  0.00  0.00    +0.152 HD
BRANCH   8  15
ATOM     14  N   UNL     1      34.431  -6.830 -24.413  0.00  0.00    -0.191 NA
ATOM     15  C   UNL     1      34.315  -7.984 -24.287  0.00  0.00    +0.102 C 
ENDBRANCH   8  15
ENDBRANCH   1   6
BRANCH   1  16
ATOM     16  S   UNL     1      33.195 -14.842 -21.693  0.00  0.00    +0.074 S 
ATOM     17  O   UNL     1      34.030 -14.147 -20.730  0.00  0.00    -0.150 OA
ATOM     18  O   UNL     1      31.913 -15.378 -21.281  0.00  0.00    -0.150 OA
BRANCH  16  19
ATOM     19  C   UNL     1      34.159 -16.182 -22.333  0.00  0.00    +0.126 C 
ATOM     20  C   UNL     1      34.796 -17.036 -21.450  0.00  0.00    +0.030 C 
ATOM     21  C   UNL     1      34.256 -16.347 -23.702  0.00  0.00    +0.020 C 
ATOM     22  C   UNL     1      35.555 -18.092 -21.955  0.00  0.00    +0.070 C 
ATOM     23  C   UNL     1      35.015 -17.403 -24.207  0.00  0.00    +0.002 C 
ATOM     24  C   UNL     1      35.664 -18.276 -23.334  0.00  0.00    +0.010 C 
BRANCH  22  26
ATOM     25  N   UNL     1      36.762 -19.711 -20.332  0.00  0.00    -0.191 NA
ATOM     26  C   UNL     1      36.221 -18.985 -21.060  0.00  0.00    +0.100 C 
ENDBRANCH  22  26
ENDBRANCH  16  19
ENDBRANCH   1  16
TORSDOF 5
ENDMDL
MODEL 6
REMARK VINA RESULT:      -9.3      4.296      6.875
REMARK  Name = 196970
REMARK  5 active torsions:
REMARK  status: ('A' for Active; 'I' for Inactive)
REMARK    1  A    between atoms: N_1  and  C_6
REMARK    2  A    between atoms: N_1  and  S_16
REMARK    3  A    between atoms: C_8  and  C_15
REMARK    4  A    between atoms: S_16  and  C_19
REMARK    5  A    between atoms: C_22  and  C_26
REMARK                            x       y       z     vdW  Elec       q    Type
REMARK                         _______ _______ _______ _____ _____    ______ ____
ROOT
ATOM      1  N   UNL     1      34.259 -12.719 -23.693  0.00  0.00    -0.214 N 
ATOM      2  H   UNL     1      34.949 -13.125 -23.119  0.00  0.00    +0.174 HD
ENDROOT
BRANCH   1   6
ATOM      3  N   UNL     1      32.106 -10.956 -22.448  0.00  0.00    -0.310 N 
ATOM      4  C   UNL     1      33.159 -10.553 -23.238  0.00  0.00    +0.064 C 
ATOM      5  C   UNL     1      33.066  -9.166 -23.372  0.00  0.00    +0.022 C 
ATOM      6  C   UNL     1      34.177 -11.303 -23.839  0.00  0.00    +0.078 C 
ATOM      7  C   UNL     1      34.034  -8.492 -24.142  0.00  0.00    -0.020 C 
ATOM      8  C   UNL     1      31.920  -8.752 -22.636  0.00  0.00    +0.084 C 
ATOM      9  C   UNL     1      35.126 -10.612 -24.598  0.00  0.00    +0.017 C 
ATOM     10  C   UNL     1      35.058  -9.229 -24.749  0.00  0.00    -0.003 C 
ATOM     11  C   UNL     1      31.352  -9.874 -22.080  0.00  0.00    +0.072 C 
ATOM     12  C   UNL     1      34.023  -7.009 -24.348  0.00  0.00    +0.031 C 
ATOM     13  H   UNL     1      31.922 -11.887 -22.187  0.00  0.00    +0.152 HD
BRANCH   8  15
ATOM     14  N   UNL     1      30.990  -6.353 -22.331  0.00  0.00    -0.191 NA
ATOM     15  C   UNL     1      31.409  -7.433 -22.468  0.00  0.00    +0.102 C 
ENDBRANCH   8  15
ENDBRANCH   1   6
BRANCH   1  16
ATOM     16  S   UNL     1      33.130 -13.709 -24.538  0.00  0.00    +0.074 S 
ATOM     17  O   UNL     1      31.876 -13.728 -23.807  0.00  0.00    -0.150 OA
ATOM     18  O   UNL     1      33.135 -13.375 -25.949  0.00  0.00    -0.150 OA
BRANCH  16  19
ATOM     19  C   UNL     1      33.850 -15.315 -24.361  0.00  0.00    +0.126 C 
ATOM     20  C   UNL     1      34.248 -15.742 -23.106  0.00  0.00    +0.030 C 
ATOM     21  C   UNL     1      34.001 -16.113 -25.481  0.00  0.00    +0.020 C 
ATOM     22  C   UNL     1      34.815 -17.008 -22.967  0.00  0.00    +0.070 C 
ATOM     23  C   UNL     1      34.568 -17.379 -25.341  0.00  0.00    +0.002 C 
ATOM     24  C   UNL     1      34.975 -17.828 -24.085  0.00  0.00    +0.010 C 
BRANCH  22  26
ATOM     25  N   UNL     1      35.572 -17.841 -20.633  0.00  0.00    -0.191 NA
ATOM     26  C   UNL     1      35.233 -17.467 -21.680  0.00  0.00    +0.100 C 
ENDBRANCH  22  26
ENDBRANCH  16  19
ENDBRANCH   1  16
TORSDOF 5
ENDMDL
MODEL 7
REMARK VINA RESULT:      -9.3      2.243      3.537
REMARK  Name = 196970
REMARK  5 active torsions:
REMARK  status: ('A' for Active; 'I' for Inactive)
REMARK    1  A    between atoms: N_1  and  C_6
REMARK    2  A    between atoms: N_1  and  S_16
REMARK    3  A    between atoms: C_8  and  C_15
REMARK    4  A    between atoms: S_16  and  C_19
REMARK    5  A    between atoms: C_22  and  C_26
REMARK                            x       y       z     vdW  Elec       q    Type
REMARK                         _______ _______ _______ _____ _____    ______ ____
ROOT
ATOM      1  N   UNL     1      34.710 -19.813 -20.395  0.00  0.00    -0.214 N 
ATOM      2  H   UNL     1      33.919 -19.859 -19.810  0.00  0.00    +0.174 HD
ENDROOT
BRANCH   1   6
ATOM      3  N   UNL     1      34.373 -16.784 -20.443  0.00  0.00    -0.310 N 
ATOM      4  C   UNL     1      34.539 -17.621 -21.523  0.00  0.00    +0.064 C 
ATOM      5  C   UNL     1      34.525 -16.823 -22.669  0.00  0.00    +0.022 C 
ATOM      6  C   UNL     1      34.698 -19.011 -21.573  0.00  0.00    +0.078 C 
ATOM      7  C   UNL     1      34.677 -17.438 -23.927  0.00  0.00    -0.020 C 
ATOM      8  C   UNL     1      34.345 -15.479 -22.238  0.00  0.00    +0.084 C 
ATOM      9  C   UNL     1      34.847 -19.600 -22.833  0.00  0.00    +0.017 C 
ATOM     10  C   UNL     1      34.837 -18.828 -23.993  0.00  0.00    -0.003 C 
ATOM     11  C   UNL     1      34.255 -15.487 -20.866  0.00  0.00    +0.072 C 
ATOM     12  C   UNL     1      34.676 -16.674 -25.214  0.00  0.00    +0.031 C 
ATOM     13  H   UNL     1      34.344 -17.076 -19.504  0.00  0.00    +0.152 HD
BRANCH   8  15
ATOM     14  N   UNL     1      34.202 -13.335 -23.687  0.00  0.00    -0.191 NA
ATOM     15  C   UNL     1      34.267 -14.300 -23.035  0.00  0.00    +0.102 C 
ENDBRANCH   8  15
ENDBRANCH   1   6
BRANCH   1  16
ATOM     16  S   UNL     1      36.134 -20.704 -20.009  0.00  0.00    +0.074 S 
ATOM     17  O   UNL     1      36.419 -21.632 -21.088  0.00  0.00    -0.150 OA
ATOM     18  O   UNL     1      37.171 -19.805 -19.540  0.00  0.00    -0.150 OA
BRANCH  16  19
ATOM     19  C   UNL     1      35.595 -21.673 -18.630  0.00  0.00    +0.126 C 
ATOM     20  C   UNL     1      36.457 -21.869 -17.565  0.00  0.00    +0.030 C 
ATOM     21  C   UNL     1      34.323 -22.214 -18.644  0.00  0.00    +0.020 C 
ATOM     22  C   UNL     1      36.031 -22.632 -16.478  0.00  0.00    +0.070 C 
ATOM     23  C   UNL     1      33.897 -22.978 -17.557  0.00  0.00    +0.002 C 
ATOM     24  C   UNL     1      34.751 -23.186 -16.474  0.00  0.00    +0.010 C 
BRANCH  22  26
ATOM     25  N   UNL     1      37.618 -23.021 -14.468  0.00  0.00    -0.191 NA
ATOM     26  C   UNL     1      36.906 -22.847 -15.369  0.00  0.00    +0.100 C 
ENDBRANCH  22  26
ENDBRANCH  16  19
ENDBRANCH   1  16
TORSDOF 5
ENDMDL
MODEL 8
REMARK VINA RESULT:      -9.3      3.903      8.713
REMARK  Name = 196970
REMARK  5 active torsions:
REMARK  status: ('A' for Active; 'I' for Inactive)
REMARK    1  A    between atoms: N_1  and  C_6
REMARK    2  A    between atoms: N_1  and  S_16
REMARK    3  A    between atoms: C_8  and  C_15
REMARK    4  A    between atoms: S_16  and  C_19
REMARK    5  A    between atoms: C_22  and  C_26
REMARK                            x       y       z     vdW  Elec       q    Type
REMARK                         _______ _______ _______ _____ _____    ______ ____
ROOT
ATOM      1  N   UNL     1      34.493 -13.554 -22.792  0.00  0.00    -0.214 N 
ATOM      2  H   UNL     1      35.258 -12.965 -22.601  0.00  0.00    +0.174 HD
ENDROOT
BRANCH   1   6
ATOM      3  N   UNL     1      34.635 -15.775 -24.875  0.00  0.00    -0.310 N 
ATOM      4  C   UNL     1      34.621 -15.917 -23.506  0.00  0.00    +0.064 C 
ATOM      5  C   UNL     1      34.685 -17.285 -23.234  0.00  0.00    +0.022 C 
ATOM      6  C   UNL     1      34.557 -14.948 -22.498  0.00  0.00    +0.078 C 
ATOM      7  C   UNL     1      34.685 -17.710 -21.891  0.00  0.00    -0.020 C 
ATOM      8  C   UNL     1      34.737 -17.958 -24.487  0.00  0.00    +0.084 C 
ATOM      9  C   UNL     1      34.559 -15.394 -21.173  0.00  0.00    +0.017 C 
ATOM     10  C   UNL     1      34.622 -16.752 -20.871  0.00  0.00    -0.003 C 
ATOM     11  C   UNL     1      34.705 -17.003 -25.476  0.00  0.00    +0.072 C 
ATOM     12  C   UNL     1      34.750 -19.152 -21.492  0.00  0.00    +0.031 C 
ATOM     13  H   UNL     1      34.599 -14.915 -25.353  0.00  0.00    +0.152 HD
BRANCH   8  15
ATOM     14  N   UNL     1      34.871 -20.507 -24.934  0.00  0.00    -0.191 NA
ATOM     15  C   UNL     1      34.811 -19.359 -24.733  0.00  0.00    +0.102 C 
ENDBRANCH   8  15
ENDBRANCH   1   6
BRANCH   1  16
ATOM     16  S   UNL     1      33.051 -12.918 -23.489  0.00  0.00    +0.074 S 
ATOM     17  O   UNL     1      32.906 -13.438 -24.837  0.00  0.00    -0.150 OA
ATOM     18  O   UNL     1      31.952 -13.034 -22.551  0.00  0.00    -0.150 OA
BRANCH  16  19
ATOM     19  C   UNL     1      33.449 -11.200 -23.644  0.00  0.00    +0.126 C 
ATOM     20  C   UNL     1      32.641 -10.262 -23.028  0.00  0.00    +0.030 C 
ATOM     21  C   UNL     1      34.562 -10.831 -24.378  0.00  0.00    +0.020 C 
ATOM     22  C   UNL     1      32.955  -8.909 -23.150  0.00  0.00    +0.070 C 
ATOM     23  C   UNL     1      34.876  -9.478 -24.500  0.00  0.00    +0.002 C 
ATOM     24  C   UNL     1      34.074  -8.516 -23.885  0.00  0.00    +0.010 C 
BRANCH  22  26
ATOM     25  N   UNL     1      31.464  -7.123 -22.010  0.00  0.00    -0.191 NA
ATOM     26  C   UNL     1      32.133  -7.924 -22.521  0.00  0.00    +0.100 C 
ENDBRANCH  22  26
ENDBRANCH  16  19
ENDBRANCH   1  16
TORSDOF 5
ENDMDL
MODEL 9
REMARK VINA RESULT:      -9.2      4.317      6.708
REMARK  Name = 196970
REMARK  5 active torsions:
REMARK  status: ('A' for Active; 'I' for Inactive)
REMARK    1  A    between atoms: N_1  and  C_6
REMARK    2  A    between atoms: N_1  and  S_16
REMARK    3  A    between atoms: C_8  and  C_15
REMARK    4  A    between atoms: S_16  and  C_19
REMARK    5  A    between atoms: C_22  and  C_26
REMARK                            x       y       z     vdW  Elec       q    Type
REMARK                         _______ _______ _______ _____ _____    ______ ____
ROOT
ATOM      1  N   UNL     1      31.843 -13.049 -22.903  0.00  0.00    -0.214 N 
ATOM      2  H   UNL     1      31.036 -13.596 -23.043  0.00  0.00    +0.174 HD
ENDROOT
BRANCH   1   6
ATOM      3  N   UNL     1      32.131 -10.127 -23.719  0.00  0.00    -0.310 N 
ATOM      4  C   UNL     1      31.963 -10.623 -22.446  0.00  0.00    +0.064 C 
ATOM      5  C   UNL     1      31.948  -9.530 -21.576  0.00  0.00    +0.022 C 
ATOM      6  C   UNL     1      31.825 -11.944 -22.002  0.00  0.00    +0.078 C 
ATOM      7  C   UNL     1      31.787  -9.764 -20.197  0.00  0.00    -0.020 C 
ATOM      8  C   UNL     1      32.112  -8.362 -22.372  0.00  0.00    +0.084 C 
ATOM      9  C   UNL     1      31.667 -12.150 -20.629  0.00  0.00    +0.017 C 
ATOM     10  C   UNL     1      31.648 -11.080 -19.738  0.00  0.00    -0.003 C 
ATOM     11  C   UNL     1      32.222  -8.761 -23.684  0.00  0.00    +0.072 C 
ATOM     12  C   UNL     1      31.758  -8.664 -19.182  0.00  0.00    +0.031 C 
ATOM     13  H   UNL     1      32.179 -10.674 -24.536  0.00  0.00    +0.152 HD
BRANCH   8  15
ATOM     14  N   UNL     1      32.200  -5.892 -21.595  0.00  0.00    -0.191 NA
ATOM     15  C   UNL     1      32.161  -7.004 -21.945  0.00  0.00    +0.102 C 
ENDBRANCH   8  15
ENDBRANCH   1   6
BRANCH   1  16
ATOM     16  S   UNL     1      33.303 -13.413 -23.744  0.00  0.00    +0.074 S 
ATOM     17  O   UNL     1      32.975 -13.922 -25.064  0.00  0.00    -0.150 OA
ATOM     18  O   UNL     1      34.241 -12.316 -23.608  0.00  0.00    -0.150 OA
BRANCH  16  19
ATOM     19  C   UNL     1      33.930 -14.779 -22.810  0.00  0.00    +0.126 C 
ATOM     20  C   UNL     1      34.152 -15.987 -23.447  0.00  0.00    +0.030 C 
ATOM     21  C   UNL     1      34.187 -14.610 -21.462  0.00  0.00    +0.020 C 
ATOM     22  C   UNL     1      34.647 -17.063 -22.710  0.00  0.00    +0.070 C 
ATOM     23  C   UNL     1      34.682 -15.686 -20.725  0.00  0.00    +0.002 C 
ATOM     24  C   UNL     1      34.913 -16.912 -21.349  0.00  0.00    +0.010 C 
BRANCH  22  26
ATOM     25  N   UNL     1      35.073 -19.340 -23.869  0.00  0.00    -0.191 NA
ATOM     26  C   UNL     1      34.882 -18.319 -23.350  0.00  0.00    +0.100 C 
ENDBRANCH  22  26
ENDBRANCH  16  19
ENDBRANCH   1  16
TORSDOF 5
ENDMDL
