MODEL 1
REMARK VINA RESULT:      -4.8      0.000      0.000
REMARK  Name = 8172
REMARK  9 active torsions:
REMARK  status: ('A' for Active; 'I' for Inactive)
REMARK    1  A    between atoms: C_1  and  O_2
REMARK    2  A    between atoms: C_1  and  C_7
REMARK    3  A    between atoms: O_2  and  C_3
REMARK    4  A    between atoms: C_3  and  C_4
REMARK    5  A    between atoms: C_4  and  O_5
REMARK    6  A    between atoms: C_7  and  O_8
REMARK    7  A    between atoms: O_8  and  C_9
REMARK    8  A    between atoms: C_9  and  C_10
REMARK    9  A    between atoms: C_10  and  O_11
REMARK                            x       y       z     vdW  Elec       q    Type
REMARK                         _______ _______ _______ _____ _____    ______ ____
ROOT
ATOM      1  C   UNL     1      37.234 -26.773 -13.812  0.00  0.00    +0.174 C 
ENDROOT
BRANCH   1   2
ATOM      2  O   UNL     1      38.490 -26.653 -14.465  0.00  0.00    -0.348 OA
BRANCH   2   3
ATOM      3  C   UNL     1      39.278 -25.616 -13.892  0.00  0.00    +0.174 C 
BRANCH   3   4
ATOM      4  C   UNL     1      40.525 -25.420 -14.733  0.00  0.00    +0.169 C 
BRANCH   4   5
ATOM      5  O   UNL     1      40.286 -25.923 -16.041  0.00  0.00    -0.379 OA
ATOM      6  H   UNL     1      40.843 -26.702 -16.195  0.00  0.00    +0.211 HD
ENDBRANCH   4   5
ENDBRANCH   3   4
ENDBRANCH   2   3
ENDBRANCH   1   2
BRANCH   1   7
ATOM      7  C   UNL     1      36.819 -25.412 -13.286  0.00  0.00    +0.174 C 
BRANCH   7   8
ATOM      8  O   UNL     1      36.404 -25.545 -11.931  0.00  0.00    -0.348 OA
BRANCH   8   9
ATOM      9  C   UNL     1      36.383 -24.290 -11.267  0.00  0.00    +0.174 C 
BRANCH   9  10
ATOM     10  C   UNL     1      37.002 -23.241 -12.170  0.00  0.00    +0.169 C 
BRANCH  10  11
ATOM     11  O   UNL     1      38.183 -22.739 -11.557  0.00  0.00    -0.379 OA
ATOM     12  H   UNL     1      38.428 -23.310 -10.811  0.00  0.00    +0.211 HD
ENDBRANCH  10  11
ENDBRANCH   9  10
ENDBRANCH   8   9
ENDBRANCH   7   8
ENDBRANCH   1   7
TORSDOF 9
ENDMDL
MODEL 2
REMARK VINA RESULT:      -4.8      2.479      3.939
REMARK  Name = 8172
REMARK  9 active torsions:
REMARK  status: ('A' for Active; 'I' for Inactive)
REMARK    1  A    between atoms: C_1  and  O_2
REMARK    2  A    between atoms: C_1  and  C_7
REMARK    3  A    between atoms: O_2  and  C_3
REMARK    4  A    between atoms: C_3  and  C_4
REMARK    5  A    between atoms: C_4  and  O_5
REMARK    6  A    between atoms: C_7  and  O_8
REMARK    7  A    between atoms: O_8  and  C_9
REMARK    8  A    between atoms: C_9  and  C_10
REMARK    9  A    between atoms: C_10  and  O_11
REMARK                            x       y       z     vdW  Elec       q    Type
REMARK                         _______ _______ _______ _____ _____    ______ ____
ROOT
ATOM      1  C   UNL     1      36.586 -25.448 -14.528  0.00  0.00    +0.174 C 
ENDROOT
BRANCH   1   2
ATOM      2  O   UNL     1      36.187 -24.537 -15.542  0.00  0.00    -0.348 OA
BRANCH   2   3
ATOM      3  C   UNL     1      36.453 -23.191 -15.167  0.00  0.00    +0.174 C 
BRANCH   3   4
ATOM      4  C   UNL     1      37.364 -22.559 -16.202  0.00  0.00    +0.169 C 
BRANCH   4   5
ATOM      5  O   UNL     1      38.633 -23.199 -16.155  0.00  0.00    -0.379 OA
ATOM      6  H   UNL     1      39.039 -23.178 -17.037  0.00  0.00    +0.211 HD
ENDBRANCH   4   5
ENDBRANCH   3   4
ENDBRANCH   2   3
ENDBRANCH   1   2
BRANCH   1   7
ATOM      7  C   UNL     1      36.941 -26.776 -15.168  0.00  0.00    +0.174 C 
BRANCH   7   8
ATOM      8  O   UNL     1      38.319 -27.048 -14.940  0.00  0.00    -0.348 OA
BRANCH   8   9
ATOM      9  C   UNL     1      38.912 -26.066 -14.102  0.00  0.00    +0.174 C 
BRANCH   9  10
ATOM     10  C   UNL     1      40.316 -25.775 -14.596  0.00  0.00    +0.169 C 
BRANCH  10  11
ATOM     11  O   UNL     1      40.335 -25.859 -16.016  0.00  0.00    -0.379 OA
ATOM     12  H   UNL     1      41.255 -25.896 -16.325  0.00  0.00    +0.211 HD
ENDBRANCH  10  11
ENDBRANCH   9  10
ENDBRANCH   8   9
ENDBRANCH   7   8
ENDBRANCH   1   7
TORSDOF 9
ENDMDL
MODEL 3
REMARK VINA RESULT:      -4.8      0.865      4.337
REMARK  Name = 8172
REMARK  9 active torsions:
REMARK  status: ('A' for Active; 'I' for Inactive)
REMARK    1  A    between atoms: C_1  and  O_2
REMARK    2  A    between atoms: C_1  and  C_7
REMARK    3  A    between atoms: O_2  and  C_3
REMARK    4  A    between atoms: C_3  and  C_4
REMARK    5  A    between atoms: C_4  and  O_5
REMARK    6  A    between atoms: C_7  and  O_8
REMARK    7  A    between atoms: O_8  and  C_9
REMARK    8  A    between atoms: C_9  and  C_10
REMARK    9  A    between atoms: C_10  and  O_11
REMARK                            x       y       z     vdW  Elec       q    Type
REMARK                         _______ _______ _______ _____ _____    ______ ____
ROOT
ATOM      1  C   UNL     1      37.245 -25.469 -12.831  0.00  0.00    +0.174 C 
ENDROOT
BRANCH   1   2
ATOM      2  O   UNL     1      36.445 -25.575 -11.662  0.00  0.00    -0.348 OA
BRANCH   2   3
ATOM      3  C   UNL     1      35.940 -24.307 -11.261  0.00  0.00    +0.174 C 
BRANCH   3   4
ATOM      4  C   UNL     1      36.646 -23.221 -12.049  0.00  0.00    +0.169 C 
BRANCH   4   5
ATOM      5  O   UNL     1      37.352 -22.378 -11.148  0.00  0.00    -0.379 OA
ATOM      6  H   UNL     1      38.051 -22.888 -10.707  0.00  0.00    +0.211 HD
ENDBRANCH   4   5
ENDBRANCH   3   4
ENDBRANCH   2   3
ENDBRANCH   1   2
BRANCH   1   7
ATOM      7  C   UNL     1      37.118 -26.750 -13.634  0.00  0.00    +0.174 C 
BRANCH   7   8
ATOM      8  O   UNL     1      38.245 -26.872 -14.495  0.00  0.00    -0.348 OA
BRANCH   8   9
ATOM      9  C   UNL     1      38.894 -25.623 -14.684  0.00  0.00    +0.174 C 
BRANCH   9  10
ATOM     10  C   UNL     1      40.376 -25.863 -14.904  0.00  0.00    +0.169 C 
BRANCH  10  11
ATOM     11  O   UNL     1      41.098 -24.706 -14.503  0.00  0.00    -0.379 OA
ATOM     12  H   UNL     1      40.656 -24.296 -13.742  0.00  0.00    +0.211 HD
ENDBRANCH  10  11
ENDBRANCH   9  10
ENDBRANCH   8   9
ENDBRANCH   7   8
ENDBRANCH   1   7
TORSDOF 9
ENDMDL
MODEL 4
REMARK VINA RESULT:      -4.7      2.371      4.775
REMARK  Name = 8172
REMARK  9 active torsions:
REMARK  status: ('A' for Active; 'I' for Inactive)
REMARK    1  A    between atoms: C_1  and  O_2
REMARK    2  A    between atoms: C_1  and  C_7
REMARK    3  A    between atoms: O_2  and  C_3
REMARK    4  A    between atoms: C_3  and  C_4
REMARK    5  A    between atoms: C_4  and  O_5
REMARK    6  A    between atoms: C_7  and  O_8
REMARK    7  A    between atoms: O_8  and  C_9
REMARK    8  A    between atoms: C_9  and  C_10
REMARK    9  A    between atoms: C_10  and  O_11
REMARK                            x       y       z     vdW  Elec       q    Type
REMARK                         _______ _______ _______ _____ _____    ______ ____
ROOT
ATOM      1  C   UNL     1      36.741 -25.226 -14.891  0.00  0.00    +0.174 C 
ENDROOT
BRANCH   1   2
ATOM      2  O   UNL     1      35.494 -24.995 -15.529  0.00  0.00    -0.348 OA
BRANCH   2   3
ATOM      3  C   UNL     1      34.759 -23.966 -14.876  0.00  0.00    +0.174 C 
BRANCH   3   4
ATOM      4  C   UNL     1      34.772 -24.220 -13.381  0.00  0.00    +0.169 C 
BRANCH   4   5
ATOM      5  O   UNL     1      33.519 -24.769 -12.993  0.00  0.00    -0.379 OA
ATOM      6  H   UNL     1      32.807 -24.154 -13.235  0.00  0.00    +0.211 HD
ENDBRANCH   4   5
ENDBRANCH   3   4
ENDBRANCH   2   3
ENDBRANCH   1   2
BRANCH   1   7
ATOM      7  C   UNL     1      37.103 -26.693 -15.030  0.00  0.00    +0.174 C 
BRANCH   7   8
ATOM      8  O   UNL     1      38.490 -26.858 -14.755  0.00  0.00    -0.348 OA
BRANCH   8   9
ATOM      9  C   UNL     1      39.036 -25.708 -14.125  0.00  0.00    +0.174 C 
BRANCH   9  10
ATOM     10  C   UNL     1      40.381 -25.393 -14.751  0.00  0.00    +0.169 C 
BRANCH  10  11
ATOM     11  O   UNL     1      40.440 -25.978 -16.045  0.00  0.00    -0.379 OA
ATOM     12  H   UNL     1      41.175 -26.612 -16.080  0.00  0.00    +0.211 HD
ENDBRANCH  10  11
ENDBRANCH   9  10
ENDBRANCH   8   9
ENDBRANCH   7   8
ENDBRANCH   1   7
TORSDOF 9
ENDMDL
MODEL 5
REMARK VINA RESULT:      -4.6      1.524      1.683
REMARK  Name = 8172
REMARK  9 active torsions:
REMARK  status: ('A' for Active; 'I' for Inactive)
REMARK    1  A    between atoms: C_1  and  O_2
REMARK    2  A    between atoms: C_1  and  C_7
REMARK    3  A    between atoms: O_2  and  C_3
REMARK    4  A    between atoms: C_3  and  C_4
REMARK    5  A    between atoms: C_4  and  O_5
REMARK    6  A    between atoms: C_7  and  O_8
REMARK    7  A    between atoms: O_8  and  C_9
REMARK    8  A    between atoms: C_9  and  C_10
REMARK    9  A    between atoms: C_10  and  O_11
REMARK                            x       y       z     vdW  Elec       q    Type
REMARK                         _______ _______ _______ _____ _____    ______ ____
ROOT
ATOM      1  C   UNL     1      36.923 -23.687 -15.007  0.00  0.00    +0.174 C 
ENDROOT
BRANCH   1   2
ATOM      2  O   UNL     1      38.301 -23.851 -14.706  0.00  0.00    -0.348 OA
BRANCH   2   3
ATOM      3  C   UNL     1      38.671 -25.225 -14.697  0.00  0.00    +0.174 C 
BRANCH   3   4
ATOM      4  C   UNL     1      40.180 -25.332 -14.810  0.00  0.00    +0.169 C 
BRANCH   4   5
ATOM      5  O   UNL     1      40.508 -26.004 -16.019  0.00  0.00    -0.379 OA
ATOM      6  H   UNL     1      40.351 -26.956 -15.913  0.00  0.00    +0.211 HD
ENDBRANCH   4   5
ENDBRANCH   3   4
ENDBRANCH   2   3
ENDBRANCH   1   2
BRANCH   1   7
ATOM      7  C   UNL     1      36.110 -24.616 -14.126  0.00  0.00    +0.174 C 
BRANCH   7   8
ATOM      8  O   UNL     1      35.544 -23.866 -13.057  0.00  0.00    -0.348 OA
BRANCH   8   9
ATOM      9  C   UNL     1      36.224 -24.109 -11.834  0.00  0.00    +0.174 C 
BRANCH   9  10
ATOM     10  C   UNL     1      37.097 -22.913 -11.507  0.00  0.00    +0.169 C 
BRANCH  10  11
ATOM     11  O   UNL     1      38.460 -23.265 -11.707  0.00  0.00    -0.379 OA
ATOM     12  H   UNL     1      38.513 -24.169 -12.057  0.00  0.00    +0.211 HD
ENDBRANCH  10  11
ENDBRANCH   9  10
ENDBRANCH   8   9
ENDBRANCH   7   8
ENDBRANCH   1   7
TORSDOF 9
ENDMDL
MODEL 6
REMARK VINA RESULT:      -4.6      2.005      2.342
REMARK  Name = 8172
REMARK  9 active torsions:
REMARK  status: ('A' for Active; 'I' for Inactive)
REMARK    1  A    between atoms: C_1  and  O_2
REMARK    2  A    between atoms: C_1  and  C_7
REMARK    3  A    between atoms: O_2  and  C_3
REMARK    4  A    between atoms: C_3  and  C_4
REMARK    5  A    between atoms: C_4  and  O_5
REMARK    6  A    between atoms: C_7  and  O_8
REMARK    7  A    between atoms: O_8  and  C_9
REMARK    8  A    between atoms: C_9  and  C_10
REMARK    9  A    between atoms: C_10  and  O_11
REMARK                            x       y       z     vdW  Elec       q    Type
REMARK                         _______ _______ _______ _____ _____    ______ ____
ROOT
ATOM      1  C   UNL     1      37.052 -26.571 -14.792  0.00  0.00    +0.174 C 
ENDROOT
BRANCH   1   2
ATOM      2  O   UNL     1      38.426 -26.923 -14.718  0.00  0.00    -0.348 OA
BRANCH   2   3
ATOM      3  C   UNL     1      39.171 -25.957 -13.985  0.00  0.00    +0.174 C 
BRANCH   3   4
ATOM      4  C   UNL     1      40.499 -25.726 -14.681  0.00  0.00    +0.169 C 
BRANCH   4   5
ATOM      5  O   UNL     1      40.309 -25.817 -16.087  0.00  0.00    -0.379 OA
ATOM      6  H   UNL     1      41.066 -25.414 -16.542  0.00  0.00    +0.211 HD
ENDBRANCH   4   5
ENDBRANCH   3   4
ENDBRANCH   2   3
ENDBRANCH   1   2
BRANCH   1   7
ATOM      7  C   UNL     1      36.751 -25.528 -13.734  0.00  0.00    +0.174 C 
BRANCH   7   8
ATOM      8  O   UNL     1      35.784 -24.615 -14.243  0.00  0.00    -0.348 OA
BRANCH   8   9
ATOM      9  C   UNL     1      36.214 -24.027 -15.461  0.00  0.00    +0.174 C 
BRANCH   9  10
ATOM     10  C   UNL     1      37.282 -22.992 -15.162  0.00  0.00    +0.169 C 
BRANCH  10  11
ATOM     11  O   UNL     1      38.420 -23.252 -15.973  0.00  0.00    -0.379 OA
ATOM     12  H   UNL     1      39.170 -23.500 -15.408  0.00  0.00    +0.211 HD
ENDBRANCH  10  11
ENDBRANCH   9  10
ENDBRANCH   8   9
ENDBRANCH   7   8
ENDBRANCH   1   7
TORSDOF 9
ENDMDL
MODEL 7
REMARK VINA RESULT:      -4.6      1.824      4.932
REMARK  Name = 8172
REMARK  9 active torsions:
REMARK  status: ('A' for Active; 'I' for Inactive)
REMARK    1  A    between atoms: C_1  and  O_2
REMARK    2  A    between atoms: C_1  and  C_7
REMARK    3  A    between atoms: O_2  and  C_3
REMARK    4  A    between atoms: C_3  and  C_4
REMARK    5  A    between atoms: C_4  and  O_5
REMARK    6  A    between atoms: C_7  and  O_8
REMARK    7  A    between atoms: O_8  and  C_9
REMARK    8  A    between atoms: C_9  and  C_10
REMARK    9  A    between atoms: C_10  and  O_11
REMARK                            x       y       z     vdW  Elec       q    Type
REMARK                         _______ _______ _______ _____ _____    ______ ____
ROOT
ATOM      1  C   UNL     1      37.039 -23.420 -13.549  0.00  0.00    +0.174 C 
ENDROOT
BRANCH   1   2
ATOM      2  O   UNL     1      35.626 -23.307 -13.456  0.00  0.00    -0.348 OA
BRANCH   2   3
ATOM      3  C   UNL     1      35.080 -24.306 -12.602  0.00  0.00    +0.174 C 
BRANCH   3   4
ATOM      4  C   UNL     1      36.008 -24.509 -11.421  0.00  0.00    +0.169 C 
BRANCH   4   5
ATOM      5  O   UNL     1      35.280 -25.107 -10.355  0.00  0.00    -0.379 OA
ATOM      6  H   UNL     1      34.795 -24.420  -9.870  0.00  0.00    +0.211 HD
ENDBRANCH   4   5
ENDBRANCH   3   4
ENDBRANCH   2   3
ENDBRANCH   1   2
BRANCH   1   7
ATOM      7  C   UNL     1      37.410 -23.827 -14.962  0.00  0.00    +0.174 C 
BRANCH   7   8
ATOM      8  O   UNL     1      38.790 -24.170 -15.000  0.00  0.00    -0.348 OA
BRANCH   8   9
ATOM      9  C   UNL     1      39.060 -25.329 -14.226  0.00  0.00    +0.174 C 
BRANCH   9  10
ATOM     10  C   UNL     1      40.422 -25.875 -14.609  0.00  0.00    +0.169 C 
BRANCH  10  11
ATOM     11  O   UNL     1      40.490 -26.002 -16.023  0.00  0.00    -0.379 OA
ATOM     12  H   UNL     1      41.199 -25.434 -16.366  0.00  0.00    +0.211 HD
ENDBRANCH  10  11
ENDBRANCH   9  10
ENDBRANCH   8   9
ENDBRANCH   7   8
ENDBRANCH   1   7
TORSDOF 9
ENDMDL
MODEL 8
REMARK VINA RESULT:      -4.4      2.712      3.267
REMARK  Name = 8172
REMARK  9 active torsions:
REMARK  status: ('A' for Active; 'I' for Inactive)
REMARK    1  A    between atoms: C_1  and  O_2
REMARK    2  A    between atoms: C_1  and  C_7
REMARK    3  A    between atoms: O_2  and  C_3
REMARK    4  A    between atoms: C_3  and  C_4
REMARK    5  A    between atoms: C_4  and  O_5
REMARK    6  A    between atoms: C_7  and  O_8
REMARK    7  A    between atoms: O_8  and  C_9
REMARK    8  A    between atoms: C_9  and  C_10
REMARK    9  A    between atoms: C_10  and  O_11
REMARK                            x       y       z     vdW  Elec       q    Type
REMARK                         _______ _______ _______ _____ _____    ______ ____
ROOT
ATOM      1  C   UNL     1      37.154 -26.821 -14.466  0.00  0.00    +0.174 C 
ENDROOT
BRANCH   1   2
ATOM      2  O   UNL     1      38.552 -26.843 -14.712  0.00  0.00    -0.348 OA
BRANCH   2   3
ATOM      3  C   UNL     1      39.222 -25.809 -14.000  0.00  0.00    +0.174 C 
BRANCH   3   4
ATOM      4  C   UNL     1      40.454 -25.389 -14.780  0.00  0.00    +0.169 C 
BRANCH   4   5
ATOM      5  O   UNL     1      40.372 -25.919 -16.097  0.00  0.00    -0.379 OA
ATOM      6  H   UNL     1      41.088 -25.551 -16.639  0.00  0.00    +0.211 HD
ENDBRANCH   4   5
ENDBRANCH   3   4
ENDBRANCH   2   3
ENDBRANCH   1   2
BRANCH   1   7
ATOM      7  C   UNL     1      36.699 -25.380 -14.328  0.00  0.00    +0.174 C 
BRANCH   7   8
ATOM      8  O   UNL     1      36.322 -24.887 -15.608  0.00  0.00    -0.348 OA
BRANCH   8   9
ATOM      9  C   UNL     1      35.753 -23.589 -15.520  0.00  0.00    +0.174 C 
BRANCH   9  10
ATOM     10  C   UNL     1      34.320 -23.641 -16.014  0.00  0.00    +0.169 C 
BRANCH  10  11
ATOM     11  O   UNL     1      34.309 -23.457 -17.424  0.00  0.00    -0.379 OA
ATOM     12  H   UNL     1      33.492 -23.002 -17.684  0.00  0.00    +0.211 HD
ENDBRANCH  10  11
ENDBRANCH   9  10
ENDBRANCH   8   9
ENDBRANCH   7   8
ENDBRANCH   1   7
TORSDOF 9
ENDMDL
MODEL 9
REMARK VINA RESULT:      -4.4      2.283      4.640
REMARK  Name = 8172
REMARK  9 active torsions:
REMARK  status: ('A' for Active; 'I' for Inactive)
REMARK    1  A    between atoms: C_1  and  O_2
REMARK    2  A    between atoms: C_1  and  C_7
REMARK    3  A    between atoms: O_2  and  C_3
REMARK    4  A    between atoms: C_3  and  C_4
REMARK    5  A    between atoms: C_4  and  O_5
REMARK    6  A    between atoms: C_7  and  O_8
REMARK    7  A    between atoms: O_8  and  C_9
REMARK    8  A    between atoms: C_9  and  C_10
REMARK    9  A    between atoms: C_10  and  O_11
REMARK                            x       y       z     vdW  Elec       q    Type
REMARK                         _______ _______ _______ _____ _____    ______ ____
ROOT
ATOM      1  C   UNL     1      35.291 -23.794 -13.506  0.00  0.00    +0.174 C 
ENDROOT
BRANCH   1   2
ATOM      2  O   UNL     1      34.656 -24.223 -12.310  0.00  0.00    -0.348 OA
BRANCH   2   3
ATOM      3  C   UNL     1      35.605 -24.500 -11.287  0.00  0.00    +0.174 C 
BRANCH   3   4
ATOM      4  C   UNL     1      36.852 -23.672 -11.530  0.00  0.00    +0.169 C 
BRANCH   4   5
ATOM      5  O   UNL     1      37.998 -24.483 -11.309  0.00  0.00    -0.379 OA
ATOM      6  H   UNL     1      38.519 -24.537 -12.126  0.00  0.00    +0.211 HD
ENDBRANCH   4   5
ENDBRANCH   3   4
ENDBRANCH   2   3
ENDBRANCH   1   2
BRANCH   1   7
ATOM      7  C   UNL     1      34.713 -24.565 -14.677  0.00  0.00    +0.174 C 
BRANCH   7   8
ATOM      8  O   UNL     1      35.758 -24.870 -15.594  0.00  0.00    -0.348 OA
BRANCH   8   9
ATOM      9  C   UNL     1      36.965 -25.194 -14.920  0.00  0.00    +0.174 C 
BRANCH   9  10
ATOM     10  C   UNL     1      37.166 -26.697 -14.959  0.00  0.00    +0.169 C 
BRANCH  10  11
ATOM     11  O   UNL     1      36.783 -27.183 -16.239  0.00  0.00    -0.379 OA
ATOM     12  H   UNL     1      36.500 -26.441 -16.796  0.00  0.00    +0.211 HD
ENDBRANCH  10  11
ENDBRANCH   9  10
ENDBRANCH   8   9
ENDBRANCH   7   8
ENDBRANCH   1   7
TORSDOF 9
ENDMDL
