MODEL 1
REMARK VINA RESULT:      -8.8      0.000      0.000
REMARK  Name = 11500273
REMARK  5 active torsions:
REMARK  status: ('A' for Active; 'I' for Inactive)
REMARK    1  A    between atoms: C_3  and  C_6
REMARK    2  A    between atoms: C_3  and  C_15
REMARK    3  A    between atoms: C_6  and  C_7
REMARK    4  A    between atoms: C_7  and  C_9
REMARK    5  A    between atoms: C_15  and  N_16
REMARK                            x       y       z     vdW  Elec       q    Type
REMARK                         _______ _______ _______ _____ _____    ______ ____
ROOT
ATOM      1  O   UNL     1      34.958 -15.855 -21.086  0.00  0.00    -0.330 OA
ATOM      2  O   UNL     1      32.938 -15.676 -22.270  0.00  0.00    -0.330 OA
ATOM      3  C   UNL     1      34.264 -16.225 -22.289  0.00  0.00    +0.206 C 
ATOM      4  C   UNL     1      33.943 -15.333 -20.231  0.00  0.00    +0.177 C 
ATOM      5  C   UNL     1      32.948 -14.742 -21.191  0.00  0.00    +0.177 C 
ENDROOT
BRANCH   3   6
ATOM      6  C   UNL     1      34.162 -17.743 -22.365  0.00  0.00    +0.063 C 
BRANCH   6   7
ATOM      7  C   UNL     1      35.358 -18.416 -21.690  0.00  0.00    +0.031 C 
BRANCH   7   9
ATOM      8 CL   UNL     1      33.641 -23.109 -18.366  0.00  0.00    -0.082 Cl
ATOM      9  C   UNL     1      34.926 -19.595 -20.855  0.00  0.00    -0.022 C 
ATOM     10  C   UNL     1      35.888 -20.428 -20.304  0.00  0.00    -0.003 C 
ATOM     11  C   UNL     1      33.575 -19.828 -20.651  0.00  0.00    -0.003 C 
ATOM     12  C   UNL     1      35.489 -21.518 -19.532  0.00  0.00    +0.011 C 
ATOM     13  C   UNL     1      33.175 -20.918 -19.878  0.00  0.00    +0.011 C 
ATOM     14  C   UNL     1      34.133 -21.763 -19.318  0.00  0.00    +0.058 C 
ENDBRANCH   7   9
ENDBRANCH   6   7
ENDBRANCH   3   6
BRANCH   3  15
ATOM     15  C   UNL     1      35.026 -15.662 -23.482  0.00  0.00    +0.153 C 
BRANCH  15  16
ATOM     16  N   UNL     1      34.162 -15.450 -24.635  0.00  0.00    -0.263 N 
ATOM     17  N   UNL     1      33.098 -15.863 -26.525  0.00  0.00    -0.225 NA
ATOM     18  C   UNL     1      33.453 -14.322 -24.901  0.00  0.00    +0.088 C 
ATOM     19  C   UNL     1      33.924 -16.349 -25.627  0.00  0.00    +0.168 C 
ATOM     20  C   UNL     1      32.800 -14.599 -26.080  0.00  0.00    +0.117 C 
ENDBRANCH  15  16
ENDBRANCH   3  15
TORSDOF 5
ENDMDL
MODEL 2
REMARK VINA RESULT:      -8.5      7.350     10.829
REMARK  Name = 11500273
REMARK  5 active torsions:
REMARK  status: ('A' for Active; 'I' for Inactive)
REMARK    1  A    between atoms: C_3  and  C_6
REMARK    2  A    between atoms: C_3  and  C_15
REMARK    3  A    between atoms: C_6  and  C_7
REMARK    4  A    between atoms: C_7  and  C_9
REMARK    5  A    between atoms: C_15  and  N_16
REMARK                            x       y       z     vdW  Elec       q    Type
REMARK                         _______ _______ _______ _____ _____    ______ ____
ROOT
ATOM      1  O   UNL     1      37.771 -23.377 -14.663  0.00  0.00    -0.330 OA
ATOM      2  O   UNL     1      36.199 -24.853 -15.593  0.00  0.00    -0.330 OA
ATOM      3  C   UNL     1      36.460 -23.486 -15.241  0.00  0.00    +0.206 C 
ATOM      4  C   UNL     1      38.393 -24.630 -14.943  0.00  0.00    +0.177 C 
ATOM      5  C   UNL     1      37.240 -25.596 -14.959  0.00  0.00    +0.177 C 
ENDROOT
BRANCH   3   6
ATOM      6  C   UNL     1      36.395 -22.636 -16.504  0.00  0.00    +0.063 C 
BRANCH   6   7
ATOM      7  C   UNL     1      35.087 -22.866 -17.262  0.00  0.00    +0.031 C 
BRANCH   7   9
ATOM      8 CL   UNL     1      34.712 -19.335 -22.101  0.00  0.00    -0.082 Cl
ATOM      9  C   UNL     1      34.993 -21.979 -18.478  0.00  0.00    -0.022 C 
ATOM     10  C   UNL     1      33.749 -21.703 -19.026  0.00  0.00    -0.003 C 
ATOM     11  C   UNL     1      36.152 -21.453 -19.029  0.00  0.00    -0.003 C 
ATOM     12  C   UNL     1      33.662 -20.883 -20.150  0.00  0.00    +0.011 C 
ATOM     13  C   UNL     1      36.065 -20.632 -20.153  0.00  0.00    +0.011 C 
ATOM     14  C   UNL     1      34.820 -20.347 -20.714  0.00  0.00    +0.058 C 
ENDBRANCH   7   9
ENDBRANCH   6   7
ENDBRANCH   3   6
BRANCH   3  15
ATOM     15  C   UNL     1      35.436 -23.026 -14.211  0.00  0.00    +0.153 C 
BRANCH  15  16
ATOM     16  N   UNL     1      35.694 -23.588 -12.893  0.00  0.00    -0.263 N 
ATOM     17  N   UNL     1      35.510 -24.917 -11.139  0.00  0.00    -0.225 NA
ATOM     18  C   UNL     1      36.621 -23.141 -12.006  0.00  0.00    +0.088 C 
ATOM     19  C   UNL     1      35.049 -24.650 -12.340  0.00  0.00    +0.168 C 
ATOM     20  C   UNL     1      36.490 -23.980 -10.923  0.00  0.00    +0.117 C 
ENDBRANCH  15  16
ENDBRANCH   3  15
TORSDOF 5
ENDMDL
MODEL 3
REMARK VINA RESULT:      -8.4      6.475      9.691
REMARK  Name = 11500273
REMARK  5 active torsions:
REMARK  status: ('A' for Active; 'I' for Inactive)
REMARK    1  A    between atoms: C_3  and  C_6
REMARK    2  A    between atoms: C_3  and  C_15
REMARK    3  A    between atoms: C_6  and  C_7
REMARK    4  A    between atoms: C_7  and  C_9
REMARK    5  A    between atoms: C_15  and  N_16
REMARK                            x       y       z     vdW  Elec       q    Type
REMARK                         _______ _______ _______ _____ _____    ______ ____
ROOT
ATOM      1  O   UNL     1      34.434 -22.741 -14.971  0.00  0.00    -0.330 OA
ATOM      2  O   UNL     1      35.029 -24.683 -16.149  0.00  0.00    -0.330 OA
ATOM      3  C   UNL     1      34.260 -23.471 -16.196  0.00  0.00    +0.206 C 
ATOM      4  C   UNL     1      35.532 -23.380 -14.323  0.00  0.00    +0.177 C 
ATOM      5  C   UNL     1      35.426 -24.808 -14.785  0.00  0.00    +0.177 C 
ENDROOT
BRANCH   3   6
ATOM      6  C   UNL     1      34.755 -22.625 -17.362  0.00  0.00    +0.063 C 
BRANCH   6   7
ATOM      7  C   UNL     1      33.700 -22.524 -18.464  0.00  0.00    +0.031 C 
BRANCH   7   9
ATOM      8 CL   UNL     1      35.046 -18.193 -22.395  0.00  0.00    -0.082 Cl
ATOM      9  C   UNL     1      34.038 -21.436 -19.451  0.00  0.00    -0.022 C 
ATOM     10  C   UNL     1      35.364 -21.208 -19.787  0.00  0.00    -0.003 C 
ATOM     11  C   UNL     1      33.017 -20.680 -20.008  0.00  0.00    -0.003 C 
ATOM     12  C   UNL     1      35.677 -20.202 -20.700  0.00  0.00    +0.011 C 
ATOM     13  C   UNL     1      33.330 -19.673 -20.922  0.00  0.00    +0.011 C 
ATOM     14  C   UNL     1      34.659 -19.434 -21.268  0.00  0.00    +0.058 C 
ENDBRANCH   7   9
ENDBRANCH   6   7
ENDBRANCH   3   6
BRANCH   3  15
ATOM     15  C   UNL     1      32.784 -23.817 -16.350  0.00  0.00    +0.153 C 
BRANCH  15  16
ATOM     16  N   UNL     1      32.096 -23.868 -15.068  0.00  0.00    -0.263 N 
ATOM     17  N   UNL     1      31.347 -24.676 -13.154  0.00  0.00    -0.225 NA
ATOM     18  C   UNL     1      31.400 -22.851 -14.498  0.00  0.00    +0.088 C 
ATOM     19  C   UNL     1      32.043 -24.942 -14.236  0.00  0.00    +0.168 C 
ATOM     20  C   UNL     1      30.942 -23.373 -13.310  0.00  0.00    +0.117 C 
ENDBRANCH  15  16
ENDBRANCH   3  15
TORSDOF 5
ENDMDL
MODEL 4
REMARK VINA RESULT:      -8.3      7.292     10.725
REMARK  Name = 11500273
REMARK  5 active torsions:
REMARK  status: ('A' for Active; 'I' for Inactive)
REMARK    1  A    between atoms: C_3  and  C_6
REMARK    2  A    between atoms: C_3  and  C_15
REMARK    3  A    between atoms: C_6  and  C_7
REMARK    4  A    between atoms: C_7  and  C_9
REMARK    5  A    between atoms: C_15  and  N_16
REMARK                            x       y       z     vdW  Elec       q    Type
REMARK                         _______ _______ _______ _____ _____    ______ ____
ROOT
ATOM      1  O   UNL     1      33.604 -24.502 -14.820  0.00  0.00    -0.330 OA
ATOM      2  O   UNL     1      35.466 -23.605 -13.704  0.00  0.00    -0.330 OA
ATOM      3  C   UNL     1      34.986 -24.130 -14.952  0.00  0.00    +0.206 C 
ATOM      4  C   UNL     1      33.193 -23.926 -13.580  0.00  0.00    +0.177 C 
ATOM      5  C   UNL     1      34.452 -23.936 -12.757  0.00  0.00    +0.177 C 
ENDROOT
BRANCH   3   6
ATOM      6  C   UNL     1      35.117 -23.049 -16.017  0.00  0.00    +0.063 C 
BRANCH   6   7
ATOM      7  C   UNL     1      34.124 -23.270 -17.159  0.00  0.00    +0.031 C 
BRANCH   7   9
ATOM      8 CL   UNL     1      35.089 -19.434 -21.673  0.00  0.00    -0.082 Cl
ATOM      9  C   UNL     1      34.366 -22.306 -18.293  0.00  0.00    -0.022 C 
ATOM     10  C   UNL     1      35.667 -21.955 -18.623  0.00  0.00    -0.003 C 
ATOM     11  C   UNL     1      33.285 -21.786 -18.988  0.00  0.00    -0.003 C 
ATOM     12  C   UNL     1      35.891 -21.063 -19.671  0.00  0.00    +0.011 C 
ATOM     13  C   UNL     1      33.509 -20.895 -20.038  0.00  0.00    +0.011 C 
ATOM     14  C   UNL     1      34.812 -20.533 -20.379  0.00  0.00    +0.058 C 
ENDBRANCH   7   9
ENDBRANCH   6   7
ENDBRANCH   3   6
BRANCH   3  15
ATOM     15  C   UNL     1      35.789 -25.371 -15.320  0.00  0.00    +0.153 C 
BRANCH  15  16
ATOM     16  N   UNL     1      37.032 -25.462 -14.568  0.00  0.00    -0.263 N 
ATOM     17  N   UNL     1      38.488 -26.145 -13.054  0.00  0.00    -0.225 NA
ATOM     18  C   UNL     1      38.153 -24.727 -14.790  0.00  0.00    +0.088 C 
ATOM     19  C   UNL     1      37.270 -26.299 -13.523  0.00  0.00    +0.168 C 
ATOM     20  C   UNL     1      39.044 -25.166 -13.839  0.00  0.00    +0.117 C 
ENDBRANCH  15  16
ENDBRANCH   3  15
TORSDOF 5
ENDMDL
MODEL 5
REMARK VINA RESULT:      -8.1      1.935      2.596
REMARK  Name = 11500273
REMARK  5 active torsions:
REMARK  status: ('A' for Active; 'I' for Inactive)
REMARK    1  A    between atoms: C_3  and  C_6
REMARK    2  A    between atoms: C_3  and  C_15
REMARK    3  A    between atoms: C_6  and  C_7
REMARK    4  A    between atoms: C_7  and  C_9
REMARK    5  A    between atoms: C_15  and  N_16
REMARK                            x       y       z     vdW  Elec       q    Type
REMARK                         _______ _______ _______ _____ _____    ______ ____
ROOT
ATOM      1  O   UNL     1      34.868 -14.495 -21.984  0.00  0.00    -0.330 OA
ATOM      2  O   UNL     1      33.262 -16.203 -21.845  0.00  0.00    -0.330 OA
ATOM      3  C   UNL     1      34.175 -15.519 -22.717  0.00  0.00    +0.206 C 
ATOM      4  C   UNL     1      34.574 -14.770 -20.615  0.00  0.00    +0.177 C 
ATOM      5  C   UNL     1      33.206 -15.393 -20.671  0.00  0.00    +0.177 C 
ENDROOT
BRANCH   3   6
ATOM      6  C   UNL     1      35.185 -16.527 -23.251  0.00  0.00    +0.063 C 
BRANCH   6   7
ATOM      7  C   UNL     1      34.587 -17.932 -23.319  0.00  0.00    +0.031 C 
BRANCH   7   9
ATOM      8 CL   UNL     1      36.501 -21.345 -18.768  0.00  0.00    -0.082 Cl
ATOM      9  C   UNL     1      35.068 -18.790 -22.176  0.00  0.00    -0.022 C 
ATOM     10  C   UNL     1      36.391 -18.705 -21.770  0.00  0.00    -0.003 C 
ATOM     11  C   UNL     1      34.179 -19.649 -21.548  0.00  0.00    -0.003 C 
ATOM     12  C   UNL     1      36.836 -19.498 -20.713  0.00  0.00    +0.011 C 
ATOM     13  C   UNL     1      34.623 -20.442 -20.490  0.00  0.00    +0.011 C 
ATOM     14  C   UNL     1      35.952 -20.367 -20.072  0.00  0.00    +0.058 C 
ENDBRANCH   7   9
ENDBRANCH   6   7
ENDBRANCH   3   6
BRANCH   3  15
ATOM     15  C   UNL     1      33.395 -14.863 -23.849  0.00  0.00    +0.153 C 
BRANCH  15  16
ATOM     16  N   UNL     1      33.206 -13.436 -23.629  0.00  0.00    -0.263 N 
ATOM     17  N   UNL     1      32.372 -11.563 -22.809  0.00  0.00    -0.225 NA
ATOM     18  C   UNL     1      33.907 -12.439 -24.228  0.00  0.00    +0.088 C 
ATOM     19  C   UNL     1      32.297 -12.875 -22.787  0.00  0.00    +0.168 C 
ATOM     20  C   UNL     1      33.373 -11.284 -23.706  0.00  0.00    +0.117 C 
ENDBRANCH  15  16
ENDBRANCH   3  15
TORSDOF 5
ENDMDL
MODEL 6
REMARK VINA RESULT:      -8.0      5.076      7.973
REMARK  Name = 11500273
REMARK  5 active torsions:
REMARK  status: ('A' for Active; 'I' for Inactive)
REMARK    1  A    between atoms: C_3  and  C_6
REMARK    2  A    between atoms: C_3  and  C_15
REMARK    3  A    between atoms: C_6  and  C_7
REMARK    4  A    between atoms: C_7  and  C_9
REMARK    5  A    between atoms: C_15  and  N_16
REMARK                            x       y       z     vdW  Elec       q    Type
REMARK                         _______ _______ _______ _____ _____    ______ ____
ROOT
ATOM      1  O   UNL     1      32.422 -15.276 -22.271  0.00  0.00    -0.330 OA
ATOM      2  O   UNL     1      33.690 -13.888 -20.864  0.00  0.00    -0.330 OA
ATOM      3  C   UNL     1      33.004 -13.971 -22.123  0.00  0.00    +0.206 C 
ATOM      4  C   UNL     1      32.517 -15.862 -20.974  0.00  0.00    +0.177 C 
ATOM      5  C   UNL     1      33.757 -15.235 -20.398  0.00  0.00    +0.177 C 
ENDROOT
BRANCH   3   6
ATOM      6  C   UNL     1      31.901 -12.921 -22.147  0.00  0.00    +0.063 C 
BRANCH   6   7
ATOM      7  C   UNL     1      31.757 -12.233 -20.789  0.00  0.00    +0.031 C 
BRANCH   7   9
ATOM      8 CL   UNL     1      32.146  -6.266 -21.306  0.00  0.00    -0.082 Cl
ATOM      9  C   UNL     1      31.855 -10.734 -20.919  0.00  0.00    -0.022 C 
ATOM     10  C   UNL     1      31.893 -10.160 -22.181  0.00  0.00    -0.003 C 
ATOM     11  C   UNL     1      31.906  -9.953 -19.774  0.00  0.00    -0.003 C 
ATOM     12  C   UNL     1      31.983  -8.774 -22.301  0.00  0.00    +0.011 C 
ATOM     13  C   UNL     1      31.996  -8.566 -19.894  0.00  0.00    +0.011 C 
ATOM     14  C   UNL     1      32.034  -7.976 -21.157  0.00  0.00    +0.058 C 
ENDBRANCH   7   9
ENDBRANCH   6   7
ENDBRANCH   3   6
BRANCH   3  15
ATOM     15  C   UNL     1      34.001 -13.753 -23.255  0.00  0.00    +0.153 C 
BRANCH  15  16
ATOM     16  N   UNL     1      34.089 -14.908 -24.137  0.00  0.00    -0.263 N 
ATOM     17  N   UNL     1      33.722 -16.209 -25.882  0.00  0.00    -0.225 NA
ATOM     18  C   UNL     1      34.839 -16.019 -23.919  0.00  0.00    +0.088 C 
ATOM     19  C   UNL     1      33.435 -15.057 -25.320  0.00  0.00    +0.168 C 
ATOM     20  C   UNL     1      34.597 -16.815 -25.015  0.00  0.00    +0.117 C 
ENDBRANCH  15  16
ENDBRANCH   3  15
TORSDOF 5
ENDMDL
MODEL 7
REMARK VINA RESULT:      -8.0      6.837     10.225
REMARK  Name = 11500273
REMARK  5 active torsions:
REMARK  status: ('A' for Active; 'I' for Inactive)
REMARK    1  A    between atoms: C_3  and  C_6
REMARK    2  A    between atoms: C_3  and  C_15
REMARK    3  A    between atoms: C_6  and  C_7
REMARK    4  A    between atoms: C_7  and  C_9
REMARK    5  A    between atoms: C_15  and  N_16
REMARK                            x       y       z     vdW  Elec       q    Type
REMARK                         _______ _______ _______ _____ _____    ______ ____
ROOT
ATOM      1  O   UNL     1      32.967 -24.731 -14.933  0.00  0.00    -0.330 OA
ATOM      2  O   UNL     1      32.136 -22.556 -14.622  0.00  0.00    -0.330 OA
ATOM      3  C   UNL     1      33.076 -23.360 -15.351  0.00  0.00    +0.206 C 
ATOM      4  C   UNL     1      31.763 -24.779 -14.169  0.00  0.00    +0.177 C 
ATOM      5  C   UNL     1      31.674 -23.401 -13.570  0.00  0.00    +0.177 C 
ENDROOT
BRANCH   3   6
ATOM      6  C   UNL     1      32.755 -23.260 -16.837  0.00  0.00    +0.063 C 
BRANCH   6   7
ATOM      7  C   UNL     1      34.014 -23.412 -17.690  0.00  0.00    +0.031 C 
BRANCH   7   9
ATOM      8 CL   UNL     1      34.529 -18.928 -21.647  0.00  0.00    -0.082 Cl
ATOM      9  C   UNL     1      34.144 -22.286 -18.685  0.00  0.00    -0.022 C 
ATOM     10  C   UNL     1      33.002 -21.646 -19.142  0.00  0.00    -0.003 C 
ATOM     11  C   UNL     1      35.403 -21.907 -19.126  0.00  0.00    -0.003 C 
ATOM     12  C   UNL     1      33.121 -20.604 -20.062  0.00  0.00    +0.011 C 
ATOM     13  C   UNL     1      35.523 -20.865 -20.045  0.00  0.00    +0.011 C 
ATOM     14  C   UNL     1      34.382 -20.214 -20.513  0.00  0.00    +0.058 C 
ENDBRANCH   7   9
ENDBRANCH   6   7
ENDBRANCH   3   6
BRANCH   3  15
ATOM     15  C   UNL     1      34.490 -22.874 -15.057  0.00  0.00    +0.153 C 
BRANCH  15  16
ATOM     16  N   UNL     1      35.254 -23.846 -14.287  0.00  0.00    -0.263 N 
ATOM     17  N   UNL     1      36.057 -24.926 -12.536  0.00  0.00    -0.225 NA
ATOM     18  C   UNL     1      36.071 -24.802 -14.800  0.00  0.00    +0.088 C 
ATOM     19  C   UNL     1      35.271 -23.950 -12.931  0.00  0.00    +0.168 C 
ATOM     20  C   UNL     1      36.560 -25.462 -13.696  0.00  0.00    +0.117 C 
ENDBRANCH  15  16
ENDBRANCH   3  15
TORSDOF 5
ENDMDL
MODEL 8
REMARK VINA RESULT:      -8.0      6.740      9.474
REMARK  Name = 11500273
REMARK  5 active torsions:
REMARK  status: ('A' for Active; 'I' for Inactive)
REMARK    1  A    between atoms: C_3  and  C_6
REMARK    2  A    between atoms: C_3  and  C_15
REMARK    3  A    between atoms: C_6  and  C_7
REMARK    4  A    between atoms: C_7  and  C_9
REMARK    5  A    between atoms: C_15  and  N_16
REMARK                            x       y       z     vdW  Elec       q    Type
REMARK                         _______ _______ _______ _____ _____    ______ ____
ROOT
ATOM      1  O   UNL     1      30.832 -22.797 -14.490  0.00  0.00    -0.330 OA
ATOM      2  O   UNL     1      32.201 -24.562 -15.216  0.00  0.00    -0.330 OA
ATOM      3  C   UNL     1      31.165 -23.646 -15.601  0.00  0.00    +0.206 C 
ATOM      4  C   UNL     1      31.875 -23.020 -13.542  0.00  0.00    +0.177 C 
ATOM      5  C   UNL     1      32.278 -24.447 -13.796  0.00  0.00    +0.177 C 
ENDROOT
BRANCH   3   6
ATOM      6  C   UNL     1      31.674 -22.789 -16.754  0.00  0.00    +0.063 C 
BRANCH   6   7
ATOM      7  C   UNL     1      32.997 -23.326 -17.303  0.00  0.00    +0.031 C 
BRANCH   7   9
ATOM      8 CL   UNL     1      35.366 -19.582 -21.352  0.00  0.00    -0.082 Cl
ATOM      9  C   UNL     1      33.592 -22.385 -18.320  0.00  0.00    -0.022 C 
ATOM     10  C   UNL     1      34.969 -22.323 -18.467  0.00  0.00    -0.003 C 
ATOM     11  C   UNL     1      32.752 -21.597 -19.093  0.00  0.00    -0.003 C 
ATOM     12  C   UNL     1      35.520 -21.453 -19.407  0.00  0.00    +0.011 C 
ATOM     13  C   UNL     1      33.302 -20.728 -20.035  0.00  0.00    +0.011 C 
ATOM     14  C   UNL     1      34.686 -20.655 -20.192  0.00  0.00    +0.058 C 
ENDBRANCH   7   9
ENDBRANCH   6   7
ENDBRANCH   3   6
BRANCH   3  15
ATOM     15  C   UNL     1      29.922 -24.430 -16.002  0.00  0.00    +0.153 C 
BRANCH  15  16
ATOM     16  N   UNL     1      28.778 -23.561 -16.238  0.00  0.00    -0.263 N 
ATOM     17  N   UNL     1      27.122 -22.567 -17.309  0.00  0.00    -0.225 NA
ATOM     18  C   UNL     1      28.196 -22.745 -15.321  0.00  0.00    +0.088 C 
ATOM     19  C   UNL     1      28.109 -23.428 -17.415  0.00  0.00    +0.168 C 
ATOM     20  C   UNL     1      27.170 -22.137 -16.007  0.00  0.00    +0.117 C 
ENDBRANCH  15  16
ENDBRANCH   3  15
TORSDOF 5
ENDMDL
MODEL 9
REMARK VINA RESULT:      -8.0      4.579      7.724
REMARK  Name = 11500273
REMARK  5 active torsions:
REMARK  status: ('A' for Active; 'I' for Inactive)
REMARK    1  A    between atoms: C_3  and  C_6
REMARK    2  A    between atoms: C_3  and  C_15
REMARK    3  A    between atoms: C_6  and  C_7
REMARK    4  A    between atoms: C_7  and  C_9
REMARK    5  A    between atoms: C_15  and  N_16
REMARK                            x       y       z     vdW  Elec       q    Type
REMARK                         _______ _______ _______ _____ _____    ______ ____
ROOT
ATOM      1  O   UNL     1      33.095 -15.887 -22.372  0.00  0.00    -0.330 OA
ATOM      2  O   UNL     1      34.479 -14.054 -21.881  0.00  0.00    -0.330 OA
ATOM      3  C   UNL     1      33.811 -14.773 -22.929  0.00  0.00    +0.206 C 
ATOM      4  C   UNL     1      33.104 -15.653 -20.964  0.00  0.00    +0.177 C 
ATOM      5  C   UNL     1      34.394 -14.911 -20.743  0.00  0.00    +0.177 C 
ENDROOT
BRANCH   3   6
ATOM      6  C   UNL     1      32.826 -13.833 -23.613  0.00  0.00    +0.063 C 
BRANCH   6   7
ATOM      7  C   UNL     1      33.463 -13.143 -24.820  0.00  0.00    +0.031 C 
BRANCH   7   9
ATOM      8 CL   UNL     1      34.785  -7.413 -23.619  0.00  0.00    -0.082 Cl
ATOM      9  C   UNL     1      33.795 -11.703 -24.519  0.00  0.00    -0.022 C 
ATOM     10  C   UNL     1      33.097 -11.037 -23.523  0.00  0.00    -0.003 C 
ATOM     11  C   UNL     1      34.793 -11.069 -25.242  0.00  0.00    -0.003 C 
ATOM     12  C   UNL     1      33.404  -9.706 -23.244  0.00  0.00    +0.011 C 
ATOM     13  C   UNL     1      35.101  -9.737 -24.963  0.00  0.00    +0.011 C 
ATOM     14  C   UNL     1      34.406  -9.056 -23.964  0.00  0.00    +0.058 C 
ENDBRANCH   7   9
ENDBRANCH   6   7
ENDBRANCH   3   6
BRANCH   3  15
ATOM     15  C   UNL     1      34.845 -15.304 -23.915  0.00  0.00    +0.153 C 
BRANCH  15  16
ATOM     16  N   UNL     1      34.789 -16.754 -24.039  0.00  0.00    -0.263 N 
ATOM     17  N   UNL     1      34.310 -18.741 -24.875  0.00  0.00    -0.225 NA
ATOM     18  C   UNL     1      35.329 -17.648 -23.170  0.00  0.00    +0.088 C 
ATOM     19  C   UNL     1      34.189 -17.444 -25.045  0.00  0.00    +0.168 C 
ATOM     20  C   UNL     1      35.019 -18.876 -23.707  0.00  0.00    +0.117 C 
ENDBRANCH  15  16
ENDBRANCH   3  15
TORSDOF 5
ENDMDL
