MODEL 1
REMARK VINA RESULT:      -9.4      0.000      0.000
REMARK  Name = 387316
REMARK  9 active torsions:
REMARK  status: ('A' for Active; 'I' for Inactive)
REMARK    1  A    between atoms: C_6  and  C_24
REMARK    2  A    between atoms: C_10  and  O_20
REMARK    3  A    between atoms: C_19  and  O_22
REMARK    4  A    between atoms: C_24  and  C_26
REMARK    5  A    between atoms: C_26  and  C_27
REMARK    6  A    between atoms: C_27  and  C_30
REMARK    7  A    between atoms: N_29  and  C_32
REMARK    8  A    between atoms: C_32  and  C_33
REMARK    9  A    between atoms: C_33  and  S_34
REMARK                            x       y       z     vdW  Elec       q    Type
REMARK                         _______ _______ _______ _____ _____    ______ ____
ROOT
ATOM      1  C   UNL     1      34.477 -16.531 -23.906  0.00  0.00    +0.002 C 
ATOM      2  C   UNL     1      34.596 -16.725 -22.380  0.00  0.00    +0.000 C 
ATOM      3  C   UNL     1      33.504 -15.407 -24.296  0.00  0.00    +0.027 C 
ATOM      4  C   UNL     1      34.012 -14.067 -23.667  0.00  0.00    +0.002 C 
ATOM      5  C   UNL     1      33.064 -12.859 -24.023  0.00  0.00    +0.000 C 
ATOM      6  C   UNL     1      35.565 -17.934 -22.359  0.00  0.00    +0.000 C 
ATOM      7  C   UNL     1      32.926 -12.751 -25.578  0.00  0.00    +0.005 C 
ATOM      8  C   UNL     1      35.172 -15.431 -21.792  0.00  0.00    +0.000 C 
ATOM      9  C   UNL     1      34.305 -14.211 -22.147  0.00  0.00    +0.000 C 
ATOM     10  C   UNL     1      33.322 -15.296 -25.822  0.00  0.00    +0.110 C 
ATOM     11  C   UNL     1      34.219 -17.941 -24.428  0.00  0.00    +0.000 C 
ATOM     12  C   UNL     1      35.036 -18.847 -23.488  0.00  0.00    +0.000 C 
ATOM     13  C   UNL     1      32.482 -14.079 -26.223  0.00  0.00    +0.029 C 
ATOM     14  C   UNL     1      33.590 -11.500 -23.472  0.00  0.00    +0.002 C 
ATOM     15  C   UNL     1      33.260 -17.071 -21.676  0.00  0.00    +0.000 C 
ATOM     16  C   UNL     1      34.197 -12.200 -26.258  0.00  0.00    +0.029 C 
ATOM     17  C   UNL     1      31.655 -13.049 -23.397  0.00  0.00    +0.000 C 
ATOM     18  C   UNL     1      34.861 -11.005 -24.150  0.00  0.00    +0.029 C 
ATOM     19  C   UNL     1      34.655 -10.875 -25.653  0.00  0.00    +0.111 C 
ENDROOT
BRANCH  10  20
ATOM     20  O   UNL     1      34.588 -15.254 -26.472  0.00  0.00    -0.384 OA
ATOM     21  H   UNL     1      34.527 -15.702 -27.330  0.00  0.00    +0.210 HD
ENDBRANCH  10  20
BRANCH  19  22
ATOM     22  O   UNL     1      35.886 -10.478 -26.246  0.00  0.00    -0.384 OA
ATOM     23  H   UNL     1      36.191  -9.654 -25.835  0.00  0.00    +0.210 HD
ENDBRANCH  19  22
BRANCH   6  24
ATOM     24  C   UNL     1      35.719 -18.661 -21.031  0.00  0.00    +0.000 C 
ATOM     25  C   UNL     1      37.150 -19.195 -20.887  0.00  0.00    +0.000 C 
BRANCH  24  26
ATOM     26  C   UNL     1      34.720 -19.827 -20.872  0.00  0.00    +0.010 C 
BRANCH  26  27
ATOM     27  C   UNL     1      35.229 -20.939 -19.955  0.00  0.00    +0.085 C 
BRANCH  27  30
ATOM     28  O   UNL     1      32.969 -21.803 -19.849  0.00  0.00    -0.275 OA
ATOM     29  N   UNL     1      34.510 -22.466 -18.242  0.00  0.00    -0.303 N 
ATOM     30  C   UNL     1      34.099 -21.767 -19.367  0.00  0.00    +0.223 C 
ATOM     31  H   UNL     1      35.443 -22.363 -17.941  0.00  0.00    +0.149 HD
BRANCH  29  32
ATOM     32  C   UNL     1      33.637 -23.338 -17.490  0.00  0.00    +0.115 C 
BRANCH  32  33
ATOM     33  C   UNL     1      33.905 -23.269 -15.998  0.00  0.00    +0.179 C 
BRANCH  33  34
ATOM     34  S   UNL     1      35.534 -23.810 -15.584  0.00  0.00    +0.024 S 
ATOM     35  O   UNL     1      35.535 -23.306 -14.032  0.00  0.00    -0.069 OA
ATOM     36  O   UNL     1      36.496 -23.021 -16.331  0.00  0.00    -0.069 OA
ATOM     37  O   UNL     1      35.563 -25.261 -15.603  0.00  0.00    -0.069 OA
ENDBRANCH  33  34
ENDBRANCH  32  33
ENDBRANCH  29  32
ENDBRANCH  27  30
ENDBRANCH  26  27
ENDBRANCH  24  26
ENDBRANCH   6  24
TORSDOF 9
ENDMDL
MODEL 2
REMARK VINA RESULT:      -8.1      3.457      6.443
REMARK  Name = 387316
REMARK  9 active torsions:
REMARK  status: ('A' for Active; 'I' for Inactive)
REMARK    1  A    between atoms: C_6  and  C_24
REMARK    2  A    between atoms: C_10  and  O_20
REMARK    3  A    between atoms: C_19  and  O_22
REMARK    4  A    between atoms: C_24  and  C_26
REMARK    5  A    between atoms: C_26  and  C_27
REMARK    6  A    between atoms: C_27  and  C_30
REMARK    7  A    between atoms: N_29  and  C_32
REMARK    8  A    between atoms: C_32  and  C_33
REMARK    9  A    between atoms: C_33  and  S_34
REMARK                            x       y       z     vdW  Elec       q    Type
REMARK                         _______ _______ _______ _____ _____    ______ ____
ROOT
ATOM      1  C   UNL     1      35.514 -21.015 -19.128  0.00  0.00    +0.002 C 
ATOM      2  C   UNL     1      34.264 -21.916 -19.053  0.00  0.00    +0.000 C 
ATOM      3  C   UNL     1      35.756 -20.434 -20.530  0.00  0.00    +0.027 C 
ATOM      4  C   UNL     1      34.508 -19.582 -20.939  0.00  0.00    +0.002 C 
ATOM      5  C   UNL     1      34.678 -18.948 -22.373  0.00  0.00    +0.000 C 
ATOM      6  C   UNL     1      34.368 -22.362 -17.574  0.00  0.00    +0.000 C 
ATOM      7  C   UNL     1      35.994 -18.102 -22.411  0.00  0.00    +0.005 C 
ATOM      8  C   UNL     1      33.044 -21.044 -19.377  0.00  0.00    +0.000 C 
ATOM      9  C   UNL     1      33.179 -20.366 -20.751  0.00  0.00    +0.000 C 
ATOM     10  C   UNL     1      37.062 -19.621 -20.610  0.00  0.00    +0.110 C 
ATOM     11  C   UNL     1      36.607 -21.864 -18.486  0.00  0.00    +0.000 C 
ATOM     12  C   UNL     1      35.874 -22.651 -17.383  0.00  0.00    +0.000 C 
ATOM     13  C   UNL     1      37.226 -18.909 -21.956  0.00  0.00    +0.029 C 
ATOM     14  C   UNL     1      33.483 -18.032 -22.770  0.00  0.00    +0.002 C 
ATOM     15  C   UNL     1      34.302 -23.137 -20.007  0.00  0.00    +0.000 C 
ATOM     16  C   UNL     1      35.878 -16.775 -21.630  0.00  0.00    +0.029 C 
ATOM     17  C   UNL     1      34.747 -20.048 -23.466  0.00  0.00    +0.000 C 
ATOM     18  C   UNL     1      33.388 -16.747 -21.958  0.00  0.00    +0.029 C 
ATOM     19  C   UNL     1      34.677 -15.943 -22.068  0.00  0.00    +0.111 C 
ENDROOT
BRANCH  10  20
ATOM     20  O   UNL     1      37.125 -18.678 -19.544  0.00  0.00    -0.384 OA
ATOM     21  H   UNL     1      37.000 -17.783 -19.896  0.00  0.00    +0.210 HD
ENDBRANCH  10  20
BRANCH  19  22
ATOM     22  O   UNL     1      34.564 -14.791 -21.241  0.00  0.00    -0.384 OA
ATOM     23  H   UNL     1      33.840 -14.232 -21.563  0.00  0.00    +0.210 HD
ENDBRANCH  19  22
BRANCH   6  24
ATOM     24  C   UNL     1      33.483 -23.525 -17.148  0.00  0.00    +0.000 C 
ATOM     25  C   UNL     1      32.057 -23.028 -16.878  0.00  0.00    +0.000 C 
BRANCH  24  26
ATOM     26  C   UNL     1      34.016 -24.251 -15.896  0.00  0.00    +0.010 C 
BRANCH  26  27
ATOM     27  C   UNL     1      33.721 -23.509 -14.593  0.00  0.00    +0.085 C 
BRANCH  27  30
ATOM     28  O   UNL     1      34.259 -24.465 -12.435  0.00  0.00    -0.275 OA
ATOM     29  N   UNL     1      35.973 -23.624 -13.759  0.00  0.00    -0.303 N 
ATOM     30  C   UNL     1      34.651 -23.925 -13.466  0.00  0.00    +0.223 C 
ATOM     31  H   UNL     1      36.176 -23.189 -14.619  0.00  0.00    +0.149 HD
BRANCH  29  32
ATOM     32  C   UNL     1      37.068 -23.921 -12.863  0.00  0.00    +0.115 C 
BRANCH  32  33
ATOM     33  C   UNL     1      37.545 -25.355 -12.996  0.00  0.00    +0.179 C 
BRANCH  33  34
ATOM     34  S   UNL     1      38.083 -25.734 -14.634  0.00  0.00    +0.024 S 
ATOM     35  O   UNL     1      38.710 -24.272 -14.994  0.00  0.00    -0.069 OA
ATOM     36  O   UNL     1      36.919 -25.962 -15.470  0.00  0.00    -0.069 OA
ATOM     37  O   UNL     1      39.164 -26.699 -14.558  0.00  0.00    -0.069 OA
ENDBRANCH  33  34
ENDBRANCH  32  33
ENDBRANCH  29  32
ENDBRANCH  27  30
ENDBRANCH  26  27
ENDBRANCH  24  26
ENDBRANCH   6  24
TORSDOF 9
ENDMDL
MODEL 3
REMARK VINA RESULT:      -8.0      3.828     11.939
REMARK  Name = 387316
REMARK  9 active torsions:
REMARK  status: ('A' for Active; 'I' for Inactive)
REMARK    1  A    between atoms: C_6  and  C_24
REMARK    2  A    between atoms: C_10  and  O_20
REMARK    3  A    between atoms: C_19  and  O_22
REMARK    4  A    between atoms: C_24  and  C_26
REMARK    5  A    between atoms: C_26  and  C_27
REMARK    6  A    between atoms: C_27  and  C_30
REMARK    7  A    between atoms: N_29  and  C_32
REMARK    8  A    between atoms: C_32  and  C_33
REMARK    9  A    between atoms: C_33  and  S_34
REMARK                            x       y       z     vdW  Elec       q    Type
REMARK                         _______ _______ _______ _____ _____    ______ ____
ROOT
ATOM      1  C   UNL     1      33.630 -22.714 -16.680  0.00  0.00    +0.002 C 
ATOM      2  C   UNL     1      34.490 -22.577 -17.954  0.00  0.00    +0.000 C 
ATOM      3  C   UNL     1      34.093 -23.853 -15.759  0.00  0.00    +0.027 C 
ATOM      4  C   UNL     1      35.572 -23.576 -15.328  0.00  0.00    +0.002 C 
ATOM      5  C   UNL     1      36.125 -24.706 -14.377  0.00  0.00    +0.000 C 
ATOM      6  C   UNL     1      33.723 -21.424 -18.648  0.00  0.00    +0.000 C 
ATOM      7  C   UNL     1      35.179 -24.847 -13.138  0.00  0.00    +0.005 C 
ATOM      8  C   UNL     1      35.916 -22.225 -17.515  0.00  0.00    +0.000 C 
ATOM      9  C   UNL     1      36.488 -23.277 -16.548  0.00  0.00    +0.000 C 
ATOM     10  C   UNL     1      33.164 -24.039 -14.545  0.00  0.00    +0.110 C 
ATOM     11  C   UNL     1      32.200 -22.734 -17.213  0.00  0.00    +0.000 C 
ATOM     12  C   UNL     1      32.237 -21.788 -18.427  0.00  0.00    +0.000 C 
ATOM     13  C   UNL     1      33.707 -25.063 -13.544  0.00  0.00    +0.029 C 
ATOM     14  C   UNL     1      37.569 -24.413 -13.873  0.00  0.00    +0.002 C 
ATOM     15  C   UNL     1      34.514 -23.845 -18.844  0.00  0.00    +0.000 C 
ATOM     16  C   UNL     1      35.316 -23.676 -12.142  0.00  0.00    +0.029 C 
ATOM     17  C   UNL     1      36.205 -26.070 -15.116  0.00  0.00    +0.000 C 
ATOM     18  C   UNL     1      37.665 -23.234 -12.914  0.00  0.00    +0.029 C 
ATOM     19  C   UNL     1      36.760 -23.446 -11.707  0.00  0.00    +0.111 C 
ENDROOT
BRANCH  10  20
ATOM     20  O   UNL     1      32.937 -22.791 -13.898  0.00  0.00    -0.384 OA
ATOM     21  H   UNL     1      33.572 -22.682 -13.173  0.00  0.00    +0.210 HD
ENDBRANCH  10  20
BRANCH  19  22
ATOM     22  O   UNL     1      36.833 -22.291 -10.878  0.00  0.00    -0.384 OA
ATOM     23  H   UNL     1      35.941 -21.934 -10.744  0.00  0.00    +0.210 HD
ENDBRANCH  19  22
BRANCH   6  24
ATOM     24  C   UNL     1      34.058 -21.166 -20.110  0.00  0.00    +0.000 C 
ATOM     25  C   UNL     1      35.580 -21.099 -20.296  0.00  0.00    +0.000 C 
BRANCH  24  26
ATOM     26  C   UNL     1      33.421 -19.867 -20.647  0.00  0.00    +0.010 C 
BRANCH  26  27
ATOM     27  C   UNL     1      34.088 -19.345 -21.919  0.00  0.00    +0.085 C 
BRANCH  27  30
ATOM     28  O   UNL     1      35.277 -17.595 -20.742  0.00  0.00    -0.275 OA
ATOM     29  N   UNL     1      34.398 -17.149 -22.846  0.00  0.00    -0.303 N 
ATOM     30  C   UNL     1      34.659 -17.948 -21.743  0.00  0.00    +0.223 C 
ATOM     31  H   UNL     1      33.892 -17.536 -23.597  0.00  0.00    +0.149 HD
BRANCH  29  32
ATOM     32  C   UNL     1      34.835 -15.774 -22.947  0.00  0.00    +0.115 C 
BRANCH  32  33
ATOM     33  C   UNL     1      33.671 -14.812 -23.079  0.00  0.00    +0.179 C 
BRANCH  33  34
ATOM     34  S   UNL     1      32.852 -14.533 -21.541  0.00  0.00    +0.024 S 
ATOM     35  O   UNL     1      34.173 -14.581 -20.586  0.00  0.00    -0.069 OA
ATOM     36  O   UNL     1      32.015 -15.679 -21.238  0.00  0.00    -0.069 OA
ATOM     37  O   UNL     1      32.321 -13.181 -21.533  0.00  0.00    -0.069 OA
ENDBRANCH  33  34
ENDBRANCH  32  33
ENDBRANCH  29  32
ENDBRANCH  27  30
ENDBRANCH  26  27
ENDBRANCH  24  26
ENDBRANCH   6  24
TORSDOF 9
ENDMDL
MODEL 4
REMARK VINA RESULT:      -7.9      2.802      4.200
REMARK  Name = 387316
REMARK  9 active torsions:
REMARK  status: ('A' for Active; 'I' for Inactive)
REMARK    1  A    between atoms: C_6  and  C_24
REMARK    2  A    between atoms: C_10  and  O_20
REMARK    3  A    between atoms: C_19  and  O_22
REMARK    4  A    between atoms: C_24  and  C_26
REMARK    5  A    between atoms: C_26  and  C_27
REMARK    6  A    between atoms: C_27  and  C_30
REMARK    7  A    between atoms: N_29  and  C_32
REMARK    8  A    between atoms: C_32  and  C_33
REMARK    9  A    between atoms: C_33  and  S_34
REMARK                            x       y       z     vdW  Elec       q    Type
REMARK                         _______ _______ _______ _____ _____    ______ ____
ROOT
ATOM      1  C   UNL     1      33.762 -13.235 -22.909  0.00  0.00    +0.002 C 
ATOM      2  C   UNL     1      33.438 -14.476 -22.051  0.00  0.00    +0.000 C 
ATOM      3  C   UNL     1      32.648 -12.177 -22.884  0.00  0.00    +0.027 C 
ATOM      4  C   UNL     1      32.434 -11.712 -21.405  0.00  0.00    +0.002 C 
ATOM      5  C   UNL     1      31.301 -10.621 -21.294  0.00  0.00    +0.000 C 
ATOM      6  C   UNL     1      34.698 -15.324 -22.356  0.00  0.00    +0.000 C 
ATOM      7  C   UNL     1      31.647  -9.419 -22.233  0.00  0.00    +0.005 C 
ATOM      8  C   UNL     1      33.313 -14.013 -20.595  0.00  0.00    +0.000 C 
ATOM      9  C   UNL     1      32.247 -12.914 -20.437  0.00  0.00    +0.000 C 
ATOM     10  C   UNL     1      32.944 -10.993 -23.824  0.00  0.00    +0.110 C 
ATOM     11  C   UNL     1      34.184 -13.826 -24.251  0.00  0.00    +0.000 C 
ATOM     12  C   UNL     1      34.909 -15.133 -23.875  0.00  0.00    +0.000 C 
ATOM     13  C   UNL     1      31.918  -9.864 -23.684  0.00  0.00    +0.029 C 
ATOM     14  C   UNL     1      31.123 -10.087 -19.842  0.00  0.00    +0.002 C 
ATOM     15  C   UNL     1      32.148 -15.223 -22.475  0.00  0.00    +0.000 C 
ATOM     16  C   UNL     1      32.802  -8.548 -21.693  0.00  0.00    +0.029 C 
ATOM     17  C   UNL     1      29.920 -11.205 -21.700  0.00  0.00    +0.000 C 
ATOM     18  C   UNL     1      32.295  -9.256 -19.337  0.00  0.00    +0.029 C 
ATOM     19  C   UNL     1      32.558  -8.076 -20.263  0.00  0.00    +0.111 C 
ENDROOT
BRANCH  10  20
ATOM     20  O   UNL     1      34.258 -10.495 -23.595  0.00  0.00    -0.384 OA
ATOM     21  H   UNL     1      34.899 -11.034 -24.084  0.00  0.00    +0.210 HD
ENDBRANCH  10  20
BRANCH  19  22
ATOM     22  O   UNL     1      33.701  -7.373 -19.788  0.00  0.00    -0.384 OA
ATOM     23  H   UNL     1      33.855  -7.599 -18.857  0.00  0.00    +0.210 HD
ENDBRANCH  19  22
BRANCH   6  24
ATOM     24  C   UNL     1      34.650 -16.789 -21.944  0.00  0.00    +0.000 C 
ATOM     25  C   UNL     1      35.283 -16.965 -20.558  0.00  0.00    +0.000 C 
BRANCH  24  26
ATOM     26  C   UNL     1      35.362 -17.714 -22.953  0.00  0.00    +0.010 C 
BRANCH  26  27
ATOM     27  C   UNL     1      34.701 -19.086 -23.088  0.00  0.00    +0.085 C 
BRANCH  27  30
ATOM     28  O   UNL     1      33.188 -19.798 -21.337  0.00  0.00    -0.275 OA
ATOM     29  N   UNL     1      35.473 -20.105 -21.052  0.00  0.00    -0.303 N 
ATOM     30  C   UNL     1      34.343 -19.692 -21.742  0.00  0.00    +0.223 C 
ATOM     31  H   UNL     1      36.354 -19.971 -21.472  0.00  0.00    +0.149 HD
BRANCH  29  32
ATOM     32  C   UNL     1      35.420 -20.725 -19.747  0.00  0.00    +0.115 C 
BRANCH  32  33
ATOM     33  C   UNL     1      35.305 -22.235 -19.835  0.00  0.00    +0.179 C 
BRANCH  33  34
ATOM     34  S   UNL     1      33.993 -22.867 -18.837  0.00  0.00    +0.024 S 
ATOM     35  O   UNL     1      33.856 -24.321 -19.564  0.00  0.00    -0.069 OA
ATOM     36  O   UNL     1      32.790 -22.099 -19.100  0.00  0.00    -0.069 OA
ATOM     37  O   UNL     1      34.488 -23.065 -17.487  0.00  0.00    -0.069 OA
ENDBRANCH  33  34
ENDBRANCH  32  33
ENDBRANCH  29  32
ENDBRANCH  27  30
ENDBRANCH  26  27
ENDBRANCH  24  26
ENDBRANCH   6  24
TORSDOF 9
ENDMDL
MODEL 5
REMARK VINA RESULT:      -7.9      3.957      6.679
REMARK  Name = 387316
REMARK  9 active torsions:
REMARK  status: ('A' for Active; 'I' for Inactive)
REMARK    1  A    between atoms: C_6  and  C_24
REMARK    2  A    between atoms: C_10  and  O_20
REMARK    3  A    between atoms: C_19  and  O_22
REMARK    4  A    between atoms: C_24  and  C_26
REMARK    5  A    between atoms: C_26  and  C_27
REMARK    6  A    between atoms: C_27  and  C_30
REMARK    7  A    between atoms: N_29  and  C_32
REMARK    8  A    between atoms: C_32  and  C_33
REMARK    9  A    between atoms: C_33  and  S_34
REMARK                            x       y       z     vdW  Elec       q    Type
REMARK                         _______ _______ _______ _____ _____    ______ ____
ROOT
ATOM      1  C   UNL     1      32.495 -11.095 -23.206  0.00  0.00    +0.002 C 
ATOM      2  C   UNL     1      33.463 -11.787 -24.188  0.00  0.00    +0.000 C 
ATOM      3  C   UNL     1      33.012  -9.737 -22.706  0.00  0.00    +0.027 C 
ATOM      4  C   UNL     1      33.217  -8.797 -23.941  0.00  0.00    +0.002 C 
ATOM      5  C   UNL     1      33.748  -7.376 -23.510  0.00  0.00    +0.000 C 
ATOM      6  C   UNL     1      32.683 -13.105 -24.419  0.00  0.00    +0.000 C 
ATOM      7  C   UNL     1      32.765  -6.751 -22.466  0.00  0.00    +0.005 C 
ATOM      8  C   UNL     1      33.588 -10.889 -25.426  0.00  0.00    +0.000 C 
ATOM      9  C   UNL     1      34.063  -9.474 -25.055  0.00  0.00    +0.000 C 
ATOM     10  C   UNL     1      32.081  -9.110 -21.651  0.00  0.00    +0.110 C 
ATOM     11  C   UNL     1      32.182 -12.184 -22.184  0.00  0.00    +0.000 C 
ATOM     12  C   UNL     1      32.181 -13.485 -23.008  0.00  0.00    +0.000 C 
ATOM     13  C   UNL     1      32.505  -7.688 -21.269  0.00  0.00    +0.029 C 
ATOM     14  C   UNL     1      33.887  -6.397 -24.714  0.00  0.00    +0.002 C 
ATOM     15  C   UNL     1      34.870 -12.069 -23.602  0.00  0.00    +0.000 C 
ATOM     16  C   UNL     1      31.440  -6.274 -23.097  0.00  0.00    +0.029 C 
ATOM     17  C   UNL     1      35.165  -7.475 -22.882  0.00  0.00    +0.000 C 
ATOM     18  C   UNL     1      32.559  -5.972 -25.326  0.00  0.00    +0.029 C 
ATOM     19  C   UNL     1      31.662  -5.331 -24.276  0.00  0.00    +0.111 C 
ENDROOT
BRANCH  10  20
ATOM     20  O   UNL     1      30.734  -9.113 -22.113  0.00  0.00    -0.384 OA
ATOM     21  H   UNL     1      30.716  -8.923 -23.064  0.00  0.00    +0.210 HD
ENDBRANCH  10  20
BRANCH  19  22
ATOM     22  O   UNL     1      30.412  -5.016 -24.879  0.00  0.00    -0.384 OA
ATOM     23  H   UNL     1      30.493  -5.084 -25.844  0.00  0.00    +0.210 HD
ENDBRANCH  19  22
BRANCH   6  24
ATOM     24  C   UNL     1      33.439 -14.234 -25.104  0.00  0.00    +0.000 C 
ATOM     25  C   UNL     1      32.628 -14.764 -26.293  0.00  0.00    +0.000 C 
BRANCH  24  26
ATOM     26  C   UNL     1      33.763 -15.400 -24.147  0.00  0.00    +0.010 C 
BRANCH  26  27
ATOM     27  C   UNL     1      34.918 -16.278 -24.629  0.00  0.00    +0.085 C 
BRANCH  27  30
ATOM     28  O   UNL     1      34.443 -18.485 -25.503  0.00  0.00    -0.275 OA
ATOM     29  N   UNL     1      34.528 -18.173 -23.202  0.00  0.00    -0.303 N 
ATOM     30  C   UNL     1      34.602 -17.760 -24.524  0.00  0.00    +0.223 C 
ATOM     31  H   UNL     1      34.674 -17.504 -22.493  0.00  0.00    +0.149 HD
BRANCH  29  32
ATOM     32  C   UNL     1      34.250 -19.537 -22.814  0.00  0.00    +0.115 C 
BRANCH  32  33
ATOM     33  C   UNL     1      34.997 -19.939 -21.557  0.00  0.00    +0.179 C 
BRANCH  33  34
ATOM     34  S   UNL     1      36.178 -18.725 -21.061  0.00  0.00    +0.024 S 
ATOM     35  O   UNL     1      36.860 -19.576 -19.848  0.00  0.00    -0.069 OA
ATOM     36  O   UNL     1      35.475 -17.588 -20.495  0.00  0.00    -0.069 OA
ATOM     37  O   UNL     1      37.155 -18.563 -22.123  0.00  0.00    -0.069 OA
ENDBRANCH  33  34
ENDBRANCH  32  33
ENDBRANCH  29  32
ENDBRANCH  27  30
ENDBRANCH  26  27
ENDBRANCH  24  26
ENDBRANCH   6  24
TORSDOF 9
ENDMDL
MODEL 6
REMARK VINA RESULT:      -7.7      3.666     12.098
REMARK  Name = 387316
REMARK  9 active torsions:
REMARK  status: ('A' for Active; 'I' for Inactive)
REMARK    1  A    between atoms: C_6  and  C_24
REMARK    2  A    between atoms: C_10  and  O_20
REMARK    3  A    between atoms: C_19  and  O_22
REMARK    4  A    between atoms: C_24  and  C_26
REMARK    5  A    between atoms: C_26  and  C_27
REMARK    6  A    between atoms: C_27  and  C_30
REMARK    7  A    between atoms: N_29  and  C_32
REMARK    8  A    between atoms: C_32  and  C_33
REMARK    9  A    between atoms: C_33  and  S_34
REMARK                            x       y       z     vdW  Elec       q    Type
REMARK                         _______ _______ _______ _____ _____    ______ ____
ROOT
ATOM      1  C   UNL     1      33.895 -22.536 -16.953  0.00  0.00    +0.002 C 
ATOM      2  C   UNL     1      34.823 -22.366 -18.174  0.00  0.00    +0.000 C 
ATOM      3  C   UNL     1      34.307 -23.703 -16.041  0.00  0.00    +0.027 C 
ATOM      4  C   UNL     1      35.761 -23.442 -15.523  0.00  0.00    +0.002 C 
ATOM      5  C   UNL     1      36.259 -24.599 -14.575  0.00  0.00    +0.000 C 
ATOM      6  C   UNL     1      34.096 -21.192 -18.876  0.00  0.00    +0.000 C 
ATOM      7  C   UNL     1      35.248 -24.772 -13.394  0.00  0.00    +0.005 C 
ATOM      8  C   UNL     1      36.224 -22.031 -17.648  0.00  0.00    +0.000 C 
ATOM      9  C   UNL     1      36.742 -23.111 -16.682  0.00  0.00    +0.000 C 
ATOM     10  C   UNL     1      33.313 -23.920 -14.884  0.00  0.00    +0.110 C 
ATOM     11  C   UNL     1      32.496 -22.538 -17.562  0.00  0.00    +0.000 C 
ATOM     12  C   UNL     1      32.600 -21.558 -18.746  0.00  0.00    +0.000 C 
ATOM     13  C   UNL     1      33.800 -24.973 -13.884  0.00  0.00    +0.029 C 
ATOM     14  C   UNL     1      37.674 -24.324 -13.985  0.00  0.00    +0.002 C 
ATOM     15  C   UNL     1      34.894 -23.609 -19.097  0.00  0.00    +0.000 C 
ATOM     16  C   UNL     1      35.332 -23.631 -12.359  0.00  0.00    +0.029 C 
ATOM     17  C   UNL     1      36.378 -25.942 -15.347  0.00  0.00    +0.000 C 
ATOM     18  C   UNL     1      37.720 -23.173 -12.989  0.00  0.00    +0.029 C 
ATOM     19  C   UNL     1      36.751 -23.416 -11.840  0.00  0.00    +0.111 C 
ENDROOT
BRANCH  10  20
ATOM     20  O   UNL     1      33.053 -22.690 -14.215  0.00  0.00    -0.384 OA
ATOM     21  H   UNL     1      32.166 -22.716 -13.822  0.00  0.00    +0.210 HD
ENDBRANCH  10  20
BRANCH  19  22
ATOM     22  O   UNL     1      36.780 -22.286 -10.976  0.00  0.00    -0.384 OA
ATOM     23  H   UNL     1      36.952 -21.486 -11.498  0.00  0.00    +0.210 HD
ENDBRANCH  19  22
BRANCH   6  24
ATOM     24  C   UNL     1      34.510 -20.893 -20.309  0.00  0.00    +0.000 C 
ATOM     25  C   UNL     1      36.002 -20.541 -20.362  0.00  0.00    +0.000 C 
BRANCH  24  26
ATOM     26  C   UNL     1      33.692 -19.747 -20.939  0.00  0.00    +0.010 C 
BRANCH  26  27
ATOM     27  C   UNL     1      34.309 -19.198 -22.225  0.00  0.00    +0.085 C 
BRANCH  27  30
ATOM     28  O   UNL     1      35.082 -17.185 -21.125  0.00  0.00    -0.275 OA
ATOM     29  N   UNL     1      34.317 -17.055 -23.315  0.00  0.00    -0.303 N 
ATOM     30  C   UNL     1      34.618 -17.713 -22.132  0.00  0.00    +0.223 C 
ATOM     31  H   UNL     1      33.948 -17.579 -24.063  0.00  0.00    +0.149 HD
BRANCH  29  32
ATOM     32  C   UNL     1      34.522 -15.636 -23.504  0.00  0.00    +0.115 C 
BRANCH  32  33
ATOM     33  C   UNL     1      33.493 -15.029 -24.439  0.00  0.00    +0.179 C 
BRANCH  33  34
ATOM     34  S   UNL     1      33.599 -15.689 -26.073  0.00  0.00    +0.024 S 
ATOM     35  O   UNL     1      35.076 -16.368 -25.931  0.00  0.00    -0.069 OA
ATOM     36  O   UNL     1      33.679 -14.592 -27.019  0.00  0.00    -0.069 OA
ATOM     37  O   UNL     1      32.612 -16.745 -26.215  0.00  0.00    -0.069 OA
ENDBRANCH  33  34
ENDBRANCH  32  33
ENDBRANCH  29  32
ENDBRANCH  27  30
ENDBRANCH  26  27
ENDBRANCH  24  26
ENDBRANCH   6  24
TORSDOF 9
ENDMDL
MODEL 7
REMARK VINA RESULT:      -7.4      3.513      6.544
REMARK  Name = 387316
REMARK  9 active torsions:
REMARK  status: ('A' for Active; 'I' for Inactive)
REMARK    1  A    between atoms: C_6  and  C_24
REMARK    2  A    between atoms: C_10  and  O_20
REMARK    3  A    between atoms: C_19  and  O_22
REMARK    4  A    between atoms: C_24  and  C_26
REMARK    5  A    between atoms: C_26  and  C_27
REMARK    6  A    between atoms: C_27  and  C_30
REMARK    7  A    between atoms: N_29  and  C_32
REMARK    8  A    between atoms: C_32  and  C_33
REMARK    9  A    between atoms: C_33  and  S_34
REMARK                            x       y       z     vdW  Elec       q    Type
REMARK                         _______ _______ _______ _____ _____    ______ ____
ROOT
ATOM      1  C   UNL     1      35.706 -20.953 -19.127  0.00  0.00    +0.002 C 
ATOM      2  C   UNL     1      34.484 -21.879 -18.954  0.00  0.00    +0.000 C 
ATOM      3  C   UNL     1      35.849 -20.405 -20.556  0.00  0.00    +0.027 C 
ATOM      4  C   UNL     1      34.559 -19.591 -20.910  0.00  0.00    +0.002 C 
ATOM      5  C   UNL     1      34.628 -18.993 -22.367  0.00  0.00    +0.000 C 
ATOM      6  C   UNL     1      34.687 -22.283 -17.473  0.00  0.00    +0.000 C 
ATOM      7  C   UNL     1      35.918 -18.119 -22.506  0.00  0.00    +0.005 C 
ATOM      8  C   UNL     1      33.227 -21.043 -19.225  0.00  0.00    +0.000 C 
ATOM      9  C   UNL     1      33.263 -20.399 -20.622  0.00  0.00    +0.000 C 
ATOM     10  C   UNL     1      37.128 -19.565 -20.735  0.00  0.00    +0.110 C 
ATOM     11  C   UNL     1      36.855 -21.760 -18.531  0.00  0.00    +0.000 C 
ATOM     12  C   UNL     1      36.209 -22.533 -17.367  0.00  0.00    +0.000 C 
ATOM     13  C   UNL     1      37.194 -18.886 -22.107  0.00  0.00    +0.029 C 
ATOM     14  C   UNL     1      33.389 -18.114 -22.713  0.00  0.00    +0.002 C 
ATOM     15  C   UNL     1      34.493 -23.124 -19.877  0.00  0.00    +0.000 C 
ATOM     16  C   UNL     1      35.819 -16.775 -21.754  0.00  0.00    +0.029 C 
ATOM     17  C   UNL     1      34.657 -20.120 -23.434  0.00  0.00    +0.000 C 
ATOM     18  C   UNL     1      33.313 -16.810 -21.930  0.00  0.00    +0.029 C 
ATOM     19  C   UNL     1      34.573 -15.981 -22.139  0.00  0.00    +0.111 C 
ENDROOT
BRANCH  10  20
ATOM     20  O   UNL     1      37.233 -18.593 -19.700  0.00  0.00    -0.384 OA
ATOM     21  H   UNL     1      37.612 -17.776 -20.059  0.00  0.00    +0.210 HD
ENDBRANCH  10  20
BRANCH  19  22
ATOM     22  O   UNL     1      34.484 -14.810 -21.335  0.00  0.00    -0.384 OA
ATOM     23  H   UNL     1      34.284 -14.046 -21.899  0.00  0.00    +0.210 HD
ENDBRANCH  19  22
BRANCH   6  24
ATOM     24  C   UNL     1      33.857 -23.454 -16.965  0.00  0.00    +0.000 C 
ATOM     25  C   UNL     1      32.376 -23.060 -16.905  0.00  0.00    +0.000 C 
BRANCH  24  26
ATOM     26  C   UNL     1      34.311 -23.947 -15.576  0.00  0.00    +0.010 C 
BRANCH  26  27
ATOM     27  C   UNL     1      34.831 -25.385 -15.583  0.00  0.00    +0.085 C 
BRANCH  27  30
ATOM     28  O   UNL     1      37.251 -25.396 -15.497  0.00  0.00    -0.275 OA
ATOM     29  N   UNL     1      36.047 -25.775 -13.546  0.00  0.00    -0.303 N 
ATOM     30  C   UNL     1      36.183 -25.515 -14.902  0.00  0.00    +0.223 C 
ATOM     31  H   UNL     1      35.139 -25.851 -13.172  0.00  0.00    +0.149 HD
BRANCH  29  32
ATOM     32  C   UNL     1      37.174 -25.937 -12.656  0.00  0.00    +0.115 C 
BRANCH  32  33
ATOM     33  C   UNL     1      37.693 -24.608 -12.142  0.00  0.00    +0.179 C 
BRANCH  33  34
ATOM     34  S   UNL     1      36.450 -23.685 -11.293  0.00  0.00    +0.024 S 
ATOM     35  O   UNL     1      37.306 -22.310 -11.096  0.00  0.00    -0.069 OA
ATOM     36  O   UNL     1      36.226 -24.285  -9.991  0.00  0.00    -0.069 OA
ATOM     37  O   UNL     1      35.354 -23.425 -12.209  0.00  0.00    -0.069 OA
ENDBRANCH  33  34
ENDBRANCH  32  33
ENDBRANCH  29  32
ENDBRANCH  27  30
ENDBRANCH  26  27
ENDBRANCH  24  26
ENDBRANCH   6  24
TORSDOF 9
ENDMDL
MODEL 8
REMARK VINA RESULT:      -7.0      3.544      6.066
REMARK  Name = 387316
REMARK  9 active torsions:
REMARK  status: ('A' for Active; 'I' for Inactive)
REMARK    1  A    between atoms: C_6  and  C_24
REMARK    2  A    between atoms: C_10  and  O_20
REMARK    3  A    between atoms: C_19  and  O_22
REMARK    4  A    between atoms: C_24  and  C_26
REMARK    5  A    between atoms: C_26  and  C_27
REMARK    6  A    between atoms: C_27  and  C_30
REMARK    7  A    between atoms: N_29  and  C_32
REMARK    8  A    between atoms: C_32  and  C_33
REMARK    9  A    between atoms: C_33  and  S_34
REMARK                            x       y       z     vdW  Elec       q    Type
REMARK                         _______ _______ _______ _____ _____    ______ ____
ROOT
ATOM      1  C   UNL     1      32.443 -11.496 -22.946  0.00  0.00    +0.002 C 
ATOM      2  C   UNL     1      33.470 -12.167 -23.882  0.00  0.00    +0.000 C 
ATOM      3  C   UNL     1      32.903 -10.121 -22.436  0.00  0.00    +0.027 C 
ATOM      4  C   UNL     1      33.134  -9.183 -23.668  0.00  0.00    +0.002 C 
ATOM      5  C   UNL     1      33.609  -7.746 -23.227  0.00  0.00    +0.000 C 
ATOM      6  C   UNL     1      32.735 -13.507 -24.135  0.00  0.00    +0.000 C 
ATOM      7  C   UNL     1      32.567  -7.141 -22.229  0.00  0.00    +0.005 C 
ATOM      8  C   UNL     1      33.621 -11.275 -25.120  0.00  0.00    +0.000 C 
ATOM      9  C   UNL     1      34.043  -9.845 -24.741  0.00  0.00    +0.000 C 
ATOM     10  C   UNL     1      31.912  -9.511 -21.425  0.00  0.00    +0.110 C 
ATOM     11  C   UNL     1      32.118 -12.585 -21.929  0.00  0.00    +0.000 C 
ATOM     12  C   UNL     1      32.185 -13.892 -22.742  0.00  0.00    +0.000 C 
ATOM     13  C   UNL     1      32.283  -8.076 -21.037  0.00  0.00    +0.029 C 
ATOM     14  C   UNL     1      33.771  -6.772 -24.431  0.00  0.00    +0.002 C 
ATOM     15  C   UNL     1      34.858 -12.407 -23.237  0.00  0.00    +0.000 C 
ATOM     16  C   UNL     1      31.257  -6.704 -22.918  0.00  0.00    +0.029 C 
ATOM     17  C   UNL     1      35.001  -7.802 -22.541  0.00  0.00    +0.000 C 
ATOM     18  C   UNL     1      32.459  -6.387 -25.101  0.00  0.00    +0.029 C 
ATOM     19  C   UNL     1      31.502  -5.763 -24.094  0.00  0.00    +0.111 C 
ENDROOT
BRANCH  10  20
ATOM     20  O   UNL     1      30.586  -9.554 -21.942  0.00  0.00    -0.384 OA
ATOM     21  H   UNL     1      30.617  -9.678 -22.903  0.00  0.00    +0.210 HD
ENDBRANCH  10  20
BRANCH  19  22
ATOM     22  O   UNL     1      30.271  -5.485 -24.751  0.00  0.00    -0.384 OA
ATOM     23  H   UNL     1      29.803  -6.318 -24.924  0.00  0.00    +0.210 HD
ENDBRANCH  19  22
BRANCH   6  24
ATOM     24  C   UNL     1      33.548 -14.621 -24.779  0.00  0.00    +0.000 C 
ATOM     25  C   UNL     1      32.910 -15.034 -26.111  0.00  0.00    +0.000 C 
BRANCH  24  26
ATOM     26  C   UNL     1      33.684 -15.861 -23.871  0.00  0.00    +0.010 C 
BRANCH  26  27
ATOM     27  C   UNL     1      35.073 -16.008 -23.250  0.00  0.00    +0.085 C 
BRANCH  27  30
ATOM     28  O   UNL     1      35.121 -16.319 -20.849  0.00  0.00    -0.275 OA
ATOM     29  N   UNL     1      34.936 -18.180 -22.229  0.00  0.00    -0.303 N 
ATOM     30  C   UNL     1      35.051 -16.823 -21.968  0.00  0.00    +0.223 C 
ATOM     31  H   UNL     1      34.887 -18.475 -23.167  0.00  0.00    +0.149 HD
BRANCH  29  32
ATOM     32  C   UNL     1      34.883 -19.183 -21.189  0.00  0.00    +0.115 C 
BRANCH  32  33
ATOM     33  C   UNL     1      33.547 -19.900 -21.153  0.00  0.00    +0.179 C 
BRANCH  33  34
ATOM     34  S   UNL     1      33.472 -21.117 -19.877  0.00  0.00    +0.024 S 
ATOM     35  O   UNL     1      32.184 -20.511 -19.081  0.00  0.00    -0.069 OA
ATOM     36  O   UNL     1      34.646 -20.987 -19.034  0.00  0.00    -0.069 OA
ATOM     37  O   UNL     1      33.098 -22.390 -20.468  0.00  0.00    -0.069 OA
ENDBRANCH  33  34
ENDBRANCH  32  33
ENDBRANCH  29  32
ENDBRANCH  27  30
ENDBRANCH  26  27
ENDBRANCH  24  26
ENDBRANCH   6  24
TORSDOF 9
ENDMDL
MODEL 9
REMARK VINA RESULT:      -6.4      6.795     10.641
REMARK  Name = 387316
REMARK  9 active torsions:
REMARK  status: ('A' for Active; 'I' for Inactive)
REMARK    1  A    between atoms: C_6  and  C_24
REMARK    2  A    between atoms: C_10  and  O_20
REMARK    3  A    between atoms: C_19  and  O_22
REMARK    4  A    between atoms: C_24  and  C_26
REMARK    5  A    between atoms: C_26  and  C_27
REMARK    6  A    between atoms: C_27  and  C_30
REMARK    7  A    between atoms: N_29  and  C_32
REMARK    8  A    between atoms: C_32  and  C_33
REMARK    9  A    between atoms: C_33  and  S_34
REMARK                            x       y       z     vdW  Elec       q    Type
REMARK                         _______ _______ _______ _____ _____    ______ ____
ROOT
ATOM      1  C   UNL     1      31.691  -5.424 -24.066  0.00  0.00    +0.002 C 
ATOM      2  C   UNL     1      32.616  -6.659 -24.086  0.00  0.00    +0.000 C 
ATOM      3  C   UNL     1      32.297  -4.205 -24.781  0.00  0.00    +0.027 C 
ATOM      4  C   UNL     1      32.576  -4.589 -26.273  0.00  0.00    +0.002 C 
ATOM      5  C   UNL     1      33.202  -3.387 -27.078  0.00  0.00    +0.000 C 
ATOM      6  C   UNL     1      31.748  -7.632 -23.251  0.00  0.00    +0.000 C 
ATOM      7  C   UNL     1      32.257  -2.145 -26.969  0.00  0.00    +0.005 C 
ATOM      8  C   UNL     1      32.811  -7.069 -25.551  0.00  0.00    +0.000 C 
ATOM      9  C   UNL     1      33.381  -5.914 -26.393  0.00  0.00    +0.000 C 
ATOM     10  C   UNL     1      31.405  -2.955 -24.664  0.00  0.00    +0.110 C 
ATOM     11  C   UNL     1      31.297  -5.294 -22.598  0.00  0.00    +0.000 C 
ATOM     12  C   UNL     1      31.211  -6.749 -22.101  0.00  0.00    +0.000 C 
ATOM     13  C   UNL     1      31.924  -1.786 -25.507  0.00  0.00    +0.029 C 
ATOM     14  C   UNL     1      33.416  -3.721 -28.584  0.00  0.00    +0.002 C 
ATOM     15  C   UNL     1      33.996  -6.431 -23.418  0.00  0.00    +0.000 C 
ATOM     16  C   UNL     1      30.973  -2.290 -27.812  0.00  0.00    +0.029 C 
ATOM     17  C   UNL     1      34.604  -3.013 -26.526  0.00  0.00    +0.000 C 
ATOM     18  C   UNL     1      32.125  -3.883 -29.375  0.00  0.00    +0.029 C 
ATOM     19  C   UNL     1      31.268  -2.629 -29.271  0.00  0.00    +0.111 C 
ENDROOT
BRANCH  10  20
ATOM     20  O   UNL     1      30.064  -3.266 -25.029  0.00  0.00    -0.384 OA
ATOM     21  H   UNL     1      29.839  -2.811 -25.855  0.00  0.00    +0.210 HD
ENDBRANCH  10  20
BRANCH  19  22
ATOM     22  O   UNL     1      30.047  -2.856 -29.966  0.00  0.00    -0.384 OA
ATOM     23  H   UNL     1      29.675  -2.006 -30.250  0.00  0.00    +0.210 HD
ENDBRANCH  19  22
BRANCH   6  24
ATOM     24  C   UNL     1      32.429  -8.900 -22.755  0.00  0.00    +0.000 C 
ATOM     25  C   UNL     1      32.852  -9.768 -23.947  0.00  0.00    +0.000 C 
BRANCH  24  26
ATOM     26  C   UNL     1      31.531  -9.729 -21.813  0.00  0.00    +0.010 C 
BRANCH  26  27
ATOM     27  C   UNL     1      31.496 -11.216 -22.163  0.00  0.00    +0.085 C 
BRANCH  27  30
ATOM     28  O   UNL     1      31.677 -11.731 -19.804  0.00  0.00    -0.275 OA
ATOM     29  N   UNL     1      32.259 -13.352 -21.365  0.00  0.00    -0.303 N 
ATOM     30  C   UNL     1      31.813 -12.100 -20.969  0.00  0.00    +0.223 C 
ATOM     31  H   UNL     1      32.329 -13.541 -22.329  0.00  0.00    +0.149 HD
BRANCH  29  32
ATOM     32  C   UNL     1      32.623 -14.393 -20.431  0.00  0.00    +0.115 C 
BRANCH  32  33
ATOM     33  C   UNL     1      32.788 -15.739 -21.110  0.00  0.00    +0.179 C 
BRANCH  33  34
ATOM     34  S   UNL     1      34.466 -16.068 -21.549  0.00  0.00    +0.024 S 
ATOM     35  O   UNL     1      34.205 -17.466 -22.349  0.00  0.00    -0.069 OA
ATOM     36  O   UNL     1      35.220 -16.354 -20.343  0.00  0.00    -0.069 OA
ATOM     37  O   UNL     1      34.905 -15.062 -22.500  0.00  0.00    -0.069 OA
ENDBRANCH  33  34
ENDBRANCH  32  33
ENDBRANCH  29  32
ENDBRANCH  27  30
ENDBRANCH  26  27
ENDBRANCH  24  26
ENDBRANCH   6  24
TORSDOF 9
ENDMDL
