MODEL 1
REMARK VINA RESULT:     -10.6      0.000      0.000
REMARK  Name = 445506
REMARK  15 active torsions:
REMARK  status: ('A' for Active; 'I' for Inactive)
REMARK    1  A    between atoms: C_1  and  S_22
REMARK    2  A    between atoms: C_6  and  C_9
REMARK    3  A    between atoms: N_8  and  CA_11
REMARK    4  A    between atoms: CA_11  and  C_13
REMARK    5  A    between atoms: CA_11  and  CB_16
REMARK    6  A    between atoms: C_13  and  O_14
REMARK    7  A    between atoms: CB_16  and  CG_17
REMARK    8  A    between atoms: CG_17  and  CD_19
REMARK    9  A    between atoms: CD_19  and  OE1_20
REMARK   10  A    between atoms: S_22  and  N_25
REMARK   11  A    between atoms: C_26  and  C_32
REMARK   12  A    between atoms: N_31  and  C_34
REMARK   13  A    between atoms: C_34  and  C_35
REMARK   14  A    between atoms: C_35  and  C_37
REMARK   15  A    between atoms: C_37  and  O_38
REMARK                            x       y       z     vdW  Elec       q    Type
REMARK                         _______ _______ _______ _____ _____    ______ ____
ROOT
ATOM      1  C   UNL     1      34.643 -19.994 -20.994  0.00  0.00    +0.122 C 
ATOM      2  C   UNL     1      35.512 -20.724 -20.183  0.00  0.00    +0.020 C 
ATOM      3  C   UNL     1      33.263 -20.136 -20.844  0.00  0.00    +0.020 C 
ATOM      4  C   UNL     1      35.002 -21.594 -19.221  0.00  0.00    +0.006 C 
ATOM      5  C   UNL     1      32.753 -21.007 -19.881  0.00  0.00    +0.006 C 
ATOM      6  C   UNL     1      33.623 -21.737 -19.069  0.00  0.00    +0.053 C 
ENDROOT
BRANCH   6   9
ATOM      7  O   UNL     1      33.757 -23.622 -17.682  0.00  0.00    -0.270 OA
ATOM      8  N   UNL     1      31.823 -22.350 -17.552  0.00  0.00    -0.293 N 
ATOM      9  C   ACE A   0      33.091 -22.645 -18.066  0.00  0.00    +0.246 C 
ATOM     10  H   UNL     1      31.350 -21.561 -17.902  0.00  0.00    +0.150 HD
BRANCH   8  11
ATOM     11  CA  UNL     1      31.169 -23.143 -16.535  0.00  0.00    +0.172 C 
BRANCH  11  13
ATOM     12  OXT UNL     1      29.115 -21.910 -16.974  0.00  0.00    -0.248 OA
ATOM     13  C   UNL     1      29.675 -22.964 -16.706  0.00  0.00    +0.332 C 
BRANCH  13  14
ATOM     14  O   UNL     1      29.005 -24.139 -16.565  0.00  0.00    -0.479 OA
ATOM     15  H   UNL     1      28.984 -24.755 -17.271  0.00  0.00    +0.295 HD
ENDBRANCH  13  14
ENDBRANCH  11  13
BRANCH  11  16
ATOM     16  CB  UNL     1      31.673 -22.824 -15.122  0.00  0.00    +0.043 C 
BRANCH  16  17
ATOM     17  CG  UNL     1      32.115 -24.030 -14.282  0.00  0.00    +0.112 C 
BRANCH  17  19
ATOM     18  OE2 UNL     1      30.496 -25.814 -14.636  0.00  0.00    -0.250 OA
ATOM     19  CD  UNL     1      30.983 -24.961 -13.907  0.00  0.00    +0.314 C 
BRANCH  19  20
ATOM     20  OE1 UNL     1      30.527 -24.713 -12.652  0.00  0.00    -0.480 OA
ATOM     21  HE1 UNL     1      31.118 -24.415 -11.989  0.00  0.00    +0.295 HD
ENDBRANCH  19  20
ENDBRANCH  17  19
ENDBRANCH  16  17
ENDBRANCH  11  16
ENDBRANCH   8  11
ENDBRANCH   6   9
BRANCH   1  22
ATOM     22  S   UNL     1      35.290 -18.891 -22.215  0.00  0.00    +0.064 S 
ATOM     23  O   UNL     1      36.663 -18.594 -21.849  0.00  0.00    -0.153 OA
ATOM     24  O   UNL     1      34.979 -19.446 -23.518  0.00  0.00    -0.153 OA
BRANCH  22  25
ATOM     25  N   UNL     1      34.320 -17.521 -21.938  0.00  0.00    -0.148 NA
ATOM     26  C   UNL     1      34.990 -16.194 -21.856  0.00  0.00    +0.155 C 
ATOM     27  C   UNL     1      34.332 -15.470 -20.687  0.00  0.00    +0.029 C 
ATOM     28  C   UNL     1      32.983 -16.154 -20.542  0.00  0.00    +0.021 C 
ATOM     29  C   UNL     1      33.309 -17.606 -20.849  0.00  0.00    +0.096 C 
BRANCH  26  32
ATOM     30  O   UNL     1      34.923 -16.102 -24.234  0.00  0.00    -0.274 OA
ATOM     31  N   UNL     1      34.224 -14.249 -23.011  0.00  0.00    -0.303 N 
ATOM     32  C   UNL     1      34.711 -15.536 -23.165  0.00  0.00    +0.239 C 
ATOM     33  H   UNL     1      34.095 -13.903 -22.099  0.00  0.00    +0.149 HD
BRANCH  31  34
ATOM     34  C   UNL     1      33.896 -13.390 -24.126  0.00  0.00    +0.101 C 
BRANCH  34  35
ATOM     35  C   UNL     1      32.729 -13.932 -24.942  0.00  0.00    +0.131 C 
BRANCH  35  37
ATOM     36  O   UNL     1      33.060 -13.278 -27.266  0.00  0.00    -0.250 OA
ATOM     37  C   UNL     1      33.075 -14.141 -26.400  0.00  0.00    +0.316 C 
BRANCH  37  38
ATOM     38  O   UNL     1      33.421 -15.432 -26.646  0.00  0.00    -0.480 OA
ATOM     39  H   UNL     1      32.944 -16.130 -26.243  0.00  0.00    +0.295 HD
ENDBRANCH  37  38
ENDBRANCH  35  37
ENDBRANCH  34  35
ENDBRANCH  31  34
ENDBRANCH  26  32
ENDBRANCH  22  25
ENDBRANCH   1  22
TORSDOF 15
ENDMDL
MODEL 2
REMARK VINA RESULT:     -10.6      1.344      1.833
REMARK  Name = 445506
REMARK  15 active torsions:
REMARK  status: ('A' for Active; 'I' for Inactive)
REMARK    1  A    between atoms: C_1  and  S_22
REMARK    2  A    between atoms: C_6  and  C_9
REMARK    3  A    between atoms: N_8  and  CA_11
REMARK    4  A    between atoms: CA_11  and  C_13
REMARK    5  A    between atoms: CA_11  and  CB_16
REMARK    6  A    between atoms: C_13  and  O_14
REMARK    7  A    between atoms: CB_16  and  CG_17
REMARK    8  A    between atoms: CG_17  and  CD_19
REMARK    9  A    between atoms: CD_19  and  OE1_20
REMARK   10  A    between atoms: S_22  and  N_25
REMARK   11  A    between atoms: C_26  and  C_32
REMARK   12  A    between atoms: N_31  and  C_34
REMARK   13  A    between atoms: C_34  and  C_35
REMARK   14  A    between atoms: C_35  and  C_37
REMARK   15  A    between atoms: C_37  and  O_38
REMARK                            x       y       z     vdW  Elec       q    Type
REMARK                         _______ _______ _______ _____ _____    ______ ____
ROOT
ATOM      1  C   UNL     1      34.583 -19.742 -21.290  0.00  0.00    +0.122 C 
ATOM      2  C   UNL     1      33.224 -19.967 -21.064  0.00  0.00    +0.020 C 
ATOM      3  C   UNL     1      35.538 -20.428 -20.541  0.00  0.00    +0.020 C 
ATOM      4  C   UNL     1      32.823 -20.880 -20.090  0.00  0.00    +0.006 C 
ATOM      5  C   UNL     1      35.136 -21.341 -19.566  0.00  0.00    +0.006 C 
ATOM      6  C   UNL     1      33.777 -21.567 -19.341  0.00  0.00    +0.053 C 
ENDROOT
BRANCH   6   9
ATOM      7  O   UNL     1      34.113 -23.442 -17.974  0.00  0.00    -0.270 OA
ATOM      8  N   UNL     1      32.093 -22.325 -17.757  0.00  0.00    -0.293 N 
ATOM      9  C   ACE A   0      33.358 -22.518 -18.324  0.00  0.00    +0.246 C 
ATOM     10  H   UNL     1      31.547 -21.573 -18.082  0.00  0.00    +0.150 HD
BRANCH   8  11
ATOM     11  CA  UNL     1      31.544 -23.170 -16.721  0.00  0.00    +0.172 C 
BRANCH  11  13
ATOM     12  OXT UNL     1      29.433 -21.991 -17.005  0.00  0.00    -0.248 OA
ATOM     13  C   UNL     1      30.037 -23.027 -16.763  0.00  0.00    +0.332 C 
BRANCH  13  14
ATOM     14  O   UNL     1      29.409 -24.211 -16.536  0.00  0.00    -0.479 OA
ATOM     15  H   UNL     1      29.858 -24.902 -16.091  0.00  0.00    +0.295 HD
ENDBRANCH  13  14
ENDBRANCH  11  13
BRANCH  11  16
ATOM     16  CB  UNL     1      32.155 -22.888 -15.342  0.00  0.00    +0.043 C 
BRANCH  16  17
ATOM     17  CG  UNL     1      31.221 -23.097 -14.142  0.00  0.00    +0.112 C 
BRANCH  17  19
ATOM     18  OE2 UNL     1      32.194 -25.123 -13.201  0.00  0.00    -0.250 OA
ATOM     19  CD  UNL     1      31.216 -24.516 -13.614  0.00  0.00    +0.314 C 
BRANCH  19  20
ATOM     20  OE1 UNL     1      29.978 -25.071 -13.686  0.00  0.00    -0.480 OA
ATOM     21  HE1 UNL     1      29.590 -25.242 -14.522  0.00  0.00    +0.295 HD
ENDBRANCH  19  20
ENDBRANCH  17  19
ENDBRANCH  16  17
ENDBRANCH  11  16
ENDBRANCH   8  11
ENDBRANCH   6   9
BRANCH   1  22
ATOM     22  S   UNL     1      35.092 -18.583 -22.525  0.00  0.00    +0.064 S 
ATOM     23  O   UNL     1      36.508 -18.332 -22.330  0.00  0.00    -0.153 OA
ATOM     24  O   UNL     1      34.597 -19.057 -23.804  0.00  0.00    -0.153 OA
BRANCH  22  25
ATOM     25  N   UNL     1      34.202 -17.214 -22.048  0.00  0.00    -0.148 NA
ATOM     26  C   UNL     1      34.850 -15.878 -22.177  0.00  0.00    +0.155 C 
ATOM     27  C   UNL     1      34.500 -15.125 -20.899  0.00  0.00    +0.029 C 
ATOM     28  C   UNL     1      33.243 -15.815 -20.395  0.00  0.00    +0.021 C 
ATOM     29  C   UNL     1      33.505 -17.273 -20.734  0.00  0.00    +0.096 C 
BRANCH  26  32
ATOM     30  O   UNL     1      33.817 -15.946 -24.321  0.00  0.00    -0.274 OA
ATOM     31  N   UNL     1      34.223 -13.881 -23.327  0.00  0.00    -0.303 N 
ATOM     32  C   UNL     1      34.235 -15.264 -23.389  0.00  0.00    +0.239 C 
ATOM     33  H   UNL     1      34.588 -13.445 -22.523  0.00  0.00    +0.149 HD
BRANCH  31  34
ATOM     34  C   UNL     1      33.702 -13.047 -24.385  0.00  0.00    +0.101 C 
BRANCH  34  35
ATOM     35  C   UNL     1      33.730 -11.569 -24.014  0.00  0.00    +0.131 C 
BRANCH  35  37
ATOM     36  O   UNL     1      34.909 -10.925 -26.047  0.00  0.00    -0.250 OA
ATOM     37  C   UNL     1      34.703 -10.768 -24.853  0.00  0.00    +0.316 C 
BRANCH  37  38
ATOM     38  O   UNL     1      35.335  -9.823 -24.109  0.00  0.00    -0.480 OA
ATOM     39  H   UNL     1      35.044  -9.642 -23.238  0.00  0.00    +0.295 HD
ENDBRANCH  37  38
ENDBRANCH  35  37
ENDBRANCH  34  35
ENDBRANCH  31  34
ENDBRANCH  26  32
ENDBRANCH  22  25
ENDBRANCH   1  22
TORSDOF 15
ENDMDL
MODEL 3
REMARK VINA RESULT:     -10.4      1.663      2.424
REMARK  Name = 445506
REMARK  15 active torsions:
REMARK  status: ('A' for Active; 'I' for Inactive)
REMARK    1  A    between atoms: C_1  and  S_22
REMARK    2  A    between atoms: C_6  and  C_9
REMARK    3  A    between atoms: N_8  and  CA_11
REMARK    4  A    between atoms: CA_11  and  C_13
REMARK    5  A    between atoms: CA_11  and  CB_16
REMARK    6  A    between atoms: C_13  and  O_14
REMARK    7  A    between atoms: CB_16  and  CG_17
REMARK    8  A    between atoms: CG_17  and  CD_19
REMARK    9  A    between atoms: CD_19  and  OE1_20
REMARK   10  A    between atoms: S_22  and  N_25
REMARK   11  A    between atoms: C_26  and  C_32
REMARK   12  A    between atoms: N_31  and  C_34
REMARK   13  A    between atoms: C_34  and  C_35
REMARK   14  A    between atoms: C_35  and  C_37
REMARK   15  A    between atoms: C_37  and  O_38
REMARK                            x       y       z     vdW  Elec       q    Type
REMARK                         _______ _______ _______ _____ _____    ______ ____
ROOT
ATOM      1  C   UNL     1      34.790 -19.794 -21.277  0.00  0.00    +0.122 C 
ATOM      2  C   UNL     1      33.416 -19.991 -21.133  0.00  0.00    +0.020 C 
ATOM      3  C   UNL     1      35.686 -20.536 -20.507  0.00  0.00    +0.020 C 
ATOM      4  C   UNL     1      32.939 -20.932 -20.221  0.00  0.00    +0.006 C 
ATOM      5  C   UNL     1      35.209 -21.477 -19.595  0.00  0.00    +0.006 C 
ATOM      6  C   UNL     1      33.835 -21.675 -19.452  0.00  0.00    +0.053 C 
ENDROOT
BRANCH   6   9
ATOM      7  O   UNL     1      33.757 -23.826 -18.522  0.00  0.00    -0.270 OA
ATOM      8  N   UNL     1      32.397 -22.211 -17.563  0.00  0.00    -0.293 N 
ATOM      9  C   ACE A   0      33.338 -22.656 -18.501  0.00  0.00    +0.246 C 
ATOM     10  H   UNL     1      32.109 -21.271 -17.603  0.00  0.00    +0.150 HD
BRANCH   8  11
ATOM     11  CA  UNL     1      31.827 -23.058 -16.540  0.00  0.00    +0.172 C 
BRANCH  11  13
ATOM     12  OXT UNL     1      29.609 -22.387 -17.288  0.00  0.00    -0.248 OA
ATOM     13  C   UNL     1      30.375 -22.661 -16.374  0.00  0.00    +0.332 C 
BRANCH  13  14
ATOM     14  O   UNL     1      29.991 -22.679 -15.070  0.00  0.00    -0.479 OA
ATOM     15  H   UNL     1      29.151 -22.345 -14.823  0.00  0.00    +0.295 HD
ENDBRANCH  13  14
ENDBRANCH  11  13
BRANCH  11  16
ATOM     16  CB  UNL     1      32.630 -23.030 -15.233  0.00  0.00    +0.043 C 
BRANCH  16  17
ATOM     17  CG  UNL     1      33.526 -24.248 -14.973  0.00  0.00    +0.112 C 
BRANCH  17  19
ATOM     18  OE2 UNL     1      35.794 -24.959 -15.505  0.00  0.00    -0.250 OA
ATOM     19  CD  UNL     1      34.945 -24.079 -15.470  0.00  0.00    +0.314 C 
BRANCH  19  20
ATOM     20  OE1 UNL     1      35.194 -22.798 -15.847  0.00  0.00    -0.480 OA
ATOM     21  HE1 UNL     1      34.810 -22.458 -16.631  0.00  0.00    +0.295 HD
ENDBRANCH  19  20
ENDBRANCH  17  19
ENDBRANCH  16  17
ENDBRANCH  11  16
ENDBRANCH   8  11
ENDBRANCH   6   9
BRANCH   1  22
ATOM     22  S   UNL     1      35.394 -18.599 -22.432  0.00  0.00    +0.064 S 
ATOM     23  O   UNL     1      36.742 -18.245 -22.028  0.00  0.00    -0.153 OA
ATOM     24  O   UNL     1      35.134 -19.107 -23.766  0.00  0.00    -0.153 OA
BRANCH  22  25
ATOM     25  N   UNL     1      34.345 -17.300 -22.108  0.00  0.00    -0.148 NA
ATOM     26  C   UNL     1      34.824 -15.922 -22.408  0.00  0.00    +0.155 C 
ATOM     27  C   UNL     1      34.387 -15.066 -21.224  0.00  0.00    +0.029 C 
ATOM     28  C   UNL     1      33.226 -15.837 -20.620  0.00  0.00    +0.021 C 
ATOM     29  C   UNL     1      33.662 -17.283 -20.786  0.00  0.00    +0.096 C 
BRANCH  26  32
ATOM     30  O   UNL     1      33.868 -16.364 -24.542  0.00  0.00    -0.274 OA
ATOM     31  N   UNL     1      33.878 -14.180 -23.739  0.00  0.00    -0.303 N 
ATOM     32  C   UNL     1      34.137 -15.538 -23.674  0.00  0.00    +0.239 C 
ATOM     33  H   UNL     1      34.142 -13.616 -22.977  0.00  0.00    +0.149 HD
BRANCH  31  34
ATOM     34  C   UNL     1      33.240 -13.550 -24.872  0.00  0.00    +0.101 C 
BRANCH  34  35
ATOM     35  C   UNL     1      33.854 -12.193 -25.194  0.00  0.00    +0.131 C 
BRANCH  35  37
ATOM     36  O   UNL     1      32.888 -11.127 -23.228  0.00  0.00    -0.250 OA
ATOM     37  C   UNL     1      33.807 -11.232 -24.027  0.00  0.00    +0.316 C 
BRANCH  37  38
ATOM     38  O   UNL     1      34.937 -10.480 -23.959  0.00  0.00    -0.480 OA
ATOM     39  H   UNL     1      35.230 -10.006 -24.713  0.00  0.00    +0.295 HD
ENDBRANCH  37  38
ENDBRANCH  35  37
ENDBRANCH  34  35
ENDBRANCH  31  34
ENDBRANCH  26  32
ENDBRANCH  22  25
ENDBRANCH   1  22
TORSDOF 15
ENDMDL
MODEL 4
REMARK VINA RESULT:     -10.3      1.225      1.924
REMARK  Name = 445506
REMARK  15 active torsions:
REMARK  status: ('A' for Active; 'I' for Inactive)
REMARK    1  A    between atoms: C_1  and  S_22
REMARK    2  A    between atoms: C_6  and  C_9
REMARK    3  A    between atoms: N_8  and  CA_11
REMARK    4  A    between atoms: CA_11  and  C_13
REMARK    5  A    between atoms: CA_11  and  CB_16
REMARK    6  A    between atoms: C_13  and  O_14
REMARK    7  A    between atoms: CB_16  and  CG_17
REMARK    8  A    between atoms: CG_17  and  CD_19
REMARK    9  A    between atoms: CD_19  and  OE1_20
REMARK   10  A    between atoms: S_22  and  N_25
REMARK   11  A    between atoms: C_26  and  C_32
REMARK   12  A    between atoms: N_31  and  C_34
REMARK   13  A    between atoms: C_34  and  C_35
REMARK   14  A    between atoms: C_35  and  C_37
REMARK   15  A    between atoms: C_37  and  O_38
REMARK                            x       y       z     vdW  Elec       q    Type
REMARK                         _______ _______ _______ _____ _____    ______ ____
ROOT
ATOM      1  C   UNL     1      34.691 -19.810 -21.242  0.00  0.00    +0.122 C 
ATOM      2  C   UNL     1      33.334 -20.028 -21.000  0.00  0.00    +0.020 C 
ATOM      3  C   UNL     1      35.651 -20.508 -20.511  0.00  0.00    +0.020 C 
ATOM      4  C   UNL     1      32.938 -20.947 -20.029  0.00  0.00    +0.006 C 
ATOM      5  C   UNL     1      35.255 -21.428 -19.539  0.00  0.00    +0.006 C 
ATOM      6  C   UNL     1      33.898 -21.647 -19.298  0.00  0.00    +0.053 C 
ENDROOT
BRANCH   6   9
ATOM      7  O   UNL     1      34.154 -23.633 -18.078  0.00  0.00    -0.270 OA
ATOM      8  N   UNL     1      32.331 -22.298 -17.555  0.00  0.00    -0.293 N 
ATOM      9  C   ACE A   0      33.486 -22.604 -18.285  0.00  0.00    +0.246 C 
ATOM     10  H   UNL     1      31.850 -21.468 -17.771  0.00  0.00    +0.150 HD
BRANCH   8  11
ATOM     11  CA  UNL     1      31.807 -23.137 -16.500  0.00  0.00    +0.172 C 
BRANCH  11  13
ATOM     12  OXT UNL     1      29.604 -22.390 -17.221  0.00  0.00    -0.248 OA
ATOM     13  C   UNL     1      30.340 -22.799 -16.333  0.00  0.00    +0.332 C 
BRANCH  13  14
ATOM     14  O   UNL     1      29.905 -23.042 -15.068  0.00  0.00    -0.479 OA
ATOM     15  H   UNL     1      29.568 -22.341 -14.546  0.00  0.00    +0.295 HD
ENDBRANCH  13  14
ENDBRANCH  11  13
BRANCH  11  16
ATOM     16  CB  UNL     1      32.618 -23.032 -15.202  0.00  0.00    +0.043 C 
BRANCH  16  17
ATOM     17  CG  UNL     1      33.403 -24.288 -14.801  0.00  0.00    +0.112 C 
BRANCH  17  19
ATOM     18  OE2 UNL     1      35.524 -23.276 -14.161  0.00  0.00    -0.250 OA
ATOM     19  CD  UNL     1      34.905 -24.100 -14.819  0.00  0.00    +0.314 C 
BRANCH  19  20
ATOM     20  OE1 UNL     1      35.503 -24.944 -15.699  0.00  0.00    -0.480 OA
ATOM     21  HE1 UNL     1      35.462 -25.871 -15.562  0.00  0.00    +0.295 HD
ENDBRANCH  19  20
ENDBRANCH  17  19
ENDBRANCH  16  17
ENDBRANCH  11  16
ENDBRANCH   8  11
ENDBRANCH   6   9
BRANCH   1  22
ATOM     22  S   UNL     1      35.192 -18.643 -22.473  0.00  0.00    +0.064 S 
ATOM     23  O   UNL     1      36.592 -18.340 -22.241  0.00  0.00    -0.153 OA
ATOM     24  O   UNL     1      34.750 -19.145 -23.760  0.00  0.00    -0.153 OA
BRANCH  22  25
ATOM     25  N   UNL     1      34.242 -17.303 -22.031  0.00  0.00    -0.148 NA
ATOM     26  C   UNL     1      34.767 -15.942 -22.333  0.00  0.00    +0.155 C 
ATOM     27  C   UNL     1      34.471 -15.101 -21.097  0.00  0.00    +0.029 C 
ATOM     28  C   UNL     1      33.322 -15.831 -20.420  0.00  0.00    +0.021 C 
ATOM     29  C   UNL     1      33.668 -17.291 -20.658  0.00  0.00    +0.096 C 
BRANCH  26  32
ATOM     30  O   UNL     1      33.875 -16.194 -24.526  0.00  0.00    -0.274 OA
ATOM     31  N   UNL     1      33.499 -14.207 -23.374  0.00  0.00    -0.303 N 
ATOM     32  C   UNL     1      34.002 -15.487 -23.530  0.00  0.00    +0.239 C 
ATOM     33  H   UNL     1      33.667 -13.737 -22.525  0.00  0.00    +0.149 HD
BRANCH  31  34
ATOM     34  C   UNL     1      32.739 -13.526 -24.398  0.00  0.00    +0.101 C 
BRANCH  34  35
ATOM     35  C   UNL     1      33.629 -13.008 -25.521  0.00  0.00    +0.131 C 
BRANCH  35  37
ATOM     36  O   UNL     1      32.669 -12.940 -27.760  0.00  0.00    -0.250 OA
ATOM     37  C   UNL     1      33.247 -13.559 -26.878  0.00  0.00    +0.316 C 
BRANCH  37  38
ATOM     38  O   UNL     1      33.635 -14.854 -27.014  0.00  0.00    -0.480 OA
ATOM     39  H   UNL     1      34.360 -15.180 -26.518  0.00  0.00    +0.295 HD
ENDBRANCH  37  38
ENDBRANCH  35  37
ENDBRANCH  34  35
ENDBRANCH  31  34
ENDBRANCH  26  32
ENDBRANCH  22  25
ENDBRANCH   1  22
TORSDOF 15
ENDMDL
MODEL 5
REMARK VINA RESULT:     -10.3      3.689     11.134
REMARK  Name = 445506
REMARK  15 active torsions:
REMARK  status: ('A' for Active; 'I' for Inactive)
REMARK    1  A    between atoms: C_1  and  S_22
REMARK    2  A    between atoms: C_6  and  C_9
REMARK    3  A    between atoms: N_8  and  CA_11
REMARK    4  A    between atoms: CA_11  and  C_13
REMARK    5  A    between atoms: CA_11  and  CB_16
REMARK    6  A    between atoms: C_13  and  O_14
REMARK    7  A    between atoms: CB_16  and  CG_17
REMARK    8  A    between atoms: CG_17  and  CD_19
REMARK    9  A    between atoms: CD_19  and  OE1_20
REMARK   10  A    between atoms: S_22  and  N_25
REMARK   11  A    between atoms: C_26  and  C_32
REMARK   12  A    between atoms: N_31  and  C_34
REMARK   13  A    between atoms: C_34  and  C_35
REMARK   14  A    between atoms: C_35  and  C_37
REMARK   15  A    between atoms: C_37  and  O_38
REMARK                            x       y       z     vdW  Elec       q    Type
REMARK                         _______ _______ _______ _____ _____    ______ ____
ROOT
ATOM      1  C   UNL     1      34.130 -21.911 -19.077  0.00  0.00    +0.122 C 
ATOM      2  C   UNL     1      33.070 -21.095 -19.475  0.00  0.00    +0.020 C 
ATOM      3  C   UNL     1      35.389 -21.752 -19.655  0.00  0.00    +0.020 C 
ATOM      4  C   UNL     1      33.271 -20.119 -20.449  0.00  0.00    +0.006 C 
ATOM      5  C   UNL     1      35.589 -20.775 -20.631  0.00  0.00    +0.006 C 
ATOM      6  C   UNL     1      34.530 -19.958 -21.028  0.00  0.00    +0.053 C 
ENDROOT
BRANCH   6   9
ATOM      7  O   UNL     1      34.989 -19.264 -23.220  0.00  0.00    -0.270 OA
ATOM      8  N   UNL     1      34.621 -17.606 -21.642  0.00  0.00    -0.293 N 
ATOM      9  C   ACE A   0      34.739 -18.941 -22.045  0.00  0.00    +0.246 C 
ATOM     10  H   UNL     1      34.421 -17.421 -20.696  0.00  0.00    +0.150 HD
BRANCH   8  11
ATOM     11  CA  UNL     1      34.777 -16.483 -22.538  0.00  0.00    +0.172 C 
BRANCH  11  13
ATOM     12  OXT UNL     1      34.397 -14.110 -22.143  0.00  0.00    -0.248 OA
ATOM     13  C   UNL     1      34.681 -15.218 -21.710  0.00  0.00    +0.332 C 
BRANCH  13  14
ATOM     14  O   UNL     1      34.911 -15.458 -20.391  0.00  0.00    -0.479 OA
ATOM     15  H   UNL     1      35.748 -15.770 -20.111  0.00  0.00    +0.295 HD
ENDBRANCH  13  14
ENDBRANCH  11  13
BRANCH  11  16
ATOM     16  CB  UNL     1      33.797 -16.526 -23.718  0.00  0.00    +0.043 C 
BRANCH  16  17
ATOM     17  CG  UNL     1      34.373 -16.119 -25.080  0.00  0.00    +0.112 C 
BRANCH  17  19
ATOM     18  OE2 UNL     1      33.447 -14.959 -27.012  0.00  0.00    -0.250 OA
ATOM     19  CD  UNL     1      33.555 -15.067 -25.798  0.00  0.00    +0.314 C 
BRANCH  19  20
ATOM     20  OE1 UNL     1      32.970 -14.207 -24.925  0.00  0.00    -0.480 OA
ATOM     21  HE1 UNL     1      32.247 -14.492 -24.400  0.00  0.00    +0.295 HD
ENDBRANCH  19  20
ENDBRANCH  17  19
ENDBRANCH  16  17
ENDBRANCH  11  16
ENDBRANCH   8  11
ENDBRANCH   6   9
BRANCH   1  22
ATOM     22  S   UNL     1      33.875 -23.150 -17.841  0.00  0.00    +0.064 S 
ATOM     23  O   UNL     1      32.815 -22.682 -16.967  0.00  0.00    -0.153 OA
ATOM     24  O   UNL     1      33.762 -24.428 -18.516  0.00  0.00    -0.153 OA
BRANCH  22  25
ATOM     25  N   UNL     1      35.362 -23.075 -17.018  0.00  0.00    -0.148 NA
ATOM     26  C   UNL     1      35.353 -23.237 -15.538  0.00  0.00    +0.155 C 
ATOM     27  C   UNL     1      36.316 -22.185 -15.001  0.00  0.00    +0.029 C 
ATOM     28  C   UNL     1      37.229 -21.885 -16.178  0.00  0.00    +0.021 C 
ATOM     29  C   UNL     1      36.281 -21.955 -17.363  0.00  0.00    +0.096 C 
BRANCH  26  32
ATOM     30  O   UNL     1      35.319 -25.597 -15.848  0.00  0.00    -0.274 OA
ATOM     31  N   UNL     1      36.876 -24.671 -14.386  0.00  0.00    -0.303 N 
ATOM     32  C   UNL     1      35.833 -24.628 -15.296  0.00  0.00    +0.239 C 
ATOM     33  H   UNL     1      37.204 -23.823 -14.009  0.00  0.00    +0.149 HD
BRANCH  31  34
ATOM     34  C   UNL     1      37.505 -25.901 -13.964  0.00  0.00    +0.101 C 
BRANCH  34  35
ATOM     35  C   UNL     1      38.930 -25.676 -13.472  0.00  0.00    +0.131 C 
BRANCH  35  37
ATOM     36  O   UNL     1      40.953 -26.056 -14.775  0.00  0.00    -0.250 OA
ATOM     37  C   UNL     1      39.913 -25.440 -14.599  0.00  0.00    +0.316 C 
BRANCH  37  38
ATOM     38  O   UNL     1      39.494 -24.441 -15.420  0.00  0.00    -0.480 OA
ATOM     39  H   UNL     1      40.102 -23.795 -15.718  0.00  0.00    +0.295 HD
ENDBRANCH  37  38
ENDBRANCH  35  37
ENDBRANCH  34  35
ENDBRANCH  31  34
ENDBRANCH  26  32
ENDBRANCH  22  25
ENDBRANCH   1  22
TORSDOF 15
ENDMDL
MODEL 6
REMARK VINA RESULT:     -10.0      3.602     10.756
REMARK  Name = 445506
REMARK  15 active torsions:
REMARK  status: ('A' for Active; 'I' for Inactive)
REMARK    1  A    between atoms: C_1  and  S_22
REMARK    2  A    between atoms: C_6  and  C_9
REMARK    3  A    between atoms: N_8  and  CA_11
REMARK    4  A    between atoms: CA_11  and  C_13
REMARK    5  A    between atoms: CA_11  and  CB_16
REMARK    6  A    between atoms: C_13  and  O_14
REMARK    7  A    between atoms: CB_16  and  CG_17
REMARK    8  A    between atoms: CG_17  and  CD_19
REMARK    9  A    between atoms: CD_19  and  OE1_20
REMARK   10  A    between atoms: S_22  and  N_25
REMARK   11  A    between atoms: C_26  and  C_32
REMARK   12  A    between atoms: N_31  and  C_34
REMARK   13  A    between atoms: C_34  and  C_35
REMARK   14  A    between atoms: C_35  and  C_37
REMARK   15  A    between atoms: C_37  and  O_38
REMARK                            x       y       z     vdW  Elec       q    Type
REMARK                         _______ _______ _______ _____ _____    ______ ____
ROOT
ATOM      1  C   UNL     1      34.275 -21.717 -19.271  0.00  0.00    +0.122 C 
ATOM      2  C   UNL     1      33.251 -20.868 -19.693  0.00  0.00    +0.020 C 
ATOM      3  C   UNL     1      35.571 -21.542 -19.755  0.00  0.00    +0.020 C 
ATOM      4  C   UNL     1      33.526 -19.843 -20.597  0.00  0.00    +0.006 C 
ATOM      5  C   UNL     1      35.845 -20.517 -20.660  0.00  0.00    +0.006 C 
ATOM      6  C   UNL     1      34.822 -19.666 -21.081  0.00  0.00    +0.053 C 
ENDROOT
BRANCH   6   9
ATOM      7  O   UNL     1      36.282 -18.275 -22.277  0.00  0.00    -0.270 OA
ATOM      8  N   UNL     1      34.010 -17.982 -22.638  0.00  0.00    -0.293 N 
ATOM      9  C   ACE A   0      35.108 -18.598 -22.025  0.00  0.00    +0.246 C 
ATOM     10  H   UNL     1      33.108 -18.287 -22.392  0.00  0.00    +0.150 HD
BRANCH   8  11
ATOM     11  CA  UNL     1      34.131 -16.923 -23.614  0.00  0.00    +0.172 C 
BRANCH  11  13
ATOM     12  OXT UNL     1      34.259 -18.698 -25.276  0.00  0.00    -0.248 OA
ATOM     13  C   UNL     1      34.530 -17.556 -24.931  0.00  0.00    +0.332 C 
BRANCH  13  14
ATOM     14  O   UNL     1      35.205 -16.686 -25.727  0.00  0.00    -0.479 OA
ATOM     15  H   UNL     1      35.524 -15.878 -25.375  0.00  0.00    +0.295 HD
ENDBRANCH  13  14
ENDBRANCH  11  13
BRANCH  11  16
ATOM     16  CB  UNL     1      35.071 -15.801 -23.156  0.00  0.00    +0.043 C 
BRANCH  16  17
ATOM     17  CG  UNL     1      34.414 -14.652 -22.380  0.00  0.00    +0.112 C 
BRANCH  17  19
ATOM     18  OE2 UNL     1      34.929 -15.443 -20.134  0.00  0.00    -0.250 OA
ATOM     19  CD  UNL     1      34.124 -14.982 -20.932  0.00  0.00    +0.314 C 
BRANCH  19  20
ATOM     20  OE1 UNL     1      32.825 -14.742 -20.615  0.00  0.00    -0.480 OA
ATOM     21  HE1 UNL     1      32.177 -15.404 -20.760  0.00  0.00    +0.295 HD
ENDBRANCH  19  20
ENDBRANCH  17  19
ENDBRANCH  16  17
ENDBRANCH  11  16
ENDBRANCH   8  11
ENDBRANCH   6   9
BRANCH   1  22
ATOM     22  S   UNL     1      33.926 -23.018 -18.125  0.00  0.00    +0.064 S 
ATOM     23  O   UNL     1      32.810 -22.587 -17.304  0.00  0.00    -0.153 OA
ATOM     24  O   UNL     1      33.853 -24.257 -18.875  0.00  0.00    -0.153 OA
BRANCH  22  25
ATOM     25  N   UNL     1      35.352 -23.002 -17.198  0.00  0.00    -0.148 NA
ATOM     26  C   UNL     1      35.226 -23.090 -15.717  0.00  0.00    +0.155 C 
ATOM     27  C   UNL     1      36.220 -22.079 -15.156  0.00  0.00    +0.029 C 
ATOM     28  C   UNL     1      37.233 -21.899 -16.274  0.00  0.00    +0.021 C 
ATOM     29  C   UNL     1      36.369 -21.964 -17.522  0.00  0.00    +0.096 C 
BRANCH  26  32
ATOM     30  O   UNL     1      35.131 -25.452 -15.999  0.00  0.00    -0.274 OA
ATOM     31  N   UNL     1      36.456 -24.569 -14.302  0.00  0.00    -0.303 N 
ATOM     32  C   UNL     1      35.589 -24.496 -15.378  0.00  0.00    +0.239 C 
ATOM     33  H   UNL     1      36.755 -23.729 -13.884  0.00  0.00    +0.149 HD
BRANCH  31  34
ATOM     34  C   UNL     1      36.942 -25.817 -13.761  0.00  0.00    +0.101 C 
BRANCH  34  35
ATOM     35  C   UNL     1      38.392 -25.717 -13.305  0.00  0.00    +0.131 C 
BRANCH  35  37
ATOM     36  O   UNL     1      40.110 -26.680 -14.740  0.00  0.00    -0.250 OA
ATOM     37  C   UNL     1      39.377 -25.745 -14.454  0.00  0.00    +0.316 C 
BRANCH  37  38
ATOM     38  O   UNL     1      39.349 -24.582 -15.157  0.00  0.00    -0.480 OA
ATOM     39  H   UNL     1      39.672 -24.559 -16.036  0.00  0.00    +0.295 HD
ENDBRANCH  37  38
ENDBRANCH  35  37
ENDBRANCH  34  35
ENDBRANCH  31  34
ENDBRANCH  26  32
ENDBRANCH  22  25
ENDBRANCH   1  22
TORSDOF 15
ENDMDL
MODEL 7
REMARK VINA RESULT:      -9.9      4.326      5.991
REMARK  Name = 445506
REMARK  15 active torsions:
REMARK  status: ('A' for Active; 'I' for Inactive)
REMARK    1  A    between atoms: C_1  and  S_22
REMARK    2  A    between atoms: C_6  and  C_9
REMARK    3  A    between atoms: N_8  and  CA_11
REMARK    4  A    between atoms: CA_11  and  C_13
REMARK    5  A    between atoms: CA_11  and  CB_16
REMARK    6  A    between atoms: C_13  and  O_14
REMARK    7  A    between atoms: CB_16  and  CG_17
REMARK    8  A    between atoms: CG_17  and  CD_19
REMARK    9  A    between atoms: CD_19  and  OE1_20
REMARK   10  A    between atoms: S_22  and  N_25
REMARK   11  A    between atoms: C_26  and  C_32
REMARK   12  A    between atoms: N_31  and  C_34
REMARK   13  A    between atoms: C_34  and  C_35
REMARK   14  A    between atoms: C_35  and  C_37
REMARK   15  A    between atoms: C_37  and  O_38
REMARK                            x       y       z     vdW  Elec       q    Type
REMARK                         _______ _______ _______ _____ _____    ______ ____
ROOT
ATOM      1  C   UNL     1      34.944 -22.274 -18.007  0.00  0.00    +0.122 C 
ATOM      2  C   UNL     1      36.275 -21.854 -18.036  0.00  0.00    +0.020 C 
ATOM      3  C   UNL     1      34.477 -23.039 -16.939  0.00  0.00    +0.020 C 
ATOM      4  C   UNL     1      37.137 -22.198 -16.996  0.00  0.00    +0.006 C 
ATOM      5  C   UNL     1      35.340 -23.383 -15.898  0.00  0.00    +0.006 C 
ATOM      6  C   UNL     1      36.670 -22.962 -15.926  0.00  0.00    +0.053 C 
ENDROOT
BRANCH   6   9
ATOM      7  O   UNL     1      37.698 -22.576 -13.855  0.00  0.00    -0.270 OA
ATOM      8  N   UNL     1      38.249 -24.540 -14.958  0.00  0.00    -0.293 N 
ATOM      9  C   ACE A   0      37.569 -23.321 -14.842  0.00  0.00    +0.246 C 
ATOM     10  H   UNL     1      38.101 -25.081 -15.766  0.00  0.00    +0.150 HD
BRANCH   8  11
ATOM     11  CA  UNL     1      39.158 -25.046 -13.954  0.00  0.00    +0.172 C 
BRANCH  11  13
ATOM     12  OXT UNL     1      41.098 -26.508 -14.129  0.00  0.00    -0.248 OA
ATOM     13  C   UNL     1      40.254 -25.807 -14.671  0.00  0.00    +0.332 C 
BRANCH  13  14
ATOM     14  O   UNL     1      40.176 -25.656 -16.020  0.00  0.00    -0.479 OA
ATOM     15  H   UNL     1      40.659 -26.227 -16.584  0.00  0.00    +0.295 HD
ENDBRANCH  13  14
ENDBRANCH  11  13
BRANCH  11  16
ATOM     16  CB  UNL     1      38.445 -25.863 -12.868  0.00  0.00    +0.043 C 
BRANCH  16  17
ATOM     17  CG  UNL     1      36.912 -25.816 -12.895  0.00  0.00    +0.112 C 
BRANCH  17  19
ATOM     18  OE2 UNL     1      36.938 -24.338 -10.959  0.00  0.00    -0.250 OA
ATOM     19  CD  UNL     1      36.308 -24.977 -11.790  0.00  0.00    +0.314 C 
BRANCH  19  20
ATOM     20  OE1 UNL     1      34.951 -25.043 -11.797  0.00  0.00    -0.480 OA
ATOM     21  HE1 UNL     1      34.451 -24.478 -11.242  0.00  0.00    +0.295 HD
ENDBRANCH  19  20
ENDBRANCH  17  19
ENDBRANCH  16  17
ENDBRANCH  11  16
ENDBRANCH   8  11
ENDBRANCH   6   9
BRANCH   1  22
ATOM     22  S   UNL     1      33.852 -21.839 -19.328  0.00  0.00    +0.064 S 
ATOM     23  O   UNL     1      33.883 -22.922 -20.294  0.00  0.00    -0.153 OA
ATOM     24  O   UNL     1      32.597 -21.414 -18.739  0.00  0.00    -0.153 OA
BRANCH  22  25
ATOM     25  N   UNL     1      34.664 -20.487 -19.966  0.00  0.00    -0.148 NA
ATOM     26  C   UNL     1      34.212 -19.955 -21.281  0.00  0.00    +0.155 C 
ATOM     27  C   UNL     1      35.484 -19.641 -22.059  0.00  0.00    +0.029 C 
ATOM     28  C   UNL     1      36.541 -19.462 -20.982  0.00  0.00    +0.021 C 
ATOM     29  C   UNL     1      36.152 -20.512 -19.955  0.00  0.00    +0.096 C 
BRANCH  26  32
ATOM     30  O   UNL     1      32.293 -18.794 -20.482  0.00  0.00    -0.274 OA
ATOM     31  N   UNL     1      34.107 -17.569 -21.272  0.00  0.00    -0.303 N 
ATOM     32  C   UNL     1      33.424 -18.731 -20.956  0.00  0.00    +0.239 C 
ATOM     33  H   UNL     1      35.014 -17.646 -21.649  0.00  0.00    +0.149 HD
BRANCH  31  34
ATOM     34  C   UNL     1      33.555 -16.249 -21.074  0.00  0.00    +0.101 C 
BRANCH  34  35
ATOM     35  C   UNL     1      34.403 -15.169 -21.735  0.00  0.00    +0.131 C 
BRANCH  35  37
ATOM     36  O   UNL     1      33.807 -14.924 -24.085  0.00  0.00    -0.250 OA
ATOM     37  C   UNL     1      34.556 -15.368 -23.227  0.00  0.00    +0.316 C 
BRANCH  37  38
ATOM     38  O   UNL     1      35.656 -16.113 -23.516  0.00  0.00    -0.480 OA
ATOM     39  H   UNL     1      35.558 -16.996 -23.812  0.00  0.00    +0.295 HD
ENDBRANCH  37  38
ENDBRANCH  35  37
ENDBRANCH  34  35
ENDBRANCH  31  34
ENDBRANCH  26  32
ENDBRANCH  22  25
ENDBRANCH   1  22
TORSDOF 15
ENDMDL
MODEL 8
REMARK VINA RESULT:      -9.7      3.788     11.497
REMARK  Name = 445506
REMARK  15 active torsions:
REMARK  status: ('A' for Active; 'I' for Inactive)
REMARK    1  A    between atoms: C_1  and  S_22
REMARK    2  A    between atoms: C_6  and  C_9
REMARK    3  A    between atoms: N_8  and  CA_11
REMARK    4  A    between atoms: CA_11  and  C_13
REMARK    5  A    between atoms: CA_11  and  CB_16
REMARK    6  A    between atoms: C_13  and  O_14
REMARK    7  A    between atoms: CB_16  and  CG_17
REMARK    8  A    between atoms: CG_17  and  CD_19
REMARK    9  A    between atoms: CD_19  and  OE1_20
REMARK   10  A    between atoms: S_22  and  N_25
REMARK   11  A    between atoms: C_26  and  C_32
REMARK   12  A    between atoms: N_31  and  C_34
REMARK   13  A    between atoms: C_34  and  C_35
REMARK   14  A    between atoms: C_35  and  C_37
REMARK   15  A    between atoms: C_37  and  O_38
REMARK                            x       y       z     vdW  Elec       q    Type
REMARK                         _______ _______ _______ _____ _____    ______ ____
ROOT
ATOM      1  C   UNL     1      34.925 -17.168 -22.698  0.00  0.00    +0.122 C 
ATOM      2  C   UNL     1      34.521 -16.678 -23.941  0.00  0.00    +0.020 C 
ATOM      3  C   UNL     1      34.762 -16.387 -21.554  0.00  0.00    +0.020 C 
ATOM      4  C   UNL     1      33.952 -15.409 -24.038  0.00  0.00    +0.006 C 
ATOM      5  C   UNL     1      34.193 -15.117 -21.652  0.00  0.00    +0.006 C 
ATOM      6  C   UNL     1      33.788 -14.628 -22.894  0.00  0.00    +0.053 C 
ENDROOT
BRANCH   6   9
ATOM      7  O   UNL     1      32.122 -13.047 -22.424  0.00  0.00    -0.270 OA
ATOM      8  N   UNL     1      33.899 -12.349 -23.739  0.00  0.00    -0.293 N 
ATOM      9  C   ACE A   0      33.196 -13.305 -22.996  0.00  0.00    +0.246 C 
ATOM     10  H   UNL     1      34.743 -12.621 -24.167  0.00  0.00    +0.150 HD
BRANCH   8  11
ATOM     11  CA  UNL     1      33.453 -10.985 -23.914  0.00  0.00    +0.172 C 
BRANCH  11  13
ATOM     12  OXT UNL     1      34.999  -9.110 -23.749  0.00  0.00    -0.248 OA
ATOM     13  C   UNL     1      34.662 -10.154 -24.292  0.00  0.00    +0.332 C 
BRANCH  13  14
ATOM     14  O   UNL     1      35.374 -10.724 -25.300  0.00  0.00    -0.479 OA
ATOM     15  H   UNL     1      35.725 -10.191 -25.986  0.00  0.00    +0.295 HD
ENDBRANCH  13  14
ENDBRANCH  11  13
BRANCH  11  16
ATOM     16  CB  UNL     1      32.691 -10.451 -22.695  0.00  0.00    +0.043 C 
BRANCH  16  17
ATOM     17  CG  UNL     1      31.564  -9.455 -22.995  0.00  0.00    +0.112 C 
BRANCH  17  19
ATOM     18  OE2 UNL     1      31.108  -7.086 -22.655  0.00  0.00    -0.250 OA
ATOM     19  CD  UNL     1      31.832  -8.057 -22.481  0.00  0.00    +0.314 C 
BRANCH  19  20
ATOM     20  OE1 UNL     1      33.017  -7.986 -21.822  0.00  0.00    -0.480 OA
ATOM     21  HE1 UNL     1      33.790  -7.712 -22.275  0.00  0.00    +0.295 HD
ENDBRANCH  19  20
ENDBRANCH  17  19
ENDBRANCH  16  17
ENDBRANCH  11  16
ENDBRANCH   8  11
ENDBRANCH   6   9
BRANCH   1  22
ATOM     22  S   UNL     1      35.648 -18.777 -22.576  0.00  0.00    +0.064 S 
ATOM     23  O   UNL     1      35.200 -19.544 -23.723  0.00  0.00    -0.153 OA
ATOM     24  O   UNL     1      37.063 -18.605 -22.312  0.00  0.00    -0.153 OA
BRANCH  22  25
ATOM     25  N   UNL     1      34.878 -19.354 -21.172  0.00  0.00    -0.148 NA
ATOM     26  C   UNL     1      35.139 -20.761 -20.758  0.00  0.00    +0.155 C 
ATOM     27  C   UNL     1      33.786 -21.326 -20.341  0.00  0.00    +0.029 C 
ATOM     28  C   UNL     1      32.963 -20.097 -19.993  0.00  0.00    +0.021 C 
ATOM     29  C   UNL     1      33.421 -19.084 -21.030  0.00  0.00    +0.096 C 
BRANCH  26  32
ATOM     30  O   UNL     1      36.903 -19.740 -19.528  0.00  0.00    -0.274 OA
ATOM     31  N   UNL     1      35.957 -21.710 -18.725  0.00  0.00    -0.303 N 
ATOM     32  C   UNL     1      36.093 -20.659 -19.616  0.00  0.00    +0.239 C 
ATOM     33  H   UNL     1      35.267 -22.389 -18.904  0.00  0.00    +0.149 HD
BRANCH  31  34
ATOM     34  C   UNL     1      36.778 -21.857 -17.546  0.00  0.00    +0.101 C 
BRANCH  34  35
ATOM     35  C   UNL     1      36.002 -22.455 -16.379  0.00  0.00    +0.131 C 
BRANCH  35  37
ATOM     36  O   UNL     1      37.545 -22.831 -14.531  0.00  0.00    -0.250 OA
ATOM     37  C   UNL     1      36.871 -23.274 -15.450  0.00  0.00    +0.316 C 
BRANCH  37  38
ATOM     38  O   UNL     1      36.813 -24.597 -15.755  0.00  0.00    -0.480 OA
ATOM     39  H   UNL     1      37.169 -25.230 -15.164  0.00  0.00    +0.295 HD
ENDBRANCH  37  38
ENDBRANCH  35  37
ENDBRANCH  34  35
ENDBRANCH  31  34
ENDBRANCH  26  32
ENDBRANCH  22  25
ENDBRANCH   1  22
TORSDOF 15
ENDMDL
MODEL 9
REMARK VINA RESULT:      -9.4      2.141      3.114
REMARK  Name = 445506
REMARK  15 active torsions:
REMARK  status: ('A' for Active; 'I' for Inactive)
REMARK    1  A    between atoms: C_1  and  S_22
REMARK    2  A    between atoms: C_6  and  C_9
REMARK    3  A    between atoms: N_8  and  CA_11
REMARK    4  A    between atoms: CA_11  and  C_13
REMARK    5  A    between atoms: CA_11  and  CB_16
REMARK    6  A    between atoms: C_13  and  O_14
REMARK    7  A    between atoms: CB_16  and  CG_17
REMARK    8  A    between atoms: CG_17  and  CD_19
REMARK    9  A    between atoms: CD_19  and  OE1_20
REMARK   10  A    between atoms: S_22  and  N_25
REMARK   11  A    between atoms: C_26  and  C_32
REMARK   12  A    between atoms: N_31  and  C_34
REMARK   13  A    between atoms: C_34  and  C_35
REMARK   14  A    between atoms: C_35  and  C_37
REMARK   15  A    between atoms: C_37  and  O_38
REMARK                            x       y       z     vdW  Elec       q    Type
REMARK                         _______ _______ _______ _____ _____    ______ ____
ROOT
ATOM      1  C   UNL     1      34.938 -19.537 -21.554  0.00  0.00    +0.122 C 
ATOM      2  C   UNL     1      36.051 -20.004 -20.856  0.00  0.00    +0.020 C 
ATOM      3  C   UNL     1      33.661 -19.978 -21.208  0.00  0.00    +0.020 C 
ATOM      4  C   UNL     1      35.887 -20.911 -19.810  0.00  0.00    +0.006 C 
ATOM      5  C   UNL     1      33.497 -20.886 -20.162  0.00  0.00    +0.006 C 
ATOM      6  C   UNL     1      34.610 -21.353 -19.462  0.00  0.00    +0.053 C 
ENDROOT
BRANCH   6   9
ATOM      7  O   UNL     1      33.757 -23.327 -18.529  0.00  0.00    -0.270 OA
ATOM      8  N   UNL     1      35.090 -22.005 -17.168  0.00  0.00    -0.293 N 
ATOM      9  C   ACE A   0      34.439 -22.299 -18.372  0.00  0.00    +0.246 C 
ATOM     10  H   UNL     1      35.613 -21.174 -17.112  0.00  0.00    +0.150 HD
BRANCH   8  11
ATOM     11  CA  UNL     1      35.036 -22.857 -16.002  0.00  0.00    +0.172 C 
BRANCH  11  13
ATOM     12  OXT UNL     1      37.468 -22.981 -16.056  0.00  0.00    -0.248 OA
ATOM     13  C   UNL     1      36.389 -23.524 -15.858  0.00  0.00    +0.332 C 
BRANCH  13  14
ATOM     14  O   UNL     1      36.277 -24.812 -15.438  0.00  0.00    -0.479 OA
ATOM     15  H   UNL     1      35.915 -25.001 -14.595  0.00  0.00    +0.295 HD
ENDBRANCH  13  14
ENDBRANCH  11  13
BRANCH  11  16
ATOM     16  CB  UNL     1      33.862 -23.843 -16.042  0.00  0.00    +0.043 C 
BRANCH  16  17
ATOM     17  CG  UNL     1      32.632 -23.453 -15.211  0.00  0.00    +0.112 C 
BRANCH  17  19
ATOM     18  OE2 UNL     1      31.934 -23.619 -12.883  0.00  0.00    -0.250 OA
ATOM     19  CD  UNL     1      32.656 -23.993 -13.797  0.00  0.00    +0.314 C 
BRANCH  19  20
ATOM     20  OE1 UNL     1      33.620 -24.936 -13.639  0.00  0.00    -0.480 OA
ATOM     21  HE1 UNL     1      33.459 -25.820 -13.904  0.00  0.00    +0.295 HD
ENDBRANCH  19  20
ENDBRANCH  17  19
ENDBRANCH  16  17
ENDBRANCH  11  16
ENDBRANCH   8  11
ENDBRANCH   6   9
BRANCH   1  22
ATOM     22  S   UNL     1      35.147 -18.387 -22.882  0.00  0.00    +0.064 S 
ATOM     23  O   UNL     1      36.557 -18.050 -22.948  0.00  0.00    -0.153 OA
ATOM     24  O   UNL     1      34.464 -18.926 -24.042  0.00  0.00    -0.153 OA
BRANCH  22  25
ATOM     25  N   UNL     1      34.274 -17.058 -22.278  0.00  0.00    -0.148 NA
ATOM     26  C   UNL     1      34.904 -15.711 -22.358  0.00  0.00    +0.155 C 
ATOM     27  C   UNL     1      34.614 -15.039 -21.020  0.00  0.00    +0.029 C 
ATOM     28  C   UNL     1      33.390 -15.771 -20.497  0.00  0.00    +0.021 C 
ATOM     29  C   UNL     1      33.643 -17.204 -20.938  0.00  0.00    +0.096 C 
BRANCH  26  32
ATOM     30  O   UNL     1      33.750 -15.661 -24.439  0.00  0.00    -0.274 OA
ATOM     31  N   UNL     1      34.228 -13.653 -23.363  0.00  0.00    -0.303 N 
ATOM     32  C   UNL     1      34.225 -15.030 -23.498  0.00  0.00    +0.239 C 
ATOM     33  H   UNL     1      34.642 -13.262 -22.559  0.00  0.00    +0.149 HD
BRANCH  31  34
ATOM     34  C   UNL     1      33.653 -12.761 -24.343  0.00  0.00    +0.101 C 
BRANCH  34  35
ATOM     35  C   UNL     1      33.609 -11.320 -23.850  0.00  0.00    +0.131 C 
BRANCH  35  37
ATOM     36  O   UNL     1      35.153  -9.443 -24.010  0.00  0.00    -0.250 OA
ATOM     37  C   UNL     1      34.649 -10.440 -24.507  0.00  0.00    +0.316 C 
BRANCH  37  38
ATOM     38  O   UNL     1      34.976 -10.897 -25.744  0.00  0.00    -0.480 OA
ATOM     39  H   UNL     1      34.443 -10.675 -26.481  0.00  0.00    +0.295 HD
ENDBRANCH  37  38
ENDBRANCH  35  37
ENDBRANCH  34  35
ENDBRANCH  31  34
ENDBRANCH  26  32
ENDBRANCH  22  25
ENDBRANCH   1  22
TORSDOF 15
ENDMDL
