MODEL 1
REMARK VINA RESULT:      -9.7      0.000      0.000
REMARK  Name = 68876
REMARK  10 active torsions:
REMARK  status: ('A' for Active; 'I' for Inactive)
REMARK    1  A    between atoms: C_4  and  C_21
REMARK    2  A    between atoms: C_12  and  O_14
REMARK    3  A    between atoms: O_14  and  C_15
REMARK    4  A    between atoms: C_15  and  C_17
REMARK    5  A    between atoms: C_17  and  O_18
REMARK    6  A    between atoms: O_18  and  C_19
REMARK    7  A    between atoms: C_21  and  C_22
REMARK    8  A    between atoms: C_22  and  N_23
REMARK    9  A    between atoms: N_23  and  C_25
REMARK   10  A    between atoms: N_23  and  C_27
REMARK                            x       y       z     vdW  Elec       q    Type
REMARK                         _______ _______ _______ _____ _____    ______ ____
ROOT
ATOM      1 CL   UNL     1      30.724 -24.821 -13.296  0.00  0.00    -0.076 Cl
ATOM      2  O   UNL     1      33.568 -24.406 -12.803  0.00  0.00    -0.420 OA
ATOM      3  O   UNL     1      35.165 -24.632 -11.205  0.00  0.00    -0.245 OA
ATOM      4  C   UNL     1      35.878 -23.719 -13.287  0.00  0.00    +0.048 A 
ATOM      5  C   UNL     1      35.544 -23.376 -14.550  0.00  0.00    -0.017 A 
ATOM      6  C   UNL     1      34.139 -23.509 -14.991  0.00  0.00    +0.032 A 
ATOM      7  C   UNL     1      33.200 -24.020 -14.101  0.00  0.00    +0.162 A 
ATOM      8  C   UNL     1      34.868 -24.281 -12.343  0.00  0.00    +0.341 A 
ATOM      9  C   UNL     1      36.534 -22.869 -15.569  0.00  0.00    +0.031 C 
ATOM     10  C   UNL     1      33.679 -23.137 -16.264  0.00  0.00    +0.006 C 
ATOM     11  C   UNL     1      31.853 -24.178 -14.437  0.00  0.00    +0.126 C 
ATOM     12  C   UNL     1      31.420 -23.808 -15.704  0.00  0.00    +0.153 C 
ATOM     13  C   UNL     1      32.333 -23.288 -16.618  0.00  0.00    +0.038 C 
ENDROOT
BRANCH  12  14
ATOM     14  O   UNL     1      30.119 -23.944 -16.084  0.00  0.00    -0.463 OA
BRANCH  14  15
ATOM     15  C   UNL     1      29.275 -22.806 -15.926  0.00  0.00    +0.314 C 
BRANCH  15  17
ATOM     16  O   UNL     1      27.799 -23.889 -17.516  0.00  0.00    -0.246 OA
ATOM     17  C   UNL     1      28.174 -22.869 -16.952  0.00  0.00    +0.362 C 
BRANCH  17  18
ATOM     18  O   UNL     1      27.673 -21.614 -17.145  0.00  0.00    -0.446 OA
BRANCH  18  19
ATOM     19  C   UNL     1      26.246 -21.522 -17.205  0.00  0.00    +0.209 C 
ATOM     20  C   UNL     1      25.829 -21.249 -18.633  0.00  0.00    +0.051 C 
ENDBRANCH  18  19
ENDBRANCH  17  18
ENDBRANCH  15  17
ENDBRANCH  14  15
ENDBRANCH  12  14
BRANCH   4  21
ATOM     21  C   UNL     1      37.255 -23.576 -12.691  0.00  0.00    +0.010 C 
BRANCH  21  22
ATOM     22  C   UNL     1      37.894 -24.940 -12.484  0.00  0.00    -0.072 C 
BRANCH  22  23
ATOM     23  N   UNL     1      38.174 -25.552 -13.778  0.00  0.00    +0.387 N 
ATOM     24  H   UNL     1      37.933 -24.880 -14.507  0.00  0.00    -0.080 HD
BRANCH  23  25
ATOM     25  C   UNL     1      39.597 -25.875 -13.897  0.00  0.00    -0.077 C 
ATOM     26  C   UNL     1      40.222 -25.167 -15.087  0.00  0.00    -0.025 C 
ENDBRANCH  23  25
BRANCH  23  27
ATOM     27  C   UNL     1      37.361 -26.754 -13.966  0.00  0.00    -0.077 C 
ATOM     28  C   UNL     1      36.698 -26.761 -15.332  0.00  0.00    -0.025 C 
ENDBRANCH  23  27
ENDBRANCH  22  23
ENDBRANCH  21  22
ENDBRANCH   4  21
TORSDOF 10
ENDMDL
MODEL 2
REMARK VINA RESULT:      -9.3      5.648      9.459
REMARK  Name = 68876
REMARK  10 active torsions:
REMARK  status: ('A' for Active; 'I' for Inactive)
REMARK    1  A    between atoms: C_4  and  C_21
REMARK    2  A    between atoms: C_12  and  O_14
REMARK    3  A    between atoms: O_14  and  C_15
REMARK    4  A    between atoms: C_15  and  C_17
REMARK    5  A    between atoms: C_17  and  O_18
REMARK    6  A    between atoms: O_18  and  C_19
REMARK    7  A    between atoms: C_21  and  C_22
REMARK    8  A    between atoms: C_22  and  N_23
REMARK    9  A    between atoms: N_23  and  C_25
REMARK   10  A    between atoms: N_23  and  C_27
REMARK                            x       y       z     vdW  Elec       q    Type
REMARK                         _______ _______ _______ _____ _____    ______ ____
ROOT
ATOM      1 CL   UNL     1      32.906 -23.541 -16.572  0.00  0.00    -0.076 Cl
ATOM      2  O   UNL     1      33.434 -21.830 -18.874  0.00  0.00    -0.420 OA
ATOM      3  O   UNL     1      32.416 -20.840 -20.644  0.00  0.00    -0.245 OA
ATOM      4  C   UNL     1      34.765 -20.490 -20.447  0.00  0.00    +0.048 A 
ATOM      5  C   UNL     1      35.886 -20.702 -19.726  0.00  0.00    -0.017 A 
ATOM      6  C   UNL     1      35.825 -21.553 -18.520  0.00  0.00    +0.032 A 
ATOM      7  C   UNL     1      34.599 -22.088 -18.135  0.00  0.00    +0.162 A 
ATOM      8  C   UNL     1      33.451 -21.054 -20.021  0.00  0.00    +0.341 A 
ATOM      9  C   UNL     1      37.227 -20.101 -20.069  0.00  0.00    +0.031 C 
ATOM     10  C   UNL     1      36.939 -21.874 -17.728  0.00  0.00    +0.006 C 
ATOM     11  C   UNL     1      34.453 -22.902 -17.009  0.00  0.00    +0.126 C 
ATOM     12  C   UNL     1      35.568 -23.203 -16.237  0.00  0.00    +0.153 C 
ATOM     13  C   UNL     1      36.811 -22.689 -16.597  0.00  0.00    +0.038 C 
ENDROOT
BRANCH  12  14
ATOM     14  O   UNL     1      35.480 -23.990 -15.129  0.00  0.00    -0.463 OA
BRANCH  14  15
ATOM     15  C   UNL     1      36.701 -24.493 -14.592  0.00  0.00    +0.314 C 
BRANCH  15  17
ATOM     16  O   UNL     1      36.098 -26.536 -15.749  0.00  0.00    -0.246 OA
ATOM     17  C   UNL     1      36.852 -25.936 -14.994  0.00  0.00    +0.362 C 
BRANCH  17  18
ATOM     18  O   UNL     1      37.957 -26.455 -14.381  0.00  0.00    -0.446 OA
BRANCH  18  19
ATOM     19  C   UNL     1      38.900 -25.494 -13.895  0.00  0.00    +0.209 C 
ATOM     20  C   UNL     1      40.252 -25.774 -14.512  0.00  0.00    +0.051 C 
ENDBRANCH  18  19
ENDBRANCH  17  18
ENDBRANCH  15  17
ENDBRANCH  14  15
ENDBRANCH  12  14
BRANCH   4  21
ATOM     21  C   UNL     1      34.699 -19.697 -21.727  0.00  0.00    +0.010 C 
BRANCH  21  22
ATOM     22  C   UNL     1      34.766 -18.206 -21.438  0.00  0.00    -0.072 C 
BRANCH  22  23
ATOM     23  N   UNL     1      35.384 -17.516 -22.564  0.00  0.00    +0.387 N 
ATOM     24  H   UNL     1      36.388 -17.457 -22.390  0.00  0.00    -0.080 HD
BRANCH  23  25
ATOM     25  C   UNL     1      35.170 -18.262 -23.806  0.00  0.00    -0.077 C 
ATOM     26  C   UNL     1      34.699 -17.346 -24.922  0.00  0.00    -0.025 C 
ENDBRANCH  23  25
BRANCH  23  27
ATOM     27  C   UNL     1      34.853 -16.158 -22.689  0.00  0.00    -0.077 C 
ATOM     28  C   UNL     1      34.265 -15.674 -21.375  0.00  0.00    -0.025 C 
ENDBRANCH  23  27
ENDBRANCH  22  23
ENDBRANCH  21  22
ENDBRANCH   4  21
TORSDOF 10
ENDMDL
MODEL 3
REMARK VINA RESULT:      -9.1      6.090      9.541
REMARK  Name = 68876
REMARK  10 active torsions:
REMARK  status: ('A' for Active; 'I' for Inactive)
REMARK    1  A    between atoms: C_4  and  C_21
REMARK    2  A    between atoms: C_12  and  O_14
REMARK    3  A    between atoms: O_14  and  C_15
REMARK    4  A    between atoms: C_15  and  C_17
REMARK    5  A    between atoms: C_17  and  O_18
REMARK    6  A    between atoms: O_18  and  C_19
REMARK    7  A    between atoms: C_21  and  C_22
REMARK    8  A    between atoms: C_22  and  N_23
REMARK    9  A    between atoms: N_23  and  C_25
REMARK   10  A    between atoms: N_23  and  C_27
REMARK                            x       y       z     vdW  Elec       q    Type
REMARK                         _______ _______ _______ _____ _____    ______ ____
ROOT
ATOM      1 CL   UNL     1      37.826 -22.369 -16.425  0.00  0.00    -0.076 Cl
ATOM      2  O   UNL     1      36.757 -21.056 -18.799  0.00  0.00    -0.420 OA
ATOM      3  O   UNL     1      37.348 -19.696 -20.517  0.00  0.00    -0.245 OA
ATOM      4  C   UNL     1      35.066 -20.377 -20.449  0.00  0.00    +0.048 A 
ATOM      5  C   UNL     1      34.121 -21.117 -19.830  0.00  0.00    -0.017 A 
ATOM      6  C   UNL     1      34.468 -21.856 -18.599  0.00  0.00    +0.032 A 
ATOM      7  C   UNL     1      35.776 -21.800 -18.126  0.00  0.00    +0.162 A 
ATOM      8  C   UNL     1      36.470 -20.333 -19.945  0.00  0.00    +0.341 A 
ATOM      9  C   UNL     1      32.705 -21.255 -20.333  0.00  0.00    +0.031 C 
ATOM     10  C   UNL     1      33.551 -22.615 -17.855  0.00  0.00    +0.006 C 
ATOM     11  C   UNL     1      36.187 -22.468 -16.970  0.00  0.00    +0.126 C 
ATOM     12  C   UNL     1      35.264 -23.218 -16.252  0.00  0.00    +0.153 C 
ATOM     13  C   UNL     1      33.946 -23.291 -16.694  0.00  0.00    +0.038 C 
ENDROOT
BRANCH  12  14
ATOM     14  O   UNL     1      35.614 -23.891 -15.120  0.00  0.00    -0.463 OA
BRANCH  14  15
ATOM     15  C   UNL     1      35.368 -25.295 -15.098  0.00  0.00    +0.314 C 
BRANCH  15  17
ATOM     16  O   UNL     1      36.788 -27.119 -15.827  0.00  0.00    -0.246 OA
ATOM     17  C   UNL     1      36.672 -26.021 -15.299  0.00  0.00    +0.362 C 
BRANCH  17  18
ATOM     18  O   UNL     1      37.688 -25.257 -14.799  0.00  0.00    -0.446 OA
BRANCH  18  19
ATOM     19  C   UNL     1      38.488 -25.881 -13.790  0.00  0.00    +0.209 C 
ATOM     20  C   UNL     1      39.948 -25.738 -14.160  0.00  0.00    +0.051 C 
ENDBRANCH  18  19
ENDBRANCH  17  18
ENDBRANCH  15  17
ENDBRANCH  14  15
ENDBRANCH  12  14
BRANCH   4  21
ATOM     21  C   UNL     1      34.833 -19.529 -21.673  0.00  0.00    +0.010 C 
BRANCH  21  22
ATOM     22  C   UNL     1      34.703 -18.063 -21.293  0.00  0.00    -0.072 C 
BRANCH  22  23
ATOM     23  N   UNL     1      35.315 -17.233 -22.324  0.00  0.00    +0.387 N 
ATOM     24  H   UNL     1      36.311 -17.155 -22.121  0.00  0.00    -0.080 HD
BRANCH  23  25
ATOM     25  C   UNL     1      35.156 -17.851 -23.643  0.00  0.00    -0.077 C 
ATOM     26  C   UNL     1      34.733 -16.825 -24.681  0.00  0.00    -0.025 C 
ENDBRANCH  23  25
BRANCH  23  27
ATOM     27  C   UNL     1      34.731 -15.891 -22.318  0.00  0.00    -0.077 C 
ATOM     28  C   UNL     1      34.448 -15.421 -20.901  0.00  0.00    -0.025 C 
ENDBRANCH  23  27
ENDBRANCH  22  23
ENDBRANCH  21  22
ENDBRANCH   4  21
TORSDOF 10
ENDMDL
MODEL 4
REMARK VINA RESULT:      -9.0     12.295     14.977
REMARK  Name = 68876
REMARK  10 active torsions:
REMARK  status: ('A' for Active; 'I' for Inactive)
REMARK    1  A    between atoms: C_4  and  C_21
REMARK    2  A    between atoms: C_12  and  O_14
REMARK    3  A    between atoms: O_14  and  C_15
REMARK    4  A    between atoms: C_15  and  C_17
REMARK    5  A    between atoms: C_17  and  O_18
REMARK    6  A    between atoms: O_18  and  C_19
REMARK    7  A    between atoms: C_21  and  C_22
REMARK    8  A    between atoms: C_22  and  N_23
REMARK    9  A    between atoms: N_23  and  C_25
REMARK   10  A    between atoms: N_23  and  C_27
REMARK                            x       y       z     vdW  Elec       q    Type
REMARK                         _______ _______ _______ _____ _____    ______ ____
ROOT
ATOM      1 CL   UNL     1      32.272 -15.834 -20.338  0.00  0.00    -0.076 Cl
ATOM      2  O   UNL     1      31.868 -13.086 -21.226  0.00  0.00    -0.420 OA
ATOM      3  O   UNL     1      30.736 -11.184 -20.719  0.00  0.00    -0.245 OA
ATOM      4  C   UNL     1      32.122 -11.103 -22.656  0.00  0.00    +0.048 A 
ATOM      5  C   UNL     1      33.007 -11.748 -23.445  0.00  0.00    -0.017 A 
ATOM      6  C   UNL     1      33.341 -13.159 -23.161  0.00  0.00    +0.032 A 
ATOM      7  C   UNL     1      32.759 -13.779 -22.059  0.00  0.00    +0.162 A 
ATOM      8  C   UNL     1      31.513 -11.769 -21.468  0.00  0.00    +0.341 A 
ATOM      9  C   UNL     1      33.707 -11.105 -24.618  0.00  0.00    +0.031 C 
ATOM     10  C   UNL     1      34.210 -13.933 -23.946  0.00  0.00    +0.006 C 
ATOM     11  C   UNL     1      33.019 -15.109 -21.720  0.00  0.00    +0.126 C 
ATOM     12  C   UNL     1      33.887 -15.856 -22.507  0.00  0.00    +0.153 C 
ATOM     13  C   UNL     1      34.483 -15.268 -23.620  0.00  0.00    +0.038 C 
ENDROOT
BRANCH  12  14
ATOM     14  O   UNL     1      34.177 -17.155 -22.219  0.00  0.00    -0.463 OA
BRANCH  14  15
ATOM     15  C   UNL     1      35.555 -17.503 -22.111  0.00  0.00    +0.314 C 
BRANCH  15  17
ATOM     16  O   UNL     1      36.527 -18.983 -20.455  0.00  0.00    -0.246 OA
ATOM     17  C   UNL     1      35.676 -18.772 -21.309  0.00  0.00    +0.362 C 
BRANCH  17  18
ATOM     18  O   UNL     1      34.690 -19.635 -21.691  0.00  0.00    -0.446 OA
BRANCH  18  19
ATOM     19  C   UNL     1      34.043 -20.342 -20.628  0.00  0.00    +0.209 C 
ATOM     20  C   UNL     1      32.632 -19.819 -20.475  0.00  0.00    +0.051 C 
ENDBRANCH  18  19
ENDBRANCH  17  18
ENDBRANCH  15  17
ENDBRANCH  14  15
ENDBRANCH  12  14
BRANCH   4  21
ATOM     21  C   UNL     1      31.648  -9.688 -22.869  0.00  0.00    +0.010 C 
BRANCH  21  22
ATOM     22  C   UNL     1      32.611  -8.698 -22.235  0.00  0.00    -0.072 C 
BRANCH  22  23
ATOM     23  N   UNL     1      32.328  -7.355 -22.726  0.00  0.00    +0.387 N 
ATOM     24  H   UNL     1      31.449  -7.383 -23.243  0.00  0.00    -0.080 HD
BRANCH  23  25
ATOM     25  C   UNL     1      32.182  -6.418 -21.610  0.00  0.00    -0.077 C 
ATOM     26  C   UNL     1      32.371  -7.122 -20.276  0.00  0.00    -0.025 C 
ENDBRANCH  23  25
BRANCH  23  27
ATOM     27  C   UNL     1      33.386  -6.905 -23.632  0.00  0.00    -0.077 C 
ATOM     28  C   UNL     1      34.704  -7.595 -23.324  0.00  0.00    -0.025 C 
ENDBRANCH  23  27
ENDBRANCH  22  23
ENDBRANCH  21  22
ENDBRANCH   4  21
TORSDOF 10
ENDMDL
MODEL 5
REMARK VINA RESULT:      -9.0      5.663      6.638
REMARK  Name = 68876
REMARK  10 active torsions:
REMARK  status: ('A' for Active; 'I' for Inactive)
REMARK    1  A    between atoms: C_4  and  C_21
REMARK    2  A    between atoms: C_12  and  O_14
REMARK    3  A    between atoms: O_14  and  C_15
REMARK    4  A    between atoms: C_15  and  C_17
REMARK    5  A    between atoms: C_17  and  O_18
REMARK    6  A    between atoms: O_18  and  C_19
REMARK    7  A    between atoms: C_21  and  C_22
REMARK    8  A    between atoms: C_22  and  N_23
REMARK    9  A    between atoms: N_23  and  C_25
REMARK   10  A    between atoms: N_23  and  C_27
REMARK                            x       y       z     vdW  Elec       q    Type
REMARK                         _______ _______ _______ _____ _____    ______ ____
ROOT
ATOM      1 CL   UNL     1      37.321 -20.167 -20.092  0.00  0.00    -0.076 Cl
ATOM      2  O   UNL     1      36.906 -21.750 -17.678  0.00  0.00    -0.420 OA
ATOM      3  O   UNL     1      37.989 -22.561 -15.856  0.00  0.00    -0.245 OA
ATOM      4  C   UNL     1      35.682 -23.127 -16.050  0.00  0.00    +0.048 A 
ATOM      5  C   UNL     1      34.536 -22.989 -16.749  0.00  0.00    -0.017 A 
ATOM      6  C   UNL     1      34.543 -22.222 -18.013  0.00  0.00    +0.032 A 
ATOM      7  C   UNL     1      35.729 -21.628 -18.433  0.00  0.00    +0.162 A 
ATOM      8  C   UNL     1      36.948 -22.475 -16.499  0.00  0.00    +0.341 A 
ATOM      9  C   UNL     1      33.213 -23.565 -16.308  0.00  0.00    +0.031 C 
ATOM     10  C   UNL     1      33.418 -22.058 -18.837  0.00  0.00    +0.006 C 
ATOM     11  C   UNL     1      35.822 -20.888 -19.614  0.00  0.00    +0.126 C 
ATOM     12  C   UNL     1      34.696 -20.734 -20.412  0.00  0.00    +0.153 C 
ATOM     13  C   UNL     1      33.494 -21.319 -20.024  0.00  0.00    +0.038 C 
ENDROOT
BRANCH  12  14
ATOM     14  O   UNL     1      34.732 -20.019 -21.572  0.00  0.00    -0.463 OA
BRANCH  14  15
ATOM     15  C   UNL     1      34.072 -18.756 -21.576  0.00  0.00    +0.314 C 
BRANCH  15  17
ATOM     16  O   UNL     1      35.383 -17.044 -20.469  0.00  0.00    -0.246 OA
ATOM     17  C   UNL     1      35.106 -17.665 -21.487  0.00  0.00    +0.362 C 
BRANCH  17  18
ATOM     18  O   UNL     1      35.674 -17.489 -22.716  0.00  0.00    -0.446 OA
BRANCH  18  19
ATOM     19  C   UNL     1      35.004 -16.562 -23.577  0.00  0.00    +0.209 C 
ATOM     20  C   UNL     1      34.730 -17.232 -24.905  0.00  0.00    +0.051 C 
ENDBRANCH  18  19
ENDBRANCH  17  18
ENDBRANCH  15  17
ENDBRANCH  14  15
ENDBRANCH  12  14
BRANCH   4  21
ATOM     21  C   UNL     1      35.829 -23.930 -14.784  0.00  0.00    +0.010 C 
BRANCH  21  22
ATOM     22  C   UNL     1      36.696 -25.155 -15.023  0.00  0.00    -0.072 C 
BRANCH  22  23
ATOM     23  N   UNL     1      37.911 -25.060 -14.222  0.00  0.00    +0.387 N 
ATOM     24  H   UNL     1      38.302 -24.126 -14.346  0.00  0.00    -0.080 HD
BRANCH  23  25
ATOM     25  C   UNL     1      37.609 -25.251 -12.802  0.00  0.00    -0.077 C 
ATOM     26  C   UNL     1      38.191 -24.127 -11.961  0.00  0.00    -0.025 C 
ENDBRANCH  23  25
BRANCH  23  27
ATOM     27  C   UNL     1      38.901 -26.042 -14.668  0.00  0.00    -0.077 C 
ATOM     28  C   UNL     1      40.262 -25.397 -14.870  0.00  0.00    -0.025 C 
ENDBRANCH  23  27
ENDBRANCH  22  23
ENDBRANCH  21  22
ENDBRANCH   4  21
TORSDOF 10
ENDMDL
MODEL 6
REMARK VINA RESULT:      -8.9      5.464      6.686
REMARK  Name = 68876
REMARK  10 active torsions:
REMARK  status: ('A' for Active; 'I' for Inactive)
REMARK    1  A    between atoms: C_4  and  C_21
REMARK    2  A    between atoms: C_12  and  O_14
REMARK    3  A    between atoms: O_14  and  C_15
REMARK    4  A    between atoms: C_15  and  C_17
REMARK    5  A    between atoms: C_17  and  O_18
REMARK    6  A    between atoms: O_18  and  C_19
REMARK    7  A    between atoms: C_21  and  C_22
REMARK    8  A    between atoms: C_22  and  N_23
REMARK    9  A    between atoms: N_23  and  C_25
REMARK   10  A    between atoms: N_23  and  C_27
REMARK                            x       y       z     vdW  Elec       q    Type
REMARK                         _______ _______ _______ _____ _____    ______ ____
ROOT
ATOM      1 CL   UNL     1      32.747 -20.985 -20.576  0.00  0.00    -0.076 Cl
ATOM      2  O   UNL     1      33.348 -22.414 -18.106  0.00  0.00    -0.420 OA
ATOM      3  O   UNL     1      32.382 -23.664 -16.476  0.00  0.00    -0.245 OA
ATOM      4  C   UNL     1      34.715 -23.241 -16.239  0.00  0.00    +0.048 A 
ATOM      5  C   UNL     1      35.827 -22.686 -16.767  0.00  0.00    -0.017 A 
ATOM      6  C   UNL     1      35.726 -21.911 -18.021  0.00  0.00    +0.032 A 
ATOM      7  C   UNL     1      34.489 -21.802 -18.647  0.00  0.00    +0.162 A 
ATOM      8  C   UNL     1      33.394 -23.133 -16.924  0.00  0.00    +0.341 A 
ATOM      9  C   UNL     1      37.200 -22.821 -16.156  0.00  0.00    +0.031 C 
ATOM     10  C   UNL     1      36.810 -21.256 -18.627  0.00  0.00    +0.006 C 
ATOM     11  C   UNL     1      34.306 -21.088 -19.834  0.00  0.00    +0.126 C 
ATOM     12  C   UNL     1      35.394 -20.451 -20.420  0.00  0.00    +0.153 C 
ATOM     13  C   UNL     1      36.646 -20.535 -19.816  0.00  0.00    +0.038 C 
ENDROOT
BRANCH  12  14
ATOM     14  O   UNL     1      35.271 -19.745 -21.578  0.00  0.00    -0.463 OA
BRANCH  14  15
ATOM     15  C   UNL     1      36.067 -18.569 -21.708  0.00  0.00    +0.314 C 
BRANCH  15  17
ATOM     16  O   UNL     1      35.182 -16.709 -20.430  0.00  0.00    -0.246 OA
ATOM     17  C   UNL     1      35.199 -17.363 -21.465  0.00  0.00    +0.362 C 
BRANCH  17  18
ATOM     18  O   UNL     1      34.444 -17.127 -22.578  0.00  0.00    -0.446 OA
BRANCH  18  19
ATOM     19  C   UNL     1      35.029 -16.248 -23.544  0.00  0.00    +0.209 C 
ATOM     20  C   UNL     1      34.739 -16.777 -24.931  0.00  0.00    +0.051 C 
ENDBRANCH  18  19
ENDBRANCH  17  18
ENDBRANCH  15  17
ENDBRANCH  14  15
ENDBRANCH  12  14
BRANCH   4  21
ATOM     21  C   UNL     1      34.665 -24.002 -14.939  0.00  0.00    +0.010 C 
BRANCH  21  22
ATOM     22  C   UNL     1      35.559 -25.230 -15.002  0.00  0.00    -0.072 C 
BRANCH  22  23
ATOM     23  N   UNL     1      36.006 -25.581 -13.658  0.00  0.00    +0.387 N 
ATOM     24  H   UNL     1      35.258 -26.103 -13.200  0.00  0.00    -0.080 HD
BRANCH  23  25
ATOM     25  C   UNL     1      37.197 -26.431 -13.718  0.00  0.00    -0.077 C 
ATOM     26  C   UNL     1      38.466 -25.596 -13.729  0.00  0.00    -0.025 C 
ENDBRANCH  23  25
BRANCH  23  27
ATOM     27  C   UNL     1      36.280 -24.375 -12.875  0.00  0.00    -0.077 C 
ATOM     28  C   UNL     1      35.764 -24.515 -11.453  0.00  0.00    -0.025 C 
ENDBRANCH  23  27
ENDBRANCH  22  23
ENDBRANCH  21  22
ENDBRANCH   4  21
TORSDOF 10
ENDMDL
MODEL 7
REMARK VINA RESULT:      -8.8      6.003      8.600
REMARK  Name = 68876
REMARK  10 active torsions:
REMARK  status: ('A' for Active; 'I' for Inactive)
REMARK    1  A    between atoms: C_4  and  C_21
REMARK    2  A    between atoms: C_12  and  O_14
REMARK    3  A    between atoms: O_14  and  C_15
REMARK    4  A    between atoms: C_15  and  C_17
REMARK    5  A    between atoms: C_17  and  O_18
REMARK    6  A    between atoms: O_18  and  C_19
REMARK    7  A    between atoms: C_21  and  C_22
REMARK    8  A    between atoms: C_22  and  N_23
REMARK    9  A    between atoms: N_23  and  C_25
REMARK   10  A    between atoms: N_23  and  C_27
REMARK                            x       y       z     vdW  Elec       q    Type
REMARK                         _______ _______ _______ _____ _____    ______ ____
ROOT
ATOM      1 CL   UNL     1      37.606 -22.467 -16.398  0.00  0.00    -0.076 Cl
ATOM      2  O   UNL     1      36.694 -21.095 -18.804  0.00  0.00    -0.420 OA
ATOM      3  O   UNL     1      37.416 -19.757 -20.490  0.00  0.00    -0.245 OA
ATOM      4  C   UNL     1      35.103 -20.329 -20.514  0.00  0.00    +0.048 A 
ATOM      5  C   UNL     1      34.101 -21.025 -19.937  0.00  0.00    -0.017 A 
ATOM      6  C   UNL     1      34.364 -21.786 -18.697  0.00  0.00    +0.032 A 
ATOM      7  C   UNL     1      35.654 -21.794 -18.174  0.00  0.00    +0.162 A 
ATOM      8  C   UNL     1      36.487 -20.354 -19.956  0.00  0.00    +0.341 A 
ATOM      9  C   UNL     1      32.700 -21.093 -20.495  0.00  0.00    +0.031 C 
ATOM     10  C   UNL     1      33.383 -22.503 -17.994  0.00  0.00    +0.006 C 
ATOM     11  C   UNL     1      35.987 -22.486 -17.007  0.00  0.00    +0.126 C 
ATOM     12  C   UNL     1      35.002 -23.194 -16.330  0.00  0.00    +0.153 C 
ATOM     13  C   UNL     1      33.700 -23.202 -16.823  0.00  0.00    +0.038 C 
ENDROOT
BRANCH  12  14
ATOM     14  O   UNL     1      35.276 -23.888 -15.190  0.00  0.00    -0.463 OA
BRANCH  14  15
ATOM     15  C   UNL     1      34.224 -24.681 -14.645  0.00  0.00    +0.314 C 
BRANCH  15  17
ATOM     16  O   UNL     1      34.631 -24.301 -12.286  0.00  0.00    -0.246 OA
ATOM     17  C   UNL     1      33.902 -24.180 -13.262  0.00  0.00    +0.362 C 
BRANCH  17  18
ATOM     18  O   UNL     1      32.676 -23.579 -13.281  0.00  0.00    -0.446 OA
BRANCH  18  19
ATOM     19  C   UNL     1      31.624 -24.342 -13.881  0.00  0.00    +0.209 C 
ATOM     20  C   UNL     1      30.630 -23.395 -14.516  0.00  0.00    +0.051 C 
ENDBRANCH  18  19
ENDBRANCH  17  18
ENDBRANCH  15  17
ENDBRANCH  14  15
ENDBRANCH  12  14
BRANCH   4  21
ATOM     21  C   UNL     1      34.958 -19.465 -21.740  0.00  0.00    +0.010 C 
BRANCH  21  22
ATOM     22  C   UNL     1      34.784 -18.006 -21.352  0.00  0.00    -0.072 C 
BRANCH  22  23
ATOM     23  N   UNL     1      35.246 -17.150 -22.438  0.00  0.00    +0.387 N 
ATOM     24  H   UNL     1      36.242 -16.976 -22.304  0.00  0.00    -0.080 HD
BRANCH  23  25
ATOM     25  C   UNL     1      35.061 -17.814 -23.731  0.00  0.00    -0.077 C 
ATOM     26  C   UNL     1      34.764 -16.804 -24.827  0.00  0.00    -0.025 C 
ENDBRANCH  23  25
BRANCH  23  27
ATOM     27  C   UNL     1      34.542 -15.868 -22.419  0.00  0.00    -0.077 C 
ATOM     28  C   UNL     1      34.489 -15.291 -21.014  0.00  0.00    -0.025 C 
ENDBRANCH  23  27
ENDBRANCH  22  23
ENDBRANCH  21  22
ENDBRANCH   4  21
TORSDOF 10
ENDMDL
MODEL 8
REMARK VINA RESULT:      -8.8     12.662     15.449
REMARK  Name = 68876
REMARK  10 active torsions:
REMARK  status: ('A' for Active; 'I' for Inactive)
REMARK    1  A    between atoms: C_4  and  C_21
REMARK    2  A    between atoms: C_12  and  O_14
REMARK    3  A    between atoms: O_14  and  C_15
REMARK    4  A    between atoms: C_15  and  C_17
REMARK    5  A    between atoms: C_17  and  O_18
REMARK    6  A    between atoms: O_18  and  C_19
REMARK    7  A    between atoms: C_21  and  C_22
REMARK    8  A    between atoms: C_22  and  N_23
REMARK    9  A    between atoms: N_23  and  C_25
REMARK   10  A    between atoms: N_23  and  C_27
REMARK                            x       y       z     vdW  Elec       q    Type
REMARK                         _______ _______ _______ _____ _____    ______ ____
ROOT
ATOM      1 CL   UNL     1      34.702 -15.220 -23.881  0.00  0.00    -0.076 Cl
ATOM      2  O   UNL     1      33.481 -12.586 -23.608  0.00  0.00    -0.420 OA
ATOM      3  O   UNL     1      33.332 -10.562 -24.626  0.00  0.00    -0.245 OA
ATOM      4  C   UNL     1      32.155 -10.797 -22.567  0.00  0.00    +0.048 A 
ATOM      5  C   UNL     1      31.797 -11.611 -21.552  0.00  0.00    -0.017 A 
ATOM      6  C   UNL     1      32.321 -12.992 -21.509  0.00  0.00    +0.032 A 
ATOM      7  C   UNL     1      33.145 -13.432 -22.540  0.00  0.00    +0.162 A 
ATOM      8  C   UNL     1      33.028 -11.279 -23.677  0.00  0.00    +0.341 A 
ATOM      9  C   UNL     1      30.862 -11.201 -20.440  0.00  0.00    +0.031 C 
ATOM     10  C   UNL     1      32.048 -13.902 -20.475  0.00  0.00    +0.006 C 
ATOM     11  C   UNL     1      33.683 -14.721 -22.575  0.00  0.00    +0.126 C 
ATOM     12  C   UNL     1      33.396 -15.607 -21.545  0.00  0.00    +0.153 C 
ATOM     13  C   UNL     1      32.579 -15.198 -20.495  0.00  0.00    +0.038 C 
ENDROOT
BRANCH  12  14
ATOM     14  O   UNL     1      33.893 -16.876 -21.533  0.00  0.00    -0.463 OA
BRANCH  14  15
ATOM     15  C   UNL     1      35.174 -17.065 -20.938  0.00  0.00    +0.314 C 
BRANCH  15  17
ATOM     16  O   UNL     1      35.927 -19.335 -20.541  0.00  0.00    -0.246 OA
ATOM     17  C   UNL     1      35.695 -18.424 -21.325  0.00  0.00    +0.362 C 
BRANCH  17  18
ATOM     18  O   UNL     1      35.863 -18.467 -22.680  0.00  0.00    -0.446 OA
BRANCH  18  19
ATOM     19  C   UNL     1      35.000 -19.370 -23.379  0.00  0.00    +0.209 C 
ATOM     20  C   UNL     1      34.505 -18.700 -24.642  0.00  0.00    +0.051 C 
ENDBRANCH  18  19
ENDBRANCH  17  18
ENDBRANCH  15  17
ENDBRANCH  14  15
ENDBRANCH  12  14
BRANCH   4  21
ATOM     21  C   UNL     1      31.744  -9.353 -22.701  0.00  0.00    +0.010 C 
BRANCH  21  22
ATOM     22  C   UNL     1      32.707  -8.449 -21.948  0.00  0.00    -0.072 C 
BRANCH  22  23
ATOM     23  N   UNL     1      32.655  -7.103 -22.507  0.00  0.00    +0.387 N 
ATOM     24  H   UNL     1      33.034  -6.456 -21.815  0.00  0.00    -0.080 HD
BRANCH  23  25
ATOM     25  C   UNL     1      33.472  -7.018 -23.719  0.00  0.00    -0.077 C 
ATOM     26  C   UNL     1      34.871  -7.558 -23.477  0.00  0.00    -0.025 C 
ENDBRANCH  23  25
BRANCH  23  27
ATOM     27  C   UNL     1      31.273  -6.718 -22.796  0.00  0.00    -0.077 C 
ATOM     28  C   UNL     1      30.836  -5.549 -21.930  0.00  0.00    -0.025 C 
ENDBRANCH  23  27
ENDBRANCH  22  23
ENDBRANCH  21  22
ENDBRANCH   4  21
TORSDOF 10
ENDMDL
MODEL 9
REMARK VINA RESULT:      -8.8     12.054     13.880
REMARK  Name = 68876
REMARK  10 active torsions:
REMARK  status: ('A' for Active; 'I' for Inactive)
REMARK    1  A    between atoms: C_4  and  C_21
REMARK    2  A    between atoms: C_12  and  O_14
REMARK    3  A    between atoms: O_14  and  C_15
REMARK    4  A    between atoms: C_15  and  C_17
REMARK    5  A    between atoms: C_17  and  O_18
REMARK    6  A    between atoms: O_18  and  C_19
REMARK    7  A    between atoms: C_21  and  C_22
REMARK    8  A    between atoms: C_22  and  N_23
REMARK    9  A    between atoms: N_23  and  C_25
REMARK   10  A    between atoms: N_23  and  C_27
REMARK                            x       y       z     vdW  Elec       q    Type
REMARK                         _______ _______ _______ _____ _____    ______ ____
ROOT
ATOM      1 CL   UNL     1      33.965 -11.248 -24.859  0.00  0.00    -0.076 Cl
ATOM      2  O   UNL     1      34.221 -13.974 -23.854  0.00  0.00    -0.420 OA
ATOM      3  O   UNL     1      35.250 -15.952 -24.276  0.00  0.00    -0.245 OA
ATOM      4  C   UNL     1      33.796 -15.900 -22.389  0.00  0.00    +0.048 A 
ATOM      5  C   UNL     1      32.983 -15.162 -21.603  0.00  0.00    -0.017 A 
ATOM      6  C   UNL     1      32.721 -13.750 -21.952  0.00  0.00    +0.032 A 
ATOM      7  C   UNL     1      33.351 -13.205 -23.066  0.00  0.00    +0.162 A 
ATOM      8  C   UNL     1      34.479 -15.305 -23.574  0.00  0.00    +0.341 A 
ATOM      9  C   UNL     1      32.321 -15.691 -20.354  0.00  0.00    +0.031 C 
ATOM     10  C   UNL     1      31.857 -12.912 -21.230  0.00  0.00    +0.006 C 
ATOM     11  C   UNL     1      33.157 -11.880 -23.466  0.00  0.00    +0.126 C 
ATOM     12  C   UNL     1      32.302 -11.066 -22.734  0.00  0.00    +0.153 C 
ATOM     13  C   UNL     1      31.652 -11.581 -21.616  0.00  0.00    +0.038 C 
ENDROOT
BRANCH  12  14
ATOM     14  O   UNL     1      32.081  -9.766 -23.079  0.00  0.00    -0.463 OA
BRANCH  14  15
ATOM     15  C   UNL     1      31.729  -8.868 -22.030  0.00  0.00    +0.314 C 
BRANCH  15  17
ATOM     16  O   UNL     1      30.632  -6.934 -22.997  0.00  0.00    -0.246 OA
ATOM     17  C   UNL     1      31.653  -7.472 -22.590  0.00  0.00    +0.362 C 
BRANCH  17  18
ATOM     18  O   UNL     1      32.900  -6.915 -22.566  0.00  0.00    -0.446 OA
BRANCH  18  19
ATOM     19  C   UNL     1      33.516  -6.730 -23.845  0.00  0.00    +0.209 C 
ATOM     20  C   UNL     1      34.795  -7.536 -23.898  0.00  0.00    +0.051 C 
ENDBRANCH  18  19
ENDBRANCH  17  18
ENDBRANCH  15  17
ENDBRANCH  14  15
ENDBRANCH  12  14
BRANCH   4  21
ATOM     21  C   UNL     1      34.099 -17.362 -22.184  0.00  0.00    +0.010 C 
BRANCH  21  22
ATOM     22  C   UNL     1      35.242 -17.540 -21.197  0.00  0.00    -0.072 C 
BRANCH  22  23
ATOM     23  N   UNL     1      35.186 -18.878 -20.618  0.00  0.00    +0.387 N 
ATOM     24  H   UNL     1      34.904 -18.791 -19.642  0.00  0.00    -0.080 HD
BRANCH  23  25
ATOM     25  C   UNL     1      34.196 -19.700 -21.317  0.00  0.00    -0.077 C 
ATOM     26  C   UNL     1      33.089 -20.143 -20.374  0.00  0.00    -0.025 C 
ENDBRANCH  23  25
BRANCH  23  27
ATOM     27  C   UNL     1      36.503 -19.516 -20.668  0.00  0.00    -0.077 C 
ATOM     28  C   UNL     1      36.500 -20.839 -19.922  0.00  0.00    -0.025 C 
ENDBRANCH  23  27
ENDBRANCH  22  23
ENDBRANCH  21  22
ENDBRANCH   4  21
TORSDOF 10
ENDMDL
