MODEL 1
REMARK VINA RESULT:     -11.8      0.000      0.000
REMARK  Name = 118513932
REMARK  2 active torsions:
REMARK  status: ('A' for Active; 'I' for Inactive)
REMARK    1  A    between atoms: C_4  and  N_24
REMARK    2  A    between atoms: C_10  and  C_15
REMARK                            x       y       z     vdW  Elec       q    Type
REMARK                         _______ _______ _______ _____ _____    ______ ____
ROOT
ATOM      1  O   UNL     1      32.394 -22.517 -18.550  0.00  0.00    -0.274 OA
ATOM      2  N   UNL     1      34.656 -22.057 -18.108  0.00  0.00    -0.209 N 
ATOM      3  N   UNL     1      35.783 -20.440 -19.457  0.00  0.00    -0.389 NA
ATOM      4  C   UNL     1      35.857 -23.167 -16.344  0.00  0.00    +0.063 C 
ATOM      5  C   UNL     1      34.734 -22.960 -17.054  0.00  0.00    +0.089 C 
ATOM      6  C   UNL     1      37.035 -22.408 -16.703  0.00  0.00    +0.020 C 
ATOM      7  C   UNL     1      37.025 -21.524 -17.707  0.00  0.00    +0.050 C 
ATOM      8  C   UNL     1      35.776 -21.302 -18.485  0.00  0.00    +0.193 C 
ATOM      9  C   UNL     1      33.439 -21.915 -18.786  0.00  0.00    +0.242 C 
ATOM     10  C   UNL     1      34.608 -20.280 -20.137  0.00  0.00    +0.139 C 
ATOM     11  C   UNL     1      33.464 -20.926 -19.891  0.00  0.00    +0.146 C 
ENDROOT
BRANCH  10  15
ATOM     12  N   UNL     1      34.418 -17.278 -22.131  0.00  0.00    -0.178 N 
ATOM     13  N   UNL     1      34.406 -18.043 -21.009  0.00  0.00    -0.173 NA
ATOM     14  N   UNL     1      34.549 -16.689 -24.276  0.00  0.00    -0.392 NA
ATOM     15  C   UNL     1      34.590 -19.313 -21.238  0.00  0.00    +0.124 C 
ATOM     16  C   UNL     1      34.796 -19.911 -22.591  0.00  0.00    +0.023 C 
ATOM     17  C   UNL     1      34.797 -19.098 -23.665  0.00  0.00    +0.025 C 
ATOM     18  C   UNL     1      34.597 -17.704 -23.435  0.00  0.00    +0.198 C 
ATOM     19  C   UNL     1      34.249 -15.919 -22.169  0.00  0.00    +0.173 C 
ATOM     20  C   UNL     1      34.334 -15.581 -23.498  0.00  0.00    +0.111 C 
ATOM     21  C   UNL     1      35.002 -19.679 -25.040  0.00  0.00    +0.035 C 
ATOM     22  C   UNL     1      34.224 -14.248 -24.108  0.00  0.00    +0.063 C 
ENDBRANCH  10  15
BRANCH   4  24
ATOM     23  N   UNL     1      36.059 -25.269 -12.713  0.00  0.00    +0.389 N 
ATOM     24  N   UNL     1      35.948 -24.050 -15.307  0.00  0.00    -0.311 N 
ATOM     25  C   UNL     1      37.244 -24.600 -13.310  0.00  0.00    -0.027 C 
ATOM     26  C   UNL     1      38.579 -24.774 -12.621  0.00  0.00    -0.020 C 
ATOM     27  C   UNL     1      37.877 -23.451 -12.554  0.00  0.00    -0.020 C 
ATOM     28  C   UNL     1      37.240 -24.547 -14.824  0.00  0.00    +0.071 C 
ATOM     29  C   UNL     1      34.828 -24.648 -13.205  0.00  0.00    -0.060 C 
ATOM     30  C   UNL     1      34.764 -24.696 -14.732  0.00  0.00    +0.067 C 
ATOM     31  H   UNL     1      36.098 -25.183 -11.698  0.00  0.00    -0.084 HD
ATOM     32  H   UNL     1      36.064 -26.254 -12.978  0.00  0.00    -0.084 HD
ENDBRANCH   4  24
TORSDOF 2
ENDMDL
MODEL 2
REMARK VINA RESULT:     -11.1      6.629     14.073
REMARK  Name = 118513932
REMARK  2 active torsions:
REMARK  status: ('A' for Active; 'I' for Inactive)
REMARK    1  A    between atoms: C_4  and  N_24
REMARK    2  A    between atoms: C_10  and  C_15
REMARK                            x       y       z     vdW  Elec       q    Type
REMARK                         _______ _______ _______ _____ _____    ______ ____
ROOT
ATOM      1  O   UNL     1      30.605 -11.037 -20.663  0.00  0.00    -0.274 OA
ATOM      2  N   UNL     1      32.212 -10.251 -22.187  0.00  0.00    -0.209 N 
ATOM      3  N   UNL     1      33.642 -11.832 -23.263  0.00  0.00    -0.389 NA
ATOM      4  C   UNL     1      32.451  -7.910 -22.686  0.00  0.00    +0.063 C 
ATOM      5  C   UNL     1      31.850  -8.918 -22.029  0.00  0.00    +0.089 C 
ATOM      6  C   UNL     1      33.525  -8.241 -23.598  0.00  0.00    +0.020 C 
ATOM      7  C   UNL     1      33.920  -9.503 -23.794  0.00  0.00    +0.050 C 
ATOM      8  C   UNL     1      33.247 -10.611 -23.062  0.00  0.00    +0.193 C 
ATOM      9  C   UNL     1      31.524 -11.228 -21.456  0.00  0.00    +0.242 C 
ATOM     10  C   UNL     1      32.988 -12.807 -22.563  0.00  0.00    +0.139 C 
ATOM     11  C   UNL     1      31.987 -12.615 -21.699  0.00  0.00    +0.146 C 
ENDROOT
BRANCH  10  15
ATOM     12  N   UNL     1      34.100 -16.212 -22.120  0.00  0.00    -0.178 N 
ATOM     13  N   UNL     1      33.726 -14.957 -21.762  0.00  0.00    -0.173 NA
ATOM     14  N   UNL     1      34.582 -17.986 -23.379  0.00  0.00    -0.392 NA
ATOM     15  C   UNL     1      33.417 -14.193 -22.773  0.00  0.00    +0.124 C 
ATOM     16  C   UNL     1      33.458 -14.619 -24.204  0.00  0.00    +0.023 C 
ATOM     17  C   UNL     1      33.839 -15.878 -24.493  0.00  0.00    +0.025 C 
ATOM     18  C   UNL     1      34.181 -16.729 -23.401  0.00  0.00    +0.198 C 
ATOM     19  C   UNL     1      34.473 -17.207 -21.257  0.00  0.00    +0.173 C 
ATOM     20  C   UNL     1      34.764 -18.287 -22.054  0.00  0.00    +0.111 C 
ATOM     21  C   UNL     1      33.889 -16.330 -25.930  0.00  0.00    +0.035 C 
ATOM     22  C   UNL     1      35.216 -19.626 -21.647  0.00  0.00    +0.063 C 
ENDBRANCH  10  15
BRANCH   4  24
ATOM     23  N   UNL     1      30.749  -4.071 -22.595  0.00  0.00    +0.389 N 
ATOM     24  N   UNL     1      32.106  -6.597 -22.542  0.00  0.00    -0.311 N 
ATOM     25  C   UNL     1      31.476  -4.589 -23.783  0.00  0.00    -0.027 C 
ATOM     26  C   UNL     1      31.683  -3.652 -24.952  0.00  0.00    -0.020 C 
ATOM     27  C   UNL     1      30.704  -4.782 -25.071  0.00  0.00    -0.020 C 
ATOM     28  C   UNL     1      32.591  -5.563 -23.462  0.00  0.00    +0.071 C 
ATOM     29  C   UNL     1      30.246  -5.184 -21.787  0.00  0.00    -0.060 C 
ATOM     30  C   UNL     1      31.386  -6.110 -21.362  0.00  0.00    +0.067 C 
ATOM     31  H   UNL     1      29.965  -3.497 -22.902  0.00  0.00    -0.084 HD
ATOM     32  H   UNL     1      31.389  -3.512 -22.030  0.00  0.00    -0.084 HD
ENDBRANCH   4  24
TORSDOF 2
ENDMDL
MODEL 3
REMARK VINA RESULT:     -10.9      5.921     13.445
REMARK  Name = 118513932
REMARK  2 active torsions:
REMARK  status: ('A' for Active; 'I' for Inactive)
REMARK    1  A    between atoms: C_4  and  N_24
REMARK    2  A    between atoms: C_10  and  C_15
REMARK                            x       y       z     vdW  Elec       q    Type
REMARK                         _______ _______ _______ _____ _____    ______ ____
ROOT
ATOM      1  O   UNL     1      30.805 -11.850 -21.239  0.00  0.00    -0.274 OA
ATOM      2  N   UNL     1      32.393 -11.178 -22.837  0.00  0.00    -0.209 N 
ATOM      3  N   UNL     1      34.010 -12.766 -23.585  0.00  0.00    -0.389 NA
ATOM      4  C   UNL     1      32.428  -8.944 -23.729  0.00  0.00    +0.063 C 
ATOM      5  C   UNL     1      31.899  -9.880 -22.922  0.00  0.00    +0.089 C 
ATOM      6  C   UNL     1      33.566  -9.315 -24.543  0.00  0.00    +0.020 C 
ATOM      7  C   UNL     1      34.087 -10.546 -24.506  0.00  0.00    +0.050 C 
ATOM      8  C   UNL     1      33.493 -11.575 -23.610  0.00  0.00    +0.193 C 
ATOM      9  C   UNL     1      31.771 -12.080 -21.964  0.00  0.00    +0.242 C 
ATOM     10  C   UNL     1      33.424 -13.668 -22.743  0.00  0.00    +0.139 C 
ATOM     11  C   UNL     1      32.374 -13.434 -21.950  0.00  0.00    +0.146 C 
ENDROOT
BRANCH  10  15
ATOM     12  N   UNL     1      34.920 -16.782 -21.700  0.00  0.00    -0.178 N 
ATOM     13  N   UNL     1      34.428 -15.523 -21.578  0.00  0.00    -0.173 NA
ATOM     14  N   UNL     1      35.533 -18.724 -22.605  0.00  0.00    -0.392 NA
ATOM     15  C   UNL     1      33.990 -15.020 -22.698  0.00  0.00    +0.124 C 
ATOM     16  C   UNL     1      34.010 -15.728 -24.013  0.00  0.00    +0.023 C 
ATOM     17  C   UNL     1      34.511 -16.976 -24.068  0.00  0.00    +0.025 C 
ATOM     18  C   UNL     1      34.996 -17.544 -22.852  0.00  0.00    +0.198 C 
ATOM     19  C   UNL     1      35.440 -17.536 -20.682  0.00  0.00    +0.173 C 
ATOM     20  C   UNL     1      35.809 -18.724 -21.263  0.00  0.00    +0.111 C 
ATOM     21  C   UNL     1      34.542 -17.710 -25.384  0.00  0.00    +0.035 C 
ATOM     22  C   UNL     1      36.423 -19.899 -20.626  0.00  0.00    +0.063 C 
ENDBRANCH  10  15
BRANCH   4  24
ATOM     23  N   UNL     1      31.567  -4.835 -23.586  0.00  0.00    +0.389 N 
ATOM     24  N   UNL     1      31.955  -7.667 -23.824  0.00  0.00    -0.311 N 
ATOM     25  C   UNL     1      31.154  -5.771 -22.508  0.00  0.00    -0.027 C 
ATOM     26  C   UNL     1      30.313  -5.223 -21.376  0.00  0.00    -0.020 C 
ATOM     27  C   UNL     1      31.747  -5.584 -21.127  0.00  0.00    -0.020 C 
ATOM     28  C   UNL     1      30.861  -7.182 -22.976  0.00  0.00    +0.071 C 
ATOM     29  C   UNL     1      32.709  -5.384 -24.319  0.00  0.00    -0.060 C 
ATOM     30  C   UNL     1      32.379  -6.761 -24.895  0.00  0.00    +0.067 C 
ATOM     31  H   UNL     1      31.828  -3.940 -23.174  0.00  0.00    -0.084 HD
ATOM     32  H   UNL     1      30.787  -4.707 -24.231  0.00  0.00    -0.084 HD
ENDBRANCH   4  24
TORSDOF 2
ENDMDL
MODEL 4
REMARK VINA RESULT:     -10.9      6.385     11.226
REMARK  Name = 118513932
REMARK  2 active torsions:
REMARK  status: ('A' for Active; 'I' for Inactive)
REMARK    1  A    between atoms: C_4  and  N_24
REMARK    2  A    between atoms: C_10  and  C_15
REMARK                            x       y       z     vdW  Elec       q    Type
REMARK                         _______ _______ _______ _____ _____    ______ ____
ROOT
ATOM      1  O   UNL     1      34.223 -12.348 -26.329  0.00  0.00    -0.274 OA
ATOM      2  N   UNL     1      33.830 -13.087 -24.133  0.00  0.00    -0.209 N 
ATOM      3  N   UNL     1      32.993 -11.527 -22.530  0.00  0.00    -0.389 NA
ATOM      4  C   UNL     1      34.247 -15.360 -23.464  0.00  0.00    +0.063 C 
ATOM      5  C   UNL     1      34.241 -14.389 -24.395  0.00  0.00    +0.089 C 
ATOM      6  C   UNL     1      33.802 -15.021 -22.129  0.00  0.00    +0.020 C 
ATOM      7  C   UNL     1      33.395 -13.787 -21.814  0.00  0.00    +0.050 C 
ATOM      8  C   UNL     1      33.392 -12.721 -22.852  0.00  0.00    +0.193 C 
ATOM      9  C   UNL     1      33.862 -12.148 -25.171  0.00  0.00    +0.242 C 
ATOM     10  C   UNL     1      33.013 -10.590 -23.524  0.00  0.00    +0.139 C 
ATOM     11  C   UNL     1      33.403 -10.792 -24.786  0.00  0.00    +0.146 C 
ENDROOT
BRANCH  10  15
ATOM     12  N   UNL     1      31.886  -7.163 -23.645  0.00  0.00    -0.178 N 
ATOM     13  N   UNL     1      32.284  -8.371 -24.119  0.00  0.00    -0.173 NA
ATOM     14  N   UNL     1      31.350  -5.533 -22.224  0.00  0.00    -0.392 NA
ATOM     15  C   UNL     1      32.568  -9.234 -23.185  0.00  0.00    +0.124 C 
ATOM     16  C   UNL     1      32.479  -8.961 -21.719  0.00  0.00    +0.023 C 
ATOM     17  C   UNL     1      32.077  -7.741 -21.313  0.00  0.00    +0.025 C 
ATOM     18  C   UNL     1      31.761  -6.782 -22.321  0.00  0.00    +0.198 C 
ATOM     19  C   UNL     1      31.531  -6.085 -24.411  0.00  0.00    +0.173 C 
ATOM     20  C   UNL     1      31.205  -5.096 -23.516  0.00  0.00    +0.111 C 
ATOM     21  C   UNL     1      31.979  -7.442 -19.839  0.00  0.00    +0.035 C 
ATOM     22  C   UNL     1      30.753  -3.725 -23.796  0.00  0.00    +0.063 C 
ENDBRANCH  10  15
BRANCH   4  24
ATOM     23  N   UNL     1      34.760 -19.489 -24.038  0.00  0.00    +0.389 N 
ATOM     24  N   UNL     1      34.647 -16.642 -23.707  0.00  0.00    -0.311 N 
ATOM     25  C   UNL     1      34.844 -18.858 -22.695  0.00  0.00    -0.027 C 
ATOM     26  C   UNL     1      35.222 -19.733 -21.522  0.00  0.00    -0.020 C 
ATOM     27  C   UNL     1      33.812 -19.241 -21.655  0.00  0.00    -0.020 C 
ATOM     28  C   UNL     1      35.362 -17.434 -22.700  0.00  0.00    +0.071 C 
ATOM     29  C   UNL     1      33.965 -18.653 -24.939  0.00  0.00    -0.060 C 
ATOM     30  C   UNL     1      34.552 -17.245 -25.040  0.00  0.00    +0.067 C 
ATOM     31  H   UNL     1      34.322 -20.406 -23.953  0.00  0.00    -0.084 HD
ATOM     32  H   UNL     1      35.702 -19.587 -24.418  0.00  0.00    -0.084 HD
ENDBRANCH   4  24
TORSDOF 2
ENDMDL
MODEL 5
REMARK VINA RESULT:     -10.8      7.085     14.149
REMARK  Name = 118513932
REMARK  2 active torsions:
REMARK  status: ('A' for Active; 'I' for Inactive)
REMARK    1  A    between atoms: C_4  and  N_24
REMARK    2  A    between atoms: C_10  and  C_15
REMARK                            x       y       z     vdW  Elec       q    Type
REMARK                         _______ _______ _______ _____ _____    ______ ____
ROOT
ATOM      1  O   UNL     1      30.528 -11.054 -21.072  0.00  0.00    -0.274 OA
ATOM      2  N   UNL     1      32.264 -10.233 -22.428  0.00  0.00    -0.209 N 
ATOM      3  N   UNL     1      33.781 -11.788 -23.418  0.00  0.00    -0.389 NA
ATOM      4  C   UNL     1      32.547  -7.880 -22.839  0.00  0.00    +0.063 C 
ATOM      5  C   UNL     1      31.891  -8.903 -22.266  0.00  0.00    +0.089 C 
ATOM      6  C   UNL     1      33.697  -8.189 -23.663  0.00  0.00    +0.020 C 
ATOM      7  C   UNL     1      34.106  -9.447 -23.858  0.00  0.00    +0.050 C 
ATOM      8  C   UNL     1      33.370 -10.572 -23.218  0.00  0.00    +0.193 C 
ATOM      9  C   UNL     1      31.514 -11.226 -21.786  0.00  0.00    +0.242 C 
ATOM     10  C   UNL     1      33.067 -12.779 -22.805  0.00  0.00    +0.139 C 
ATOM     11  C   UNL     1      31.995 -12.608 -22.026  0.00  0.00    +0.146 C 
ENDROOT
BRANCH  10  15
ATOM     12  N   UNL     1      33.881 -15.998 -24.220  0.00  0.00    -0.178 N 
ATOM     13  N   UNL     1      33.429 -14.718 -24.190  0.00  0.00    -0.173 NA
ATOM     14  N   UNL     1      34.736 -17.945 -23.555  0.00  0.00    -0.392 NA
ATOM     15  C   UNL     1      33.510 -14.161 -23.014  0.00  0.00    +0.124 C 
ATOM     16  C   UNL     1      34.043 -14.833 -21.790  0.00  0.00    +0.023 C 
ATOM     17  C   UNL     1      34.475 -16.104 -21.887  0.00  0.00    +0.025 C 
ATOM     18  C   UNL     1      34.394 -16.731 -23.166  0.00  0.00    +0.198 C 
ATOM     19  C   UNL     1      33.906 -16.806 -25.326  0.00  0.00    +0.173 C 
ATOM     20  C   UNL     1      34.436 -17.997 -24.892  0.00  0.00    +0.111 C 
ATOM     21  C   UNL     1      35.016 -16.802 -20.666  0.00  0.00    +0.035 C 
ATOM     22  C   UNL     1      34.689 -19.219 -25.668  0.00  0.00    +0.063 C 
ENDBRANCH  10  15
BRANCH   4  24
ATOM     23  N   UNL     1      30.803  -4.061 -22.703  0.00  0.00    +0.389 N 
ATOM     24  N   UNL     1      32.193  -6.570 -22.690  0.00  0.00    -0.311 N 
ATOM     25  C   UNL     1      31.486  -4.578 -23.916  0.00  0.00    -0.027 C 
ATOM     26  C   UNL     1      31.633  -3.648 -25.100  0.00  0.00    -0.020 C 
ATOM     27  C   UNL     1      30.664  -4.790 -25.170  0.00  0.00    -0.020 C 
ATOM     28  C   UNL     1      32.626  -5.537 -23.636  0.00  0.00    +0.071 C 
ATOM     29  C   UNL     1      30.348  -5.174 -21.867  0.00  0.00    -0.060 C 
ATOM     30  C   UNL     1      31.516  -6.083 -21.484  0.00  0.00    +0.067 C 
ATOM     31  H   UNL     1      30.000  -3.498 -22.981  0.00  0.00    -0.084 HD
ATOM     32  H   UNL     1      31.459  -3.490 -22.169  0.00  0.00    -0.084 HD
ENDBRANCH   4  24
TORSDOF 2
ENDMDL
MODEL 6
REMARK VINA RESULT:     -10.7      3.812     11.219
REMARK  Name = 118513932
REMARK  2 active torsions:
REMARK  status: ('A' for Active; 'I' for Inactive)
REMARK    1  A    between atoms: C_4  and  N_24
REMARK    2  A    between atoms: C_10  and  C_15
REMARK                            x       y       z     vdW  Elec       q    Type
REMARK                         _______ _______ _______ _____ _____    ______ ____
ROOT
ATOM      1  O   UNL     1      34.985 -16.346 -24.762  0.00  0.00    -0.274 OA
ATOM      2  N   UNL     1      34.003 -15.367 -22.864  0.00  0.00    -0.209 N 
ATOM      3  N   UNL     1      33.721 -16.699 -20.902  0.00  0.00    -0.389 NA
ATOM      4  C   UNL     1      33.279 -13.073 -22.849  0.00  0.00    +0.063 C 
ATOM      5  C   UNL     1      33.832 -14.129 -23.472  0.00  0.00    +0.089 C 
ATOM      6  C   UNL     1      32.845 -13.246 -21.479  0.00  0.00    +0.020 C 
ATOM      7  C   UNL     1      32.981 -14.412 -20.839  0.00  0.00    +0.050 C 
ATOM      8  C   UNL     1      33.595 -15.573 -21.538  0.00  0.00    +0.193 C 
ATOM      9  C   UNL     1      34.589 -16.405 -23.600  0.00  0.00    +0.242 C 
ATOM     10  C   UNL     1      34.290 -17.730 -21.595  0.00  0.00    +0.139 C 
ATOM     11  C   UNL     1      34.725 -17.681 -22.858  0.00  0.00    +0.146 C 
ENDROOT
BRANCH  10  15
ATOM     12  N   UNL     1      33.721 -20.776 -19.744  0.00  0.00    -0.178 N 
ATOM     13  N   UNL     1      33.418 -19.598 -20.348  0.00  0.00    -0.173 NA
ATOM     14  N   UNL     1      34.892 -22.520 -19.002  0.00  0.00    -0.392 NA
ATOM     15  C   UNL     1      34.443 -19.011 -20.899  0.00  0.00    +0.124 C 
ATOM     16  C   UNL     1      35.837 -19.549 -20.890  0.00  0.00    +0.023 C 
ATOM     17  C   UNL     1      36.072 -20.723 -20.274  0.00  0.00    +0.025 C 
ATOM     18  C   UNL     1      34.962 -21.381 -19.664  0.00  0.00    +0.198 C 
ATOM     19  C   UNL     1      32.832 -21.589 -19.094  0.00  0.00    +0.173 C 
ATOM     20  C   UNL     1      33.575 -22.654 -18.647  0.00  0.00    +0.111 C 
ATOM     21  C   UNL     1      37.470 -21.285 -20.251  0.00  0.00    +0.035 C 
ATOM     22  C   UNL     1      33.121 -23.827 -17.886  0.00  0.00    +0.063 C 
ENDBRANCH  10  15
BRANCH   4  24
ATOM     23  N   UNL     1      33.230  -9.069 -24.115  0.00  0.00    +0.389 N 
ATOM     24  N   UNL     1      33.106 -11.852 -23.433  0.00  0.00    -0.311 N 
ATOM     25  C   UNL     1      32.377  -9.560 -23.003  0.00  0.00    -0.027 C 
ATOM     26  C   UNL     1      31.394  -8.592 -22.381  0.00  0.00    -0.020 C 
ATOM     27  C   UNL     1      32.615  -9.004 -21.614  0.00  0.00    -0.020 C 
ATOM     28  C   UNL     1      31.946 -11.007 -23.131  0.00  0.00    +0.071 C 
ATOM     29  C   UNL     1      34.394  -9.941 -24.281  0.00  0.00    -0.060 C 
ATOM     30  C   UNL     1      33.962 -11.387 -24.528  0.00  0.00    +0.067 C 
ATOM     31  H   UNL     1      33.545  -8.122 -23.907  0.00  0.00    -0.084 HD
ATOM     32  H   UNL     1      32.686  -9.072 -24.978  0.00  0.00    -0.084 HD
ENDBRANCH   4  24
TORSDOF 2
ENDMDL
MODEL 7
REMARK VINA RESULT:     -10.6      7.323     14.185
REMARK  Name = 118513932
REMARK  2 active torsions:
REMARK  status: ('A' for Active; 'I' for Inactive)
REMARK    1  A    between atoms: C_4  and  N_24
REMARK    2  A    between atoms: C_10  and  C_15
REMARK                            x       y       z     vdW  Elec       q    Type
REMARK                         _______ _______ _______ _____ _____    ______ ____
ROOT
ATOM      1  O   UNL     1      34.763  -9.807 -25.275  0.00  0.00    -0.274 OA
ATOM      2  N   UNL     1      33.316  -9.988 -23.432  0.00  0.00    -0.209 N 
ATOM      3  N   UNL     1      32.896 -12.150 -22.511  0.00  0.00    -0.389 NA
ATOM      4  C   UNL     1      32.255  -8.061 -22.458  0.00  0.00    +0.063 C 
ATOM      5  C   UNL     1      33.068  -8.621 -23.371  0.00  0.00    +0.089 C 
ATOM      6  C   UNL     1      31.613  -8.933 -21.497  0.00  0.00    +0.020 C 
ATOM      7  C   UNL     1      31.811 -10.255 -21.503  0.00  0.00    +0.050 C 
ATOM      8  C   UNL     1      32.714 -10.864 -22.518  0.00  0.00    +0.193 C 
ATOM      9  C   UNL     1      34.179 -10.473 -24.423  0.00  0.00    +0.242 C 
ATOM     10  C   UNL     1      33.734 -12.652 -23.466  0.00  0.00    +0.139 C 
ATOM     11  C   UNL     1      34.376 -11.942 -24.398  0.00  0.00    +0.146 C 
ENDROOT
BRANCH  10  15
ATOM     12  N   UNL     1      34.086 -16.112 -24.431  0.00  0.00    -0.178 N 
ATOM     13  N   UNL     1      33.850 -14.783 -24.584  0.00  0.00    -0.173 NA
ATOM     14  N   UNL     1      34.570 -18.067 -23.480  0.00  0.00    -0.392 NA
ATOM     15  C   UNL     1      33.955 -14.101 -23.479  0.00  0.00    +0.124 C 
ATOM     16  C   UNL     1      34.300 -14.686 -22.148  0.00  0.00    +0.023 C 
ATOM     17  C   UNL     1      34.522 -16.011 -22.063  0.00  0.00    +0.025 C 
ATOM     18  C   UNL     1      34.412 -16.776 -23.262  0.00  0.00    +0.198 C 
ATOM     19  C   UNL     1      34.040 -17.048 -25.429  0.00  0.00    +0.173 C 
ATOM     20  C   UNL     1      34.342 -18.242 -24.821  0.00  0.00    +0.111 C 
ATOM     21  C   UNL     1      34.872 -16.625 -20.731  0.00  0.00    +0.035 C 
ATOM     22  C   UNL     1      34.434 -19.577 -25.428  0.00  0.00    +0.063 C 
ENDBRANCH  10  15
BRANCH   4  24
ATOM     23  N   UNL     1      30.825  -4.114 -22.585  0.00  0.00    +0.389 N 
ATOM     24  N   UNL     1      32.002  -6.721 -22.386  0.00  0.00    -0.311 N 
ATOM     25  C   UNL     1      31.525  -4.741 -23.735  0.00  0.00    -0.027 C 
ATOM     26  C   UNL     1      31.808  -3.883 -24.948  0.00  0.00    -0.020 C 
ATOM     27  C   UNL     1      30.754  -4.947 -25.022  0.00  0.00    -0.020 C 
ATOM     28  C   UNL     1      32.567  -5.773 -23.351  0.00  0.00    +0.071 C 
ATOM     29  C   UNL     1      30.238  -5.145 -21.728  0.00  0.00    -0.060 C 
ATOM     30  C   UNL     1      31.306  -6.125 -21.241  0.00  0.00    +0.067 C 
ATOM     31  H   UNL     1      30.086  -3.503 -22.932  0.00  0.00    -0.084 HD
ATOM     32  H   UNL     1      31.497  -3.572 -22.042  0.00  0.00    -0.084 HD
ENDBRANCH   4  24
TORSDOF 2
ENDMDL
MODEL 8
REMARK VINA RESULT:     -10.4      1.371      9.935
REMARK  Name = 118513932
REMARK  2 active torsions:
REMARK  status: ('A' for Active; 'I' for Inactive)
REMARK    1  A    between atoms: C_4  and  N_24
REMARK    2  A    between atoms: C_10  and  C_15
REMARK                            x       y       z     vdW  Elec       q    Type
REMARK                         _______ _______ _______ _____ _____    ______ ____
ROOT
ATOM      1  O   UNL     1      32.356 -21.410 -20.052  0.00  0.00    -0.274 OA
ATOM      2  N   UNL     1      34.436 -20.355 -20.347  0.00  0.00    -0.209 N 
ATOM      3  N   UNL     1      36.239 -20.950 -18.899  0.00  0.00    -0.389 NA
ATOM      4  C   UNL     1      34.790 -18.703 -22.059  0.00  0.00    +0.063 C 
ATOM      5  C   UNL     1      33.999 -19.577 -21.414  0.00  0.00    +0.089 C 
ATOM      6  C   UNL     1      36.161 -18.573 -21.614  0.00  0.00    +0.020 C 
ATOM      7  C   UNL     1      36.642 -19.293 -20.595  0.00  0.00    +0.050 C 
ATOM      8  C   UNL     1      35.757 -20.258 -19.888  0.00  0.00    +0.193 C 
ATOM      9  C   UNL     1      33.532 -21.237 -19.741  0.00  0.00    +0.242 C 
ATOM     10  C   UNL     1      35.380 -21.819 -18.288  0.00  0.00    +0.139 C 
ATOM     11  C   UNL     1      34.099 -22.018 -18.616  0.00  0.00    +0.146 C 
ENDROOT
BRANCH  10  15
ATOM     12  N   UNL     1      37.505 -23.540 -15.932  0.00  0.00    -0.178 N 
ATOM     13  N   UNL     1      37.183 -22.785 -17.014  0.00  0.00    -0.173 NA
ATOM     14  N   UNL     1      37.294 -24.782 -14.095  0.00  0.00    -0.392 NA
ATOM     15  C   UNL     1      35.900 -22.611 -17.170  0.00  0.00    +0.124 C 
ATOM     16  C   UNL     1      34.850 -23.172 -16.266  0.00  0.00    +0.023 C 
ATOM     17  C   UNL     1      35.235 -23.912 -15.210  0.00  0.00    +0.025 C 
ATOM     18  C   UNL     1      36.635 -24.114 -15.022  0.00  0.00    +0.198 C 
ATOM     19  C   UNL     1      38.775 -23.872 -15.543  0.00  0.00    +0.173 C 
ATOM     20  C   UNL     1      38.620 -24.635 -14.412  0.00  0.00    +0.111 C 
ATOM     21  C   UNL     1      34.194 -24.488 -14.285  0.00  0.00    +0.035 C 
ATOM     22  C   UNL     1      39.661 -25.256 -13.580  0.00  0.00    +0.063 C 
ENDBRANCH  10  15
BRANCH   4  24
ATOM     23  N   UNL     1      34.174 -15.971 -25.189  0.00  0.00    +0.389 N 
ATOM     24  N   UNL     1      34.375 -17.933 -23.108  0.00  0.00    -0.311 N 
ATOM     25  C   UNL     1      33.869 -15.638 -23.774  0.00  0.00    -0.027 C 
ATOM     26  C   UNL     1      33.226 -14.300 -23.482  0.00  0.00    -0.020 C 
ATOM     27  C   UNL     1      34.660 -14.531 -23.109  0.00  0.00    -0.020 C 
ATOM     28  C   UNL     1      33.439 -16.819 -22.928  0.00  0.00    +0.071 C 
ATOM     29  C   UNL     1      35.171 -17.041 -25.252  0.00  0.00    -0.060 C 
ATOM     30  C   UNL     1      34.690 -18.281 -24.497  0.00  0.00    +0.067 C 
ATOM     31  H   UNL     1      34.537 -15.143 -25.660  0.00  0.00    -0.084 HD
ATOM     32  H   UNL     1      33.318 -16.284 -25.649  0.00  0.00    -0.084 HD
ENDBRANCH   4  24
TORSDOF 2
ENDMDL
MODEL 9
REMARK VINA RESULT:     -10.4      4.143      7.767
REMARK  Name = 118513932
REMARK  2 active torsions:
REMARK  status: ('A' for Active; 'I' for Inactive)
REMARK    1  A    between atoms: C_4  and  N_24
REMARK    2  A    between atoms: C_10  and  C_15
REMARK                            x       y       z     vdW  Elec       q    Type
REMARK                         _______ _______ _______ _____ _____    ______ ____
ROOT
ATOM      1  O   UNL     1      31.940 -15.290 -19.697  0.00  0.00    -0.274 OA
ATOM      2  N   UNL     1      33.324 -15.970 -21.471  0.00  0.00    -0.209 N 
ATOM      3  N   UNL     1      33.958 -14.358 -23.115  0.00  0.00    -0.389 NA
ATOM      4  C   UNL     1      34.111 -18.234 -21.671  0.00  0.00    +0.063 C 
ATOM      5  C   UNL     1      33.407 -17.285 -21.029  0.00  0.00    +0.089 C 
ATOM      6  C   UNL     1      34.810 -17.857 -22.881  0.00  0.00    +0.020 C 
ATOM      7  C   UNL     1      34.769 -16.608 -23.358  0.00  0.00    +0.050 C 
ATOM      8  C   UNL     1      33.988 -15.566 -22.638  0.00  0.00    +0.193 C 
ATOM      9  C   UNL     1      32.564 -15.056 -20.730  0.00  0.00    +0.242 C 
ATOM     10  C   UNL     1      33.225 -13.444 -22.412  0.00  0.00    +0.139 C 
ATOM     11  C   UNL     1      32.542 -13.683 -21.288  0.00  0.00    +0.146 C 
ENDROOT
BRANCH  10  15
ATOM     12  N   UNL     1      32.374  -9.998 -23.066  0.00  0.00    -0.178 N 
ATOM     13  N   UNL     1      32.289 -11.225 -22.490  0.00  0.00    -0.173 NA
ATOM     14  N   UNL     1      33.067  -8.327 -24.366  0.00  0.00    -0.392 NA
ATOM     15  C   UNL     1      33.175 -12.073 -22.930  0.00  0.00    +0.124 C 
ATOM     16  C   UNL     1      34.204 -11.766 -23.969  0.00  0.00    +0.023 C 
ATOM     17  C   UNL     1      34.236 -10.530 -24.502  0.00  0.00    +0.025 C 
ATOM     18  C   UNL     1      33.273  -9.587 -24.033  0.00  0.00    +0.198 C 
ATOM     19  C   UNL     1      31.565  -8.930 -22.785  0.00  0.00    +0.173 C 
ATOM     20  C   UNL     1      32.010  -7.915 -23.596  0.00  0.00    +0.111 C 
ATOM     21  C   UNL     1      35.264 -10.197 -25.551  0.00  0.00    +0.035 C 
ATOM     22  C   UNL     1      31.498  -6.541 -23.702  0.00  0.00    +0.063 C 
ENDBRANCH  10  15
BRANCH   4  24
ATOM     23  N   UNL     1      34.492 -21.914 -19.683  0.00  0.00    +0.389 N 
ATOM     24  N   UNL     1      34.202 -19.529 -21.249  0.00  0.00    -0.311 N 
ATOM     25  C   UNL     1      35.670 -21.123 -20.120  0.00  0.00    -0.027 C 
ATOM     26  C   UNL     1      37.043 -21.725 -19.920  0.00  0.00    -0.020 C 
ATOM     27  C   UNL     1      36.604 -20.578 -19.061  0.00  0.00    -0.020 C 
ATOM     28  C   UNL     1      35.445 -20.298 -21.371  0.00  0.00    +0.071 C 
ATOM     29  C   UNL     1      33.329 -21.039 -19.521  0.00  0.00    -0.060 C 
ATOM     30  C   UNL     1      33.025 -20.289 -20.818  0.00  0.00    +0.067 C 
ATOM     31  H   UNL     1      34.700 -22.366 -18.793  0.00  0.00    -0.084 HD
ATOM     32  H   UNL     1      34.283 -22.619 -20.390  0.00  0.00    -0.084 HD
ENDBRANCH   4  24
TORSDOF 2
ENDMDL
