MODEL 1
REMARK VINA RESULT:     -10.4      0.000      0.000
REMARK  Name = 6477182
REMARK  10 active torsions:
REMARK  status: ('A' for Active; 'I' for Inactive)
REMARK    1  A    between atoms: C_1  and  O_3
REMARK    2  A    between atoms: C_1  and  C_20
REMARK    3  A    between atoms: C_2  and  C_6
REMARK    4  A    between atoms: C_6  and  C_8
REMARK    5  A    between atoms: C_7  and  C_9
REMARK    6  A    between atoms: C_10  and  O_15
REMARK    7  A    between atoms: C_12  and  O_17
REMARK    8  A    between atoms: C_19  and  C_21
REMARK    9  A    between atoms: C_22  and  O_27
REMARK   10  A    between atoms: C_24  and  O_29
REMARK                            x       y       z     vdW  Elec       q    Type
REMARK                         _______ _______ _______ _____ _____    ______ ____
ROOT
ATOM      1  C   UNL     1      34.930 -17.622 -22.994  0.00  0.00    +0.137 C 
ATOM      2  C   UNL     1      33.986 -17.259 -23.881  0.00  0.00    +0.079 C 
ENDROOT
BRANCH   1   3
ATOM      3  O   UNL     1      36.181 -17.032 -22.993  0.00  0.00    -0.505 OA
ATOM      4  H   UNL     1      36.949 -17.564 -23.071  0.00  0.00    +0.292 HD
ENDBRANCH   1   3
BRANCH   2   6
ATOM      5  O   UNL     1      34.908 -16.410 -25.923  0.00  0.00    -0.286 OA
ATOM      6  C   UNL     1      34.208 -16.226 -24.935  0.00  0.00    +0.199 C 
BRANCH   6   8
ATOM      7  C   UNL     1      34.034 -14.037 -23.849  0.00  0.00    +0.003 C 
ATOM      8  C   UNL     1      33.496 -14.944 -24.678  0.00  0.00    +0.042 C 
BRANCH   7   9
ATOM      9  C   UNL     1      33.417 -12.741 -23.511  0.00  0.00    +0.003 C 
ATOM     10  C   UNL     1      31.844 -11.468 -22.222  0.00  0.00    +0.172 C 
ATOM     11  C   UNL     1      32.428 -12.694 -22.543  0.00  0.00    +0.040 C 
ATOM     12  C   UNL     1      32.258 -10.307 -22.875  0.00  0.00    +0.172 C 
ATOM     13  C   UNL     1      33.839 -11.598 -24.168  0.00  0.00    +0.003 C 
ATOM     14  C   UNL     1      33.257 -10.372 -23.848  0.00  0.00    +0.040 C 
BRANCH  10  15
ATOM     15  O   UNL     1      30.871 -11.416 -21.271  0.00  0.00    -0.468 OA
ATOM     16  C   UNL     1      31.294 -11.397 -19.910  0.00  0.00    +0.253 C 
ENDBRANCH  10  15
BRANCH  12  17
ATOM     17  O   UNL     1      31.698  -9.103 -22.571  0.00  0.00    -0.468 OA
ATOM     18  C   UNL     1      32.404  -8.274 -21.649  0.00  0.00    +0.253 C 
ENDBRANCH  12  17
ENDBRANCH   7   9
ENDBRANCH   6   8
ENDBRANCH   2   6
BRANCH   1  20
ATOM     19  C   UNL     1      35.546 -19.404 -21.348  0.00  0.00    +0.003 C 
ATOM     20  C   UNL     1      34.650 -18.626 -21.976  0.00  0.00    +0.037 C 
BRANCH  19  21
ATOM     21  C   UNL     1      35.208 -20.409 -20.324  0.00  0.00    +0.003 C 
ATOM     22  C   UNL     1      35.892 -21.867 -18.545  0.00  0.00    +0.172 C 
ATOM     23  C   UNL     1      36.212 -20.917 -19.515  0.00  0.00    +0.040 C 
ATOM     24  C   UNL     1      34.574 -22.298 -18.400  0.00  0.00    +0.172 C 
ATOM     25  C   UNL     1      33.894 -20.827 -20.191  0.00  0.00    +0.003 C 
ATOM     26  C   UNL     1      33.575 -21.778 -19.222  0.00  0.00    +0.040 C 
BRANCH  22  27
ATOM     27  O   UNL     1      36.876 -22.370 -17.748  0.00  0.00    -0.468 OA
ATOM     28  C   UNL     1      37.203 -21.626 -16.575  0.00  0.00    +0.253 C 
ENDBRANCH  22  27
BRANCH  24  29
ATOM     29  O   UNL     1      34.249 -23.225 -17.455  0.00  0.00    -0.468 OA
ATOM     30  C   UNL     1      32.881 -23.294 -17.058  0.00  0.00    +0.253 C 
ENDBRANCH  24  29
ENDBRANCH  19  21
ENDBRANCH   1  20
TORSDOF 10
ENDMDL
MODEL 2
REMARK VINA RESULT:     -10.3      0.777      1.753
REMARK  Name = 6477182
REMARK  10 active torsions:
REMARK  status: ('A' for Active; 'I' for Inactive)
REMARK    1  A    between atoms: C_1  and  O_3
REMARK    2  A    between atoms: C_1  and  C_20
REMARK    3  A    between atoms: C_2  and  C_6
REMARK    4  A    between atoms: C_6  and  C_8
REMARK    5  A    between atoms: C_7  and  C_9
REMARK    6  A    between atoms: C_10  and  O_15
REMARK    7  A    between atoms: C_12  and  O_17
REMARK    8  A    between atoms: C_19  and  C_21
REMARK    9  A    between atoms: C_22  and  O_27
REMARK   10  A    between atoms: C_24  and  O_29
REMARK                            x       y       z     vdW  Elec       q    Type
REMARK                         _______ _______ _______ _____ _____    ______ ____
ROOT
ATOM      1  C   UNL     1      34.994 -18.092 -23.107  0.00  0.00    +0.137 C 
ATOM      2  C   UNL     1      34.058 -17.661 -23.972  0.00  0.00    +0.079 C 
ENDROOT
BRANCH   1   3
ATOM      3  O   UNL     1      36.273 -17.565 -23.110  0.00  0.00    -0.505 OA
ATOM      4  H   UNL     1      36.421 -16.698 -23.433  0.00  0.00    +0.292 HD
ENDBRANCH   1   3
BRANCH   2   6
ATOM      5  O   UNL     1      35.037 -16.791 -25.978  0.00  0.00    -0.286 OA
ATOM      6  C   UNL     1      34.317 -16.614 -25.004  0.00  0.00    +0.199 C 
BRANCH   6   8
ATOM      7  C   UNL     1      34.029 -14.532 -23.745  0.00  0.00    +0.003 C 
ATOM      8  C   UNL     1      33.615 -15.327 -24.742  0.00  0.00    +0.042 C 
BRANCH   7   9
ATOM      9  C   UNL     1      33.407 -13.244 -23.386  0.00  0.00    +0.003 C 
ATOM     10  C   UNL     1      33.307 -10.858 -23.609  0.00  0.00    +0.172 C 
ATOM     11  C   UNL     1      33.896 -12.076 -23.948  0.00  0.00    +0.040 C 
ATOM     12  C   UNL     1      32.239 -10.825 -22.713  0.00  0.00    +0.172 C 
ATOM     13  C   UNL     1      32.348 -13.229 -22.495  0.00  0.00    +0.003 C 
ATOM     14  C   UNL     1      31.759 -12.011 -22.156  0.00  0.00    +0.040 C 
BRANCH  10  15
ATOM     15  O   UNL     1      33.784  -9.707 -24.159  0.00  0.00    -0.468 OA
ATOM     16  C   UNL     1      35.089  -9.754 -24.734  0.00  0.00    +0.253 C 
ENDBRANCH  10  15
BRANCH  12  17
ATOM     17  O   UNL     1      31.654  -9.642 -22.375  0.00  0.00    -0.468 OA
ATOM     18  C   UNL     1      32.021  -9.072 -21.121  0.00  0.00    +0.253 C 
ENDBRANCH  12  17
ENDBRANCH   7   9
ENDBRANCH   6   8
ENDBRANCH   2   6
BRANCH   1  20
ATOM     19  C   UNL     1      35.468 -19.518 -21.105  0.00  0.00    +0.003 C 
ATOM     20  C   UNL     1      34.677 -19.106 -22.110  0.00  0.00    +0.037 C 
BRANCH  19  21
ATOM     21  C   UNL     1      35.098 -20.553 -20.122  0.00  0.00    +0.003 C 
ATOM     22  C   UNL     1      35.722 -22.042 -18.347  0.00  0.00    +0.172 C 
ATOM     23  C   UNL     1      36.071 -21.063 -19.278  0.00  0.00    +0.040 C 
ATOM     24  C   UNL     1      34.406 -22.497 -18.275  0.00  0.00    +0.172 C 
ATOM     25  C   UNL     1      33.787 -20.995 -20.063  0.00  0.00    +0.003 C 
ATOM     26  C   UNL     1      33.438 -21.974 -19.132  0.00  0.00    +0.040 C 
BRANCH  22  27
ATOM     27  O   UNL     1      36.675 -22.547 -17.515  0.00  0.00    -0.468 OA
ATOM     28  C   UNL     1      37.221 -21.659 -16.541  0.00  0.00    +0.253 C 
ENDBRANCH  22  27
BRANCH  24  29
ATOM     29  O   UNL     1      34.052 -23.451 -17.369  0.00  0.00    -0.468 OA
ATOM     30  C   UNL     1      32.772 -23.319 -16.754  0.00  0.00    +0.253 C 
ENDBRANCH  24  29
ENDBRANCH  19  21
ENDBRANCH   1  20
TORSDOF 10
ENDMDL
MODEL 3
REMARK VINA RESULT:     -10.3      1.080     10.427
REMARK  Name = 6477182
REMARK  10 active torsions:
REMARK  status: ('A' for Active; 'I' for Inactive)
REMARK    1  A    between atoms: C_1  and  O_3
REMARK    2  A    between atoms: C_1  and  C_20
REMARK    3  A    between atoms: C_2  and  C_6
REMARK    4  A    between atoms: C_6  and  C_8
REMARK    5  A    between atoms: C_7  and  C_9
REMARK    6  A    between atoms: C_10  and  O_15
REMARK    7  A    between atoms: C_12  and  O_17
REMARK    8  A    between atoms: C_19  and  C_21
REMARK    9  A    between atoms: C_22  and  O_27
REMARK   10  A    between atoms: C_24  and  O_29
REMARK                            x       y       z     vdW  Elec       q    Type
REMARK                         _______ _______ _______ _____ _____    ______ ____
ROOT
ATOM      1  C   UNL     1      33.820 -15.462 -24.417  0.00  0.00    +0.137 C 
ATOM      2  C   UNL     1      34.228 -16.525 -23.701  0.00  0.00    +0.079 C 
ENDROOT
BRANCH   1   3
ATOM      3  O   UNL     1      33.740 -15.512 -25.797  0.00  0.00    -0.505 OA
ATOM      4  H   UNL     1      33.463 -16.300 -26.221  0.00  0.00    +0.292 HD
ENDBRANCH   1   3
BRANCH   2   6
ATOM      5  O   UNL     1      34.927 -17.938 -25.505  0.00  0.00    -0.286 OA
ATOM      6  C   UNL     1      34.642 -17.818 -24.320  0.00  0.00    +0.199 C 
BRANCH   6   8
ATOM      7  C   UNL     1      34.335 -18.763 -22.080  0.00  0.00    +0.003 C 
ATOM      8  C   UNL     1      34.680 -18.958 -23.361  0.00  0.00    +0.042 C 
BRANCH   7   9
ATOM      9  C   UNL     1      34.345 -19.810 -21.042  0.00  0.00    +0.003 C 
ATOM     10  C   UNL     1      35.566 -21.234 -19.546  0.00  0.00    +0.172 C 
ATOM     11  C   UNL     1      35.556 -20.244 -20.529  0.00  0.00    +0.040 C 
ATOM     12  C   UNL     1      34.364 -21.776 -19.091  0.00  0.00    +0.172 C 
ATOM     13  C   UNL     1      33.144 -20.337 -20.600  0.00  0.00    +0.003 C 
ATOM     14  C   UNL     1      33.152 -21.327 -19.617  0.00  0.00    +0.040 C 
BRANCH  10  15
ATOM     15  O   UNL     1      36.755 -21.665 -19.040  0.00  0.00    -0.468 OA
ATOM     16  C   UNL     1      37.002 -21.411 -17.659  0.00  0.00    +0.253 C 
ENDBRANCH  10  15
BRANCH  12  17
ATOM     17  O   UNL     1      34.359 -22.742 -18.130  0.00  0.00    -0.468 OA
ATOM     18  C   UNL     1      33.093 -23.112 -17.589  0.00  0.00    +0.253 C 
ENDBRANCH  12  17
ENDBRANCH   7   9
ENDBRANCH   6   8
ENDBRANCH   2   6
BRANCH   1  20
ATOM     19  C   UNL     1      33.498 -12.985 -24.251  0.00  0.00    +0.003 C 
ATOM     20  C   UNL     1      33.412 -14.230 -23.755  0.00  0.00    +0.037 C 
BRANCH  19  21
ATOM     21  C   UNL     1      33.072 -11.768 -23.536  0.00  0.00    +0.003 C 
ATOM     22  C   UNL     1      31.769 -10.729 -21.810  0.00  0.00    +0.172 C 
ATOM     23  C   UNL     1      32.173 -11.879 -22.488  0.00  0.00    +0.040 C 
ATOM     24  C   UNL     1      32.269  -9.484 -22.192  0.00  0.00    +0.172 C 
ATOM     25  C   UNL     1      33.577 -10.539 -23.927  0.00  0.00    +0.003 C 
ATOM     26  C   UNL     1      33.172  -9.389 -23.249  0.00  0.00    +0.040 C 
BRANCH  22  27
ATOM     27  O   UNL     1      30.885 -10.833 -20.779  0.00  0.00    -0.468 OA
ATOM     28  C   UNL     1      31.418 -11.182 -19.502  0.00  0.00    +0.253 C 
ENDBRANCH  22  27
BRANCH  24  29
ATOM     29  O   UNL     1      31.884  -8.353 -21.537  0.00  0.00    -0.468 OA
ATOM     30  C   UNL     1      32.779  -7.835 -20.555  0.00  0.00    +0.253 C 
ENDBRANCH  24  29
ENDBRANCH  19  21
ENDBRANCH   1  20
TORSDOF 10
ENDMDL
MODEL 4
REMARK VINA RESULT:     -10.3      0.940      1.890
REMARK  Name = 6477182
REMARK  10 active torsions:
REMARK  status: ('A' for Active; 'I' for Inactive)
REMARK    1  A    between atoms: C_1  and  O_3
REMARK    2  A    between atoms: C_1  and  C_20
REMARK    3  A    between atoms: C_2  and  C_6
REMARK    4  A    between atoms: C_6  and  C_8
REMARK    5  A    between atoms: C_7  and  C_9
REMARK    6  A    between atoms: C_10  and  O_15
REMARK    7  A    between atoms: C_12  and  O_17
REMARK    8  A    between atoms: C_19  and  C_21
REMARK    9  A    between atoms: C_22  and  O_27
REMARK   10  A    between atoms: C_24  and  O_29
REMARK                            x       y       z     vdW  Elec       q    Type
REMARK                         _______ _______ _______ _____ _____    ______ ____
ROOT
ATOM      1  C   UNL     1      34.591 -17.946 -23.926  0.00  0.00    +0.137 C 
ATOM      2  C   UNL     1      34.478 -16.609 -23.843  0.00  0.00    +0.079 C 
ENDROOT
BRANCH   1   3
ATOM      3  O   UNL     1      34.216 -18.631 -25.068  0.00  0.00    -0.505 OA
ATOM      4  H   UNL     1      34.748 -19.332 -25.389  0.00  0.00    +0.292 HD
ENDBRANCH   1   3
BRANCH   2   6
ATOM      5  O   UNL     1      34.059 -16.036 -26.131  0.00  0.00    -0.286 OA
ATOM      6  C   UNL     1      33.929 -15.764 -24.944  0.00  0.00    +0.199 C 
BRANCH   6   8
ATOM      7  C   UNL     1      33.894 -13.500 -24.007  0.00  0.00    +0.003 C 
ATOM      8  C   UNL     1      33.204 -14.554 -24.467  0.00  0.00    +0.042 C 
BRANCH   7   9
ATOM      9  C   UNL     1      33.286 -12.257 -23.501  0.00  0.00    +0.003 C 
ATOM     10  C   UNL     1      31.746 -11.152 -22.030  0.00  0.00    +0.172 C 
ATOM     11  C   UNL     1      32.321 -12.329 -22.509  0.00  0.00    +0.040 C 
ATOM     12  C   UNL     1      32.143  -9.920 -22.549  0.00  0.00    +0.172 C 
ATOM     13  C   UNL     1      33.691 -11.041 -24.026  0.00  0.00    +0.003 C 
ATOM     14  C   UNL     1      33.116  -9.864 -23.548  0.00  0.00    +0.040 C 
BRANCH  10  15
ATOM     15  O   UNL     1      30.797 -11.218 -21.055  0.00  0.00    -0.468 OA
ATOM     16  C   UNL     1      31.253 -11.224 -19.704  0.00  0.00    +0.253 C 
ENDBRANCH  10  15
BRANCH  12  17
ATOM     17  O   UNL     1      31.591  -8.763 -22.088  0.00  0.00    -0.468 OA
ATOM     18  C   UNL     1      32.383  -7.972 -21.205  0.00  0.00    +0.253 C 
ENDBRANCH  12  17
ENDBRANCH   7   9
ENDBRANCH   6   8
ENDBRANCH   2   6
BRANCH   1  20
ATOM     19  C   UNL     1      34.468 -19.467 -21.941  0.00  0.00    +0.003 C 
ATOM     20  C   UNL     1      35.150 -18.717 -22.823  0.00  0.00    +0.037 C 
BRANCH  19  21
ATOM     21  C   UNL     1      35.084 -20.228 -20.839  0.00  0.00    +0.003 C 
ATOM     22  C   UNL     1      34.955 -21.978 -19.202  0.00  0.00    +0.172 C 
ATOM     23  C   UNL     1      34.372 -21.257 -20.245  0.00  0.00    +0.040 C 
ATOM     24  C   UNL     1      36.241 -21.657 -18.767  0.00  0.00    +0.172 C 
ATOM     25  C   UNL     1      36.363 -19.898 -20.419  0.00  0.00    +0.003 C 
ATOM     26  C   UNL     1      36.945 -20.618 -19.375  0.00  0.00    +0.040 C 
BRANCH  22  27
ATOM     27  O   UNL     1      34.258 -22.989 -18.614  0.00  0.00    -0.468 OA
ATOM     28  C   UNL     1      33.054 -22.637 -17.935  0.00  0.00    +0.253 C 
ENDBRANCH  22  27
BRANCH  24  29
ATOM     29  O   UNL     1      36.822 -22.355 -17.751  0.00  0.00    -0.468 OA
ATOM     30  C   UNL     1      37.030 -21.659 -16.523  0.00  0.00    +0.253 C 
ENDBRANCH  24  29
ENDBRANCH  19  21
ENDBRANCH   1  20
TORSDOF 10
ENDMDL
MODEL 5
REMARK VINA RESULT:     -10.3      1.073     10.732
REMARK  Name = 6477182
REMARK  10 active torsions:
REMARK  status: ('A' for Active; 'I' for Inactive)
REMARK    1  A    between atoms: C_1  and  O_3
REMARK    2  A    between atoms: C_1  and  C_20
REMARK    3  A    between atoms: C_2  and  C_6
REMARK    4  A    between atoms: C_6  and  C_8
REMARK    5  A    between atoms: C_7  and  C_9
REMARK    6  A    between atoms: C_10  and  O_15
REMARK    7  A    between atoms: C_12  and  O_17
REMARK    8  A    between atoms: C_19  and  C_21
REMARK    9  A    between atoms: C_22  and  O_27
REMARK   10  A    between atoms: C_24  and  O_29
REMARK                            x       y       z     vdW  Elec       q    Type
REMARK                         _______ _______ _______ _____ _____    ______ ____
ROOT
ATOM      1  C   UNL     1      34.087 -15.703 -23.798  0.00  0.00    +0.137 C 
ATOM      2  C   UNL     1      34.550 -16.613 -22.923  0.00  0.00    +0.079 C 
ENDROOT
BRANCH   1   3
ATOM      3  O   UNL     1      33.829 -16.037 -25.115  0.00  0.00    -0.505 OA
ATOM      4  H   UNL     1      32.953 -15.997 -25.445  0.00  0.00    +0.292 HD
ENDBRANCH   1   3
BRANCH   2   6
ATOM      5  O   UNL     1      35.384 -18.354 -24.342  0.00  0.00    -0.286 OA
ATOM      6  C   UNL     1      34.843 -18.029 -23.293  0.00  0.00    +0.199 C 
BRANCH   6   8
ATOM      7  C   UNL     1      35.314 -19.511 -21.400  0.00  0.00    +0.003 C 
ATOM      8  C   UNL     1      34.416 -19.019 -22.265  0.00  0.00    +0.042 C 
BRANCH   7   9
ATOM      9  C   UNL     1      35.011 -20.501 -20.350  0.00  0.00    +0.003 C 
ATOM     10  C   UNL     1      35.752 -21.915 -18.559  0.00  0.00    +0.172 C 
ATOM     11  C   UNL     1      36.038 -20.979 -19.553  0.00  0.00    +0.040 C 
ATOM     12  C   UNL     1      34.442 -22.361 -18.377  0.00  0.00    +0.172 C 
ATOM     13  C   UNL     1      33.707 -20.933 -20.182  0.00  0.00    +0.003 C 
ATOM     14  C   UNL     1      33.419 -21.869 -19.189  0.00  0.00    +0.040 C 
BRANCH  10  15
ATOM     15  O   UNL     1      36.758 -22.388 -17.773  0.00  0.00    -0.468 OA
ATOM     16  C   UNL     1      37.149 -21.582 -16.664  0.00  0.00    +0.253 C 
ENDBRANCH  10  15
BRANCH  12  17
ATOM     17  O   UNL     1      34.149 -23.273 -17.409  0.00  0.00    -0.468 OA
ATOM     18  C   UNL     1      32.882 -23.151 -16.766  0.00  0.00    +0.253 C 
ENDBRANCH  12  17
ENDBRANCH   7   9
ENDBRANCH   6   8
ENDBRANCH   2   6
BRANCH   1  20
ATOM     19  C   UNL     1      32.613 -13.846 -22.994  0.00  0.00    +0.003 C 
ATOM     20  C   UNL     1      33.804 -14.338 -23.373  0.00  0.00    +0.037 C 
BRANCH  19  21
ATOM     21  C   UNL     1      32.381 -12.451 -22.575  0.00  0.00    +0.003 C 
ATOM     22  C   UNL     1      32.671 -10.099 -22.949  0.00  0.00    +0.172 C 
ATOM     23  C   UNL     1      32.891 -11.419 -23.345  0.00  0.00    +0.040 C 
ATOM     24  C   UNL     1      31.945  -9.831 -21.789  0.00  0.00    +0.172 C 
ATOM     25  C   UNL     1      31.658 -12.202 -21.420  0.00  0.00    +0.003 C 
ATOM     26  C   UNL     1      31.439 -10.882 -21.024  0.00  0.00    +0.040 C 
BRANCH  22  27
ATOM     27  O   UNL     1      33.172  -9.081 -23.703  0.00  0.00    -0.468 OA
ATOM     28  C   UNL     1      34.560  -9.137 -24.027  0.00  0.00    +0.253 C 
ENDBRANCH  22  27
BRANCH  24  29
ATOM     29  O   UNL     1      31.722  -8.547 -21.393  0.00  0.00    -0.468 OA
ATOM     30  C   UNL     1      32.220  -8.168 -20.111  0.00  0.00    +0.253 C 
ENDBRANCH  24  29
ENDBRANCH  19  21
ENDBRANCH   1  20
TORSDOF 10
ENDMDL
MODEL 6
REMARK VINA RESULT:     -10.2      0.926     10.848
REMARK  Name = 6477182
REMARK  10 active torsions:
REMARK  status: ('A' for Active; 'I' for Inactive)
REMARK    1  A    between atoms: C_1  and  O_3
REMARK    2  A    between atoms: C_1  and  C_20
REMARK    3  A    between atoms: C_2  and  C_6
REMARK    4  A    between atoms: C_6  and  C_8
REMARK    5  A    between atoms: C_7  and  C_9
REMARK    6  A    between atoms: C_10  and  O_15
REMARK    7  A    between atoms: C_12  and  O_17
REMARK    8  A    between atoms: C_19  and  C_21
REMARK    9  A    between atoms: C_22  and  O_27
REMARK   10  A    between atoms: C_24  and  O_29
REMARK                            x       y       z     vdW  Elec       q    Type
REMARK                         _______ _______ _______ _____ _____    ______ ____
ROOT
ATOM      1  C   UNL     1      34.727 -15.917 -23.246  0.00  0.00    +0.137 C 
ATOM      2  C   UNL     1      34.266 -17.020 -22.631  0.00  0.00    +0.079 C 
ENDROOT
BRANCH   1   3
ATOM      3  O   UNL     1      35.715 -15.990 -24.211  0.00  0.00    -0.505 OA
ATOM      4  H   UNL     1      36.065 -15.205 -24.583  0.00  0.00    +0.292 HD
ENDBRANCH   1   3
BRANCH   2   6
ATOM      5  O   UNL     1      35.472 -18.664 -23.889  0.00  0.00    -0.286 OA
ATOM      6  C   UNL     1      34.782 -18.391 -22.914  0.00  0.00    +0.199 C 
BRANCH   6   8
ATOM      7  C   UNL     1      35.259 -19.785 -20.956  0.00  0.00    +0.003 C 
ATOM      8  C   UNL     1      34.384 -19.405 -21.898  0.00  0.00    +0.042 C 
BRANCH   7   9
ATOM      9  C   UNL     1      34.982 -20.785 -19.909  0.00  0.00    +0.003 C 
ATOM     10  C   UNL     1      35.754 -22.172 -18.110  0.00  0.00    +0.172 C 
ATOM     11  C   UNL     1      36.017 -21.226 -19.101  0.00  0.00    +0.040 C 
ATOM     12  C   UNL     1      34.460 -22.664 -17.941  0.00  0.00    +0.172 C 
ATOM     13  C   UNL     1      33.692 -21.263 -19.754  0.00  0.00    +0.003 C 
ATOM     14  C   UNL     1      33.428 -22.209 -18.763  0.00  0.00    +0.040 C 
BRANCH  10  15
ATOM     15  O   UNL     1      36.770 -22.608 -17.314  0.00  0.00    -0.468 OA
ATOM     16  C   UNL     1      37.188 -21.741 -16.262  0.00  0.00    +0.253 C 
ENDBRANCH  10  15
BRANCH  12  17
ATOM     17  O   UNL     1      34.190 -23.586 -16.976  0.00  0.00    -0.468 OA
ATOM     18  C   UNL     1      32.914 -23.509 -16.344  0.00  0.00    +0.253 C 
ENDBRANCH  12  17
ENDBRANCH   7   9
ENDBRANCH   6   8
ENDBRANCH   2   6
BRANCH   1  20
ATOM     19  C   UNL     1      33.707 -13.703 -23.820  0.00  0.00    +0.003 C 
ATOM     20  C   UNL     1      34.172 -14.605 -22.939  0.00  0.00    +0.037 C 
BRANCH  19  21
ATOM     21  C   UNL     1      33.156 -12.386 -23.455  0.00  0.00    +0.003 C 
ATOM     22  C   UNL     1      31.691 -11.056 -22.097  0.00  0.00    +0.172 C 
ATOM     23  C   UNL     1      32.213 -12.303 -22.444  0.00  0.00    +0.040 C 
ATOM     24  C   UNL     1      32.119  -9.911 -22.769  0.00  0.00    +0.172 C 
ATOM     25  C   UNL     1      33.591 -11.258 -24.131  0.00  0.00    +0.003 C 
ATOM     26  C   UNL     1      33.069 -10.011 -23.785  0.00  0.00    +0.040 C 
BRANCH  22  27
ATOM     27  O   UNL     1      30.763 -10.970 -21.104  0.00  0.00    -0.468 OA
ATOM     28  C   UNL     1      31.241 -11.042 -19.762  0.00  0.00    +0.253 C 
ENDBRANCH  22  27
BRANCH  24  29
ATOM     29  O   UNL     1      31.619  -8.687 -22.439  0.00  0.00    -0.468 OA
ATOM     30  C   UNL     1      31.213  -7.841 -23.513  0.00  0.00    +0.253 C 
ENDBRANCH  24  29
ENDBRANCH  19  21
ENDBRANCH   1  20
TORSDOF 10
ENDMDL
MODEL 7
REMARK VINA RESULT:     -10.1      1.112     10.901
REMARK  Name = 6477182
REMARK  10 active torsions:
REMARK  status: ('A' for Active; 'I' for Inactive)
REMARK    1  A    between atoms: C_1  and  O_3
REMARK    2  A    between atoms: C_1  and  C_20
REMARK    3  A    between atoms: C_2  and  C_6
REMARK    4  A    between atoms: C_6  and  C_8
REMARK    5  A    between atoms: C_7  and  C_9
REMARK    6  A    between atoms: C_10  and  O_15
REMARK    7  A    between atoms: C_12  and  O_17
REMARK    8  A    between atoms: C_19  and  C_21
REMARK    9  A    between atoms: C_22  and  O_27
REMARK   10  A    between atoms: C_24  and  O_29
REMARK                            x       y       z     vdW  Elec       q    Type
REMARK                         _______ _______ _______ _____ _____    ______ ____
ROOT
ATOM      1  C   UNL     1      34.814 -16.139 -22.933  0.00  0.00    +0.137 C 
ATOM      2  C   UNL     1      34.428 -17.181 -22.176  0.00  0.00    +0.079 C 
ENDROOT
BRANCH   1   3
ATOM      3  O   UNL     1      35.698 -16.302 -23.984  0.00  0.00    -0.505 OA
ATOM      4  H   UNL     1      35.519 -15.904 -24.813  0.00  0.00    +0.292 HD
ENDBRANCH   1   3
BRANCH   2   6
ATOM      5  O   UNL     1      35.044 -19.088 -23.488  0.00  0.00    -0.286 OA
ATOM      6  C   UNL     1      34.925 -18.573 -22.384  0.00  0.00    +0.199 C 
BRANCH   6   8
ATOM      7  C   UNL     1      34.671 -20.448 -20.828  0.00  0.00    +0.003 C 
ATOM      8  C   UNL     1      35.267 -19.283 -21.120  0.00  0.00    +0.042 C 
BRANCH   7   9
ATOM      9  C   UNL     1      34.920 -21.234 -19.606  0.00  0.00    +0.003 C 
ATOM     10  C   UNL     1      34.153 -22.793 -17.951  0.00  0.00    +0.172 C 
ATOM     11  C   UNL     1      33.917 -22.049 -19.108  0.00  0.00    +0.040 C 
ATOM     12  C   UNL     1      35.388 -22.710 -17.309  0.00  0.00    +0.172 C 
ATOM     13  C   UNL     1      36.152 -21.141 -18.980  0.00  0.00    +0.003 C 
ATOM     14  C   UNL     1      36.388 -21.884 -17.824  0.00  0.00    +0.040 C 
BRANCH  10  15
ATOM     15  O   UNL     1      33.170 -23.595 -17.458  0.00  0.00    -0.468 OA
ATOM     16  C   UNL     1      32.102 -22.959 -16.759  0.00  0.00    +0.253 C 
ENDBRANCH  10  15
BRANCH  12  17
ATOM     17  O   UNL     1      35.632 -23.432 -16.179  0.00  0.00    -0.468 OA
ATOM     18  C   UNL     1      36.806 -23.103 -15.440  0.00  0.00    +0.253 C 
ENDBRANCH  12  17
ENDBRANCH   7   9
ENDBRANCH   6   8
ENDBRANCH   2   6
BRANCH   1  20
ATOM     19  C   UNL     1      33.699 -13.997 -23.594  0.00  0.00    +0.003 C 
ATOM     20  C   UNL     1      34.282 -14.804 -22.692  0.00  0.00    +0.037 C 
BRANCH  19  21
ATOM     21  C   UNL     1      33.177 -12.651 -23.297  0.00  0.00    +0.003 C 
ATOM     22  C   UNL     1      31.695 -11.230 -22.056  0.00  0.00    +0.172 C 
ATOM     23  C   UNL     1      32.189 -12.504 -22.338  0.00  0.00    +0.040 C 
ATOM     24  C   UNL     1      32.197 -10.121 -22.738  0.00  0.00    +0.172 C 
ATOM     25  C   UNL     1      33.686 -11.560 -23.982  0.00  0.00    +0.003 C 
ATOM     26  C   UNL     1      33.192 -10.286 -23.701  0.00  0.00    +0.040 C 
BRANCH  22  27
ATOM     27  O   UNL     1      30.722 -11.081 -21.114  0.00  0.00    -0.468 OA
ATOM     28  C   UNL     1      31.141 -11.040 -19.751  0.00  0.00    +0.253 C 
ENDBRANCH  22  27
BRANCH  24  29
ATOM     29  O   UNL     1      31.725  -8.872 -22.470  0.00  0.00    -0.468 OA
ATOM     30  C   UNL     1      31.112  -8.165 -23.547  0.00  0.00    +0.253 C 
ENDBRANCH  24  29
ENDBRANCH  19  21
ENDBRANCH   1  20
TORSDOF 10
ENDMDL
MODEL 8
REMARK VINA RESULT:     -10.1      1.282     10.347
REMARK  Name = 6477182
REMARK  10 active torsions:
REMARK  status: ('A' for Active; 'I' for Inactive)
REMARK    1  A    between atoms: C_1  and  O_3
REMARK    2  A    between atoms: C_1  and  C_20
REMARK    3  A    between atoms: C_2  and  C_6
REMARK    4  A    between atoms: C_6  and  C_8
REMARK    5  A    between atoms: C_7  and  C_9
REMARK    6  A    between atoms: C_10  and  O_15
REMARK    7  A    between atoms: C_12  and  O_17
REMARK    8  A    between atoms: C_19  and  C_21
REMARK    9  A    between atoms: C_22  and  O_27
REMARK   10  A    between atoms: C_24  and  O_29
REMARK                            x       y       z     vdW  Elec       q    Type
REMARK                         _______ _______ _______ _____ _____    ______ ____
ROOT
ATOM      1  C   UNL     1      33.899 -15.591 -24.839  0.00  0.00    +0.137 C 
ATOM      2  C   UNL     1      34.284 -16.568 -24.000  0.00  0.00    +0.079 C 
ENDROOT
BRANCH   1   3
ATOM      3  O   UNL     1      33.755 -15.822 -26.195  0.00  0.00    -0.505 OA
ATOM      4  H   UNL     1      32.939 -16.134 -26.533  0.00  0.00    +0.292 HD
ENDBRANCH   1   3
BRANCH   2   6
ATOM      5  O   UNL     1      34.334 -18.381 -25.566  0.00  0.00    -0.286 OA
ATOM      6  C   UNL     1      34.604 -17.955 -24.450  0.00  0.00    +0.199 C 
BRANCH   6   8
ATOM      7  C   UNL     1      34.655 -19.066 -22.267  0.00  0.00    +0.003 C 
ATOM      8  C   UNL     1      35.286 -18.780 -23.414  0.00  0.00    +0.042 C 
BRANCH   7   9
ATOM      9  C   UNL     1      35.232 -19.861 -21.168  0.00  0.00    +0.003 C 
ATOM     10  C   UNL     1      35.063 -21.683 -19.617  0.00  0.00    +0.172 C 
ATOM     11  C   UNL     1      34.516 -20.930 -20.656  0.00  0.00    +0.040 C 
ATOM     12  C   UNL     1      36.318 -21.356 -19.104  0.00  0.00    +0.172 C 
ATOM     13  C   UNL     1      36.479 -19.523 -20.670  0.00  0.00    +0.003 C 
ATOM     14  C   UNL     1      37.026 -20.275 -19.631  0.00  0.00    +0.040 C 
BRANCH  10  15
ATOM     15  O   UNL     1      34.362 -22.735 -19.110  0.00  0.00    -0.468 OA
ATOM     16  C   UNL     1      33.187 -22.432 -18.360  0.00  0.00    +0.253 C 
ENDBRANCH  10  15
BRANCH  12  17
ATOM     17  O   UNL     1      36.864 -22.084 -18.090  0.00  0.00    -0.468 OA
ATOM     18  C   UNL     1      37.170 -21.388 -16.884  0.00  0.00    +0.253 C 
ENDBRANCH  12  17
ENDBRANCH   7   9
ENDBRANCH   6   8
ENDBRANCH   2   6
BRANCH   1  20
ATOM     19  C   UNL     1      32.825 -13.962 -23.270  0.00  0.00    +0.003 C 
ATOM     20  C   UNL     1      33.584 -14.259 -24.339  0.00  0.00    +0.037 C 
BRANCH  19  21
ATOM     21  C   UNL     1      32.535 -12.593 -22.807  0.00  0.00    +0.003 C 
ATOM     22  C   UNL     1      32.778 -10.221 -23.070  0.00  0.00    +0.172 C 
ATOM     23  C   UNL     1      33.053 -11.517 -23.508  0.00  0.00    +0.040 C 
ATOM     24  C   UNL     1      31.991 -10.021 -21.937  0.00  0.00    +0.172 C 
ATOM     25  C   UNL     1      31.751 -12.411 -21.680  0.00  0.00    +0.003 C 
ATOM     26  C   UNL     1      31.477 -11.115 -21.241  0.00  0.00    +0.040 C 
BRANCH  22  27
ATOM     27  O   UNL     1      33.286  -9.159 -23.756  0.00  0.00    -0.468 OA
ATOM     28  C   UNL     1      34.668  -9.215 -24.105  0.00  0.00    +0.253 C 
ENDBRANCH  22  27
BRANCH  24  29
ATOM     29  O   UNL     1      31.714  -8.760 -21.500  0.00  0.00    -0.468 OA
ATOM     30  C   UNL     1      32.209  -8.396 -20.213  0.00  0.00    +0.253 C 
ENDBRANCH  24  29
ENDBRANCH  19  21
ENDBRANCH   1  20
TORSDOF 10
ENDMDL
MODEL 9
REMARK VINA RESULT:      -9.8      2.314     11.211
REMARK  Name = 6477182
REMARK  10 active torsions:
REMARK  status: ('A' for Active; 'I' for Inactive)
REMARK    1  A    between atoms: C_1  and  O_3
REMARK    2  A    between atoms: C_1  and  C_20
REMARK    3  A    between atoms: C_2  and  C_6
REMARK    4  A    between atoms: C_6  and  C_8
REMARK    5  A    between atoms: C_7  and  C_9
REMARK    6  A    between atoms: C_10  and  O_15
REMARK    7  A    between atoms: C_12  and  O_17
REMARK    8  A    between atoms: C_19  and  C_21
REMARK    9  A    between atoms: C_22  and  O_27
REMARK   10  A    between atoms: C_24  and  O_29
REMARK                            x       y       z     vdW  Elec       q    Type
REMARK                         _______ _______ _______ _____ _____    ______ ____
ROOT
ATOM      1  C   UNL     1      35.437 -19.122 -20.891  0.00  0.00    +0.137 C 
ATOM      2  C   UNL     1      34.832 -20.200 -20.362  0.00  0.00    +0.079 C 
ENDROOT
BRANCH   1   3
ATOM      3  O   UNL     1      36.804 -19.095 -21.103  0.00  0.00    -0.505 OA
ATOM      4  H   UNL     1      37.165 -19.487 -21.874  0.00  0.00    +0.292 HD
ENDBRANCH   1   3
BRANCH   2   6
ATOM      5  O   UNL     1      36.401 -21.988 -20.650  0.00  0.00    -0.286 OA
ATOM      6  C   UNL     1      35.569 -21.430 -19.946  0.00  0.00    +0.199 C 
BRANCH   6   8
ATOM      7  C   UNL     1      34.014 -22.514 -18.393  0.00  0.00    +0.003 C 
ATOM      8  C   UNL     1      35.200 -21.920 -18.589  0.00  0.00    +0.042 C 
BRANCH   7   9
ATOM      9  C   UNL     1      33.538 -23.028 -17.096  0.00  0.00    +0.003 C 
ATOM     10  C   UNL     1      34.011 -23.909 -14.916  0.00  0.00    +0.172 C 
ATOM     11  C   UNL     1      34.462 -23.424 -16.144  0.00  0.00    +0.040 C 
ATOM     12  C   UNL     1      32.643 -23.992 -14.659  0.00  0.00    +0.172 C 
ATOM     13  C   UNL     1      32.176 -23.103 -16.856  0.00  0.00    +0.003 C 
ATOM     14  C   UNL     1      31.725 -23.589 -15.629  0.00  0.00    +0.040 C 
BRANCH  10  15
ATOM     15  O   UNL     1      34.916 -24.300 -13.976  0.00  0.00    -0.468 OA
ATOM     16  C   UNL     1      36.255 -23.836 -14.133  0.00  0.00    +0.253 C 
ENDBRANCH  10  15
BRANCH  12  17
ATOM     17  O   UNL     1      32.189 -24.463 -13.463  0.00  0.00    -0.468 OA
ATOM     18  C   UNL     1      30.876 -25.018 -13.441  0.00  0.00    +0.253 C 
ENDBRANCH  12  17
ENDBRANCH   7   9
ENDBRANCH   6   8
ENDBRANCH   2   6
BRANCH   1  20
ATOM     19  C   UNL     1      34.951 -16.670 -21.030  0.00  0.00    +0.003 C 
ATOM     20  C   UNL     1      34.662 -17.955 -21.293  0.00  0.00    +0.037 C 
BRANCH  19  21
ATOM     21  C   UNL     1      34.130 -15.524 -21.460  0.00  0.00    +0.003 C 
ATOM     22  C   UNL     1      33.509 -13.937 -23.149  0.00  0.00    +0.172 C 
ATOM     23  C   UNL     1      34.287 -15.021 -22.741  0.00  0.00    +0.040 C 
ATOM     24  C   UNL     1      32.586 -13.371 -22.270  0.00  0.00    +0.172 C 
ATOM     25  C   UNL     1      33.217 -14.974 -20.575  0.00  0.00    +0.003 C 
ATOM     26  C   UNL     1      32.440 -13.889 -20.983  0.00  0.00    +0.040 C 
BRANCH  22  27
ATOM     27  O   UNL     1      33.661 -13.438 -24.408  0.00  0.00    -0.468 OA
ATOM     28  C   UNL     1      33.055 -14.171 -25.472  0.00  0.00    +0.253 C 
ENDBRANCH  22  27
BRANCH  24  29
ATOM     29  O   UNL     1      31.820 -12.314 -22.657  0.00  0.00    -0.468 OA
ATOM     30  C   UNL     1      31.430 -11.389 -21.643  0.00  0.00    +0.253 C 
ENDBRANCH  24  29
ENDBRANCH  19  21
ENDBRANCH   1  20
TORSDOF 10
ENDMDL
