MODEL 1
REMARK VINA RESULT:      -9.1      0.000      0.000
REMARK  Name = 44564
REMARK  7 active torsions:
REMARK  status: ('A' for Active; 'I' for Inactive)
REMARK    1  A    between atoms: C_2  and  N_9
REMARK    2  A    between atoms: C_3  and  N_17
REMARK    3  A    between atoms: C_7  and  C_25
REMARK    4  A    between atoms: C_10  and  C_13
REMARK    5  A    between atoms: C_13  and  O_14
REMARK    6  A    between atoms: C_18  and  C_21
REMARK    7  A    between atoms: C_21  and  O_22
REMARK                            x       y       z     vdW  Elec       q    Type
REMARK                         _______ _______ _______ _____ _____    ______ ____
ROOT
ATOM      1 CL   UNL     1      31.228 -24.932 -13.209  0.00  0.00    -0.080 Cl
ATOM      2  C   UNL     1      33.603 -24.207 -14.309  0.00  0.00    +0.063 C 
ATOM      3  C   UNL     1      31.638 -23.861 -15.672  0.00  0.00    +0.063 C 
ATOM      4  C   UNL     1      32.221 -24.293 -14.480  0.00  0.00    +0.085 C 
ATOM      5  C   UNL     1      34.401 -23.690 -15.329  0.00  0.00    +0.026 C 
ATOM      6  C   UNL     1      32.436 -23.344 -16.691  0.00  0.00    +0.026 C 
ATOM      7  C   UNL     1      33.818 -23.258 -16.520  0.00  0.00    +0.071 C 
ENDROOT
BRANCH   2   9
ATOM      8  O   UNL     1      36.034 -23.138 -12.860  0.00  0.00    -0.263 OA
ATOM      9  N   UNL     1      34.222 -24.629 -13.129  0.00  0.00    -0.274 N 
ATOM     10  C   UNL     1      35.347 -24.085 -12.516  0.00  0.00    +0.325 C 
ATOM     11  H   UNL     1      33.815 -25.403 -12.676  0.00  0.00    +0.155 HD
BRANCH  10  13
ATOM     12  O   UNL     1      35.332 -24.484 -10.142  0.00  0.00    -0.240 OA
ATOM     13  C   UNL     1      35.720 -24.820 -11.243  0.00  0.00    +0.393 C 
BRANCH  13  14
ATOM     14  O   UNL     1      36.517 -25.863 -11.527  0.00  0.00    -0.474 OA
ATOM     15  H   UNL     1      36.798 -26.437 -10.843  0.00  0.00    +0.296 HD
ENDBRANCH  13  14
ENDBRANCH  10  13
ENDBRANCH   2   9
BRANCH   3  17
ATOM     16  O   UNL     1      29.745 -21.941 -17.046  0.00  0.00    -0.263 OA
ATOM     17  N   UNL     1      30.256 -23.930 -15.879  0.00  0.00    -0.274 N 
ATOM     18  C   UNL     1      29.444 -23.003 -16.525  0.00  0.00    +0.325 C 
ATOM     19  H   UNL     1      29.805 -24.732 -15.527  0.00  0.00    +0.155 HD
BRANCH  18  21
ATOM     20  O   UNL     1      27.125 -22.888 -15.891  0.00  0.00    -0.240 OA
ATOM     21  C   UNL     1      27.990 -23.431 -16.551  0.00  0.00    +0.393 C 
BRANCH  21  22
ATOM     22  O   UNL     1      27.826 -24.465 -17.389  0.00  0.00    -0.474 OA
ATOM     23  H   UNL     1      28.020 -25.336 -17.103  0.00  0.00    +0.296 HD
ENDBRANCH  21  22
ENDBRANCH  18  21
ENDBRANCH   3  17
BRANCH   7  25
ATOM     24  N   UNL     1      35.302 -22.299 -18.415  0.00  0.00    -0.191 NA
ATOM     25  C   UNL     1      34.637 -22.729 -17.565  0.00  0.00    +0.100 C 
ENDBRANCH   7  25
TORSDOF 7
ENDMDL
MODEL 2
REMARK VINA RESULT:      -9.1      0.040      6.551
REMARK  Name = 44564
REMARK  7 active torsions:
REMARK  status: ('A' for Active; 'I' for Inactive)
REMARK    1  A    between atoms: C_2  and  N_9
REMARK    2  A    between atoms: C_3  and  N_17
REMARK    3  A    between atoms: C_7  and  C_25
REMARK    4  A    between atoms: C_10  and  C_13
REMARK    5  A    between atoms: C_13  and  O_14
REMARK    6  A    between atoms: C_18  and  C_21
REMARK    7  A    between atoms: C_21  and  O_22
REMARK                            x       y       z     vdW  Elec       q    Type
REMARK                         _______ _______ _______ _____ _____    ______ ____
ROOT
ATOM      1 CL   UNL     1      31.216 -24.916 -13.245  0.00  0.00    -0.080 Cl
ATOM      2  C   UNL     1      31.629 -23.845 -15.707  0.00  0.00    +0.063 C 
ATOM      3  C   UNL     1      33.593 -24.191 -14.344  0.00  0.00    +0.063 C 
ATOM      4  C   UNL     1      32.211 -24.275 -14.514  0.00  0.00    +0.085 C 
ATOM      5  C   UNL     1      32.428 -23.333 -16.728  0.00  0.00    +0.026 C 
ATOM      6  C   UNL     1      34.392 -23.679 -15.365  0.00  0.00    +0.026 C 
ATOM      7  C   UNL     1      33.810 -23.250 -16.558  0.00  0.00    +0.071 C 
ENDROOT
BRANCH   2   9
ATOM      8  O   UNL     1      29.731 -21.912 -17.055  0.00  0.00    -0.263 OA
ATOM      9  N   UNL     1      30.248 -23.914 -15.914  0.00  0.00    -0.274 N 
ATOM     10  C   UNL     1      29.434 -22.980 -16.547  0.00  0.00    +0.325 C 
ATOM     11  H   UNL     1      29.797 -24.720 -15.572  0.00  0.00    +0.155 HD
BRANCH  10  13
ATOM     12  O   UNL     1      27.107 -22.854 -15.942  0.00  0.00    -0.240 OA
ATOM     13  C   UNL     1      27.980 -23.411 -16.578  0.00  0.00    +0.393 C 
BRANCH  13  14
ATOM     14  O   UNL     1      27.826 -24.466 -17.394  0.00  0.00    -0.474 OA
ATOM     15  H   UNL     1      28.382 -24.564 -18.141  0.00  0.00    +0.296 HD
ENDBRANCH  13  14
ENDBRANCH  10  13
ENDBRANCH   2   9
BRANCH   3  17
ATOM     16  O   UNL     1      36.038 -23.137 -12.906  0.00  0.00    -0.263 OA
ATOM     17  N   UNL     1      34.213 -24.614 -13.162  0.00  0.00    -0.274 N 
ATOM     18  C   UNL     1      35.344 -24.077 -12.556  0.00  0.00    +0.325 C 
ATOM     19  H   UNL     1      33.798 -25.382 -12.706  0.00  0.00    +0.155 HD
BRANCH  18  21
ATOM     20  O   UNL     1      35.311 -24.480 -10.182  0.00  0.00    -0.240 OA
ATOM     21  C   UNL     1      35.715 -24.810 -11.281  0.00  0.00    +0.393 C 
BRANCH  21  22
ATOM     22  O   UNL     1      36.528 -25.840 -11.558  0.00  0.00    -0.474 OA
ATOM     23  H   UNL     1      37.220 -26.063 -10.965  0.00  0.00    +0.296 HD
ENDBRANCH  21  22
ENDBRANCH  18  21
ENDBRANCH   3  17
BRANCH   7  25
ATOM     24  N   UNL     1      35.293 -22.297 -18.456  0.00  0.00    -0.191 NA
ATOM     25  C   UNL     1      34.628 -22.724 -17.605  0.00  0.00    +0.100 C 
ENDBRANCH   7  25
TORSDOF 7
ENDMDL
MODEL 3
REMARK VINA RESULT:      -8.8      0.924      6.567
REMARK  Name = 44564
REMARK  7 active torsions:
REMARK  status: ('A' for Active; 'I' for Inactive)
REMARK    1  A    between atoms: C_2  and  N_9
REMARK    2  A    between atoms: C_3  and  N_17
REMARK    3  A    between atoms: C_7  and  C_25
REMARK    4  A    between atoms: C_10  and  C_13
REMARK    5  A    between atoms: C_13  and  O_14
REMARK    6  A    between atoms: C_18  and  C_21
REMARK    7  A    between atoms: C_21  and  O_22
REMARK                            x       y       z     vdW  Elec       q    Type
REMARK                         _______ _______ _______ _____ _____    ______ ____
ROOT
ATOM      1 CL   UNL     1      31.687 -24.366 -13.192  0.00  0.00    -0.080 Cl
ATOM      2  C   UNL     1      32.026 -23.728 -15.810  0.00  0.00    +0.063 C 
ATOM      3  C   UNL     1      33.972 -23.518 -14.392  0.00  0.00    +0.063 C 
ATOM      4  C   UNL     1      32.623 -23.835 -14.553  0.00  0.00    +0.085 C 
ATOM      5  C   UNL     1      32.778 -23.304 -16.904  0.00  0.00    +0.026 C 
ATOM      6  C   UNL     1      34.724 -23.094 -15.487  0.00  0.00    +0.026 C 
ATOM      7  C   UNL     1      34.127 -22.988 -16.744  0.00  0.00    +0.071 C 
ENDROOT
BRANCH   2   9
ATOM      8  O   UNL     1      29.779 -22.099 -17.014  0.00  0.00    -0.263 OA
ATOM      9  N   UNL     1      30.678 -24.038 -16.009  0.00  0.00    -0.274 N 
ATOM     10  C   UNL     1      29.693 -23.233 -16.573  0.00  0.00    +0.325 C 
ATOM     11  H   UNL     1      30.389 -24.933 -15.715  0.00  0.00    +0.155 HD
BRANCH  10  13
ATOM     12  O   UNL     1      27.671 -24.006 -17.628  0.00  0.00    -0.240 OA
ATOM     13  C   UNL     1      28.343 -23.922 -16.619  0.00  0.00    +0.393 C 
BRANCH  13  14
ATOM     14  O   UNL     1      28.030 -24.408 -15.406  0.00  0.00    -0.474 OA
ATOM     15  H   UNL     1      28.403 -24.024 -14.638  0.00  0.00    +0.296 HD
ENDBRANCH  13  14
ENDBRANCH  10  13
ENDBRANCH   2   9
BRANCH   3  17
ATOM     16  O   UNL     1      36.173 -25.358 -13.430  0.00  0.00    -0.263 OA
ATOM     17  N   UNL     1      34.605 -23.614 -13.148  0.00  0.00    -0.274 N 
ATOM     18  C   UNL     1      35.617 -24.491 -12.774  0.00  0.00    +0.325 C 
ATOM     19  H   UNL     1      34.297 -22.985 -12.456  0.00  0.00    +0.155 HD
BRANCH  18  21
ATOM     20  O   UNL     1      36.918 -23.509 -11.002  0.00  0.00    -0.240 OA
ATOM     21  C   UNL     1      36.048 -24.291 -11.334  0.00  0.00    +0.393 C 
BRANCH  21  22
ATOM     22  O   UNL     1      35.338 -25.089 -10.522  0.00  0.00    -0.474 OA
ATOM     23  H   UNL     1      35.082 -25.943 -10.812  0.00  0.00    +0.296 HD
ENDBRANCH  21  22
ENDBRANCH  18  21
ENDBRANCH   3  17
BRANCH   7  25
ATOM     24  N   UNL     1      35.522 -22.199 -18.780  0.00  0.00    -0.191 NA
ATOM     25  C   UNL     1      34.897 -22.553 -17.867  0.00  0.00    +0.100 C 
ENDBRANCH   7  25
TORSDOF 7
ENDMDL
MODEL 4
REMARK VINA RESULT:      -8.5      2.984      7.161
REMARK  Name = 44564
REMARK  7 active torsions:
REMARK  status: ('A' for Active; 'I' for Inactive)
REMARK    1  A    between atoms: C_2  and  N_9
REMARK    2  A    between atoms: C_3  and  N_17
REMARK    3  A    between atoms: C_7  and  C_25
REMARK    4  A    between atoms: C_10  and  C_13
REMARK    5  A    between atoms: C_13  and  O_14
REMARK    6  A    between atoms: C_18  and  C_21
REMARK    7  A    between atoms: C_21  and  O_22
REMARK                            x       y       z     vdW  Elec       q    Type
REMARK                         _______ _______ _______ _____ _____    ______ ____
ROOT
ATOM      1 CL   UNL     1      35.885 -23.070 -15.974  0.00  0.00    -0.080 Cl
ATOM      2  C   UNL     1      33.207 -23.147 -16.422  0.00  0.00    +0.063 C 
ATOM      3  C   UNL     1      34.011 -24.379 -14.506  0.00  0.00    +0.063 C 
ATOM      4  C   UNL     1      34.262 -23.565 -15.611  0.00  0.00    +0.085 C 
ATOM      5  C   UNL     1      31.902 -23.541 -16.129  0.00  0.00    +0.026 C 
ATOM      6  C   UNL     1      32.706 -24.773 -14.212  0.00  0.00    +0.026 C 
ATOM      7  C   UNL     1      31.651 -24.354 -15.023  0.00  0.00    +0.071 C 
ENDROOT
BRANCH   2   9
ATOM      8  O   UNL     1      33.943 -23.843 -19.273  0.00  0.00    -0.263 OA
ATOM      9  N   UNL     1      33.420 -22.330 -17.537  0.00  0.00    -0.274 N 
ATOM     10  C   UNL     1      33.759 -22.723 -18.828  0.00  0.00    +0.325 C 
ATOM     11  H   UNL     1      33.318 -21.361 -17.392  0.00  0.00    +0.155 HD
BRANCH  10  13
ATOM     12  O   UNL     1      34.972 -21.014 -20.013  0.00  0.00    -0.240 OA
ATOM     13  C   UNL     1      33.905 -21.542 -19.768  0.00  0.00    +0.393 C 
BRANCH  13  14
ATOM     14  O   UNL     1      32.708 -21.195 -20.267  0.00  0.00    -0.474 OA
ATOM     15  H   UNL     1      31.939 -21.279 -19.739  0.00  0.00    +0.296 HD
ENDBRANCH  13  14
ENDBRANCH  10  13
ENDBRANCH   2   9
BRANCH   3  17
ATOM     16  O   UNL     1      34.707 -23.621 -11.660  0.00  0.00    -0.263 OA
ATOM     17  N   UNL     1      35.042 -24.818 -13.668  0.00  0.00    -0.274 N 
ATOM     18  C   UNL     1      35.304 -24.422 -12.361  0.00  0.00    +0.325 C 
ATOM     19  H   UNL     1      35.655 -25.487 -14.051  0.00  0.00    +0.155 HD
BRANCH  18  21
ATOM     20  O   UNL     1      36.826 -26.264 -12.066  0.00  0.00    -0.240 OA
ATOM     21  C   UNL     1      36.516 -25.124 -11.779  0.00  0.00    +0.393 C 
BRANCH  21  22
ATOM     22  O   UNL     1      37.161 -24.308 -10.932  0.00  0.00    -0.474 OA
ATOM     23  H   UNL     1      38.054 -24.480 -10.705  0.00  0.00    +0.296 HD
ENDBRANCH  21  22
ENDBRANCH  18  21
ENDBRANCH   3  17
BRANCH   7  25
ATOM     24  N   UNL     1      29.226 -25.088 -14.480  0.00  0.00    -0.191 NA
ATOM     25  C   UNL     1      30.314 -24.758 -14.724  0.00  0.00    +0.100 C 
ENDBRANCH   7  25
TORSDOF 7
ENDMDL
MODEL 5
REMARK VINA RESULT:      -8.5      3.782      7.925
REMARK  Name = 44564
REMARK  7 active torsions:
REMARK  status: ('A' for Active; 'I' for Inactive)
REMARK    1  A    between atoms: C_2  and  N_9
REMARK    2  A    between atoms: C_3  and  N_17
REMARK    3  A    between atoms: C_7  and  C_25
REMARK    4  A    between atoms: C_10  and  C_13
REMARK    5  A    between atoms: C_13  and  O_14
REMARK    6  A    between atoms: C_18  and  C_21
REMARK    7  A    between atoms: C_21  and  O_22
REMARK                            x       y       z     vdW  Elec       q    Type
REMARK                         _______ _______ _______ _____ _____    ______ ____
ROOT
ATOM      1 CL   UNL     1      37.248 -22.643 -16.647  0.00  0.00    -0.080 Cl
ATOM      2  C   UNL     1      34.576 -22.991 -16.304  0.00  0.00    +0.063 C 
ATOM      3  C   UNL     1      36.014 -24.038 -14.669  0.00  0.00    +0.063 C 
ATOM      4  C   UNL     1      35.856 -23.266 -15.820  0.00  0.00    +0.085 C 
ATOM      5  C   UNL     1      33.457 -23.488 -15.638  0.00  0.00    +0.026 C 
ATOM      6  C   UNL     1      34.895 -24.535 -14.003  0.00  0.00    +0.026 C 
ATOM      7  C   UNL     1      33.616 -24.260 -14.486  0.00  0.00    +0.071 C 
ENDROOT
BRANCH   2   9
ATOM      8  O   UNL     1      33.812 -23.796 -19.119  0.00  0.00    -0.263 OA
ATOM      9  N   UNL     1      34.378 -22.220 -17.453  0.00  0.00    -0.274 N 
ATOM     10  C   UNL     1      34.025 -22.662 -18.724  0.00  0.00    +0.325 C 
ATOM     11  H   UNL     1      34.503 -21.249 -17.352  0.00  0.00    +0.155 HD
BRANCH  10  13
ATOM     12  O   UNL     1      34.822 -20.773 -19.987  0.00  0.00    -0.240 OA
ATOM     13  C   UNL     1      33.903 -21.521 -19.716  0.00  0.00    +0.393 C 
BRANCH  13  14
ATOM     14  O   UNL     1      32.662 -21.480 -20.226  0.00  0.00    -0.474 OA
ATOM     15  H   UNL     1      31.970 -21.073 -19.743  0.00  0.00    +0.296 HD
ENDBRANCH  13  14
ENDBRANCH  10  13
ENDBRANCH   2   9
BRANCH   3  17
ATOM     16  O   UNL     1      37.870 -26.370 -15.193  0.00  0.00    -0.263 OA
ATOM     17  N   UNL     1      37.281 -24.334 -14.153  0.00  0.00    -0.274 N 
ATOM     18  C   UNL     1      38.083 -25.433 -14.441  0.00  0.00    +0.325 C 
ATOM     19  H   UNL     1      37.649 -23.685 -13.510  0.00  0.00    +0.155 HD
BRANCH  18  21
ATOM     20  O   UNL     1      40.242 -26.269 -13.784  0.00  0.00    -0.240 OA
ATOM     21  C   UNL     1      39.394 -25.404 -13.681  0.00  0.00    +0.393 C 
BRANCH  21  22
ATOM     22  O   UNL     1      39.459 -24.308 -12.910  0.00  0.00    -0.474 OA
ATOM     23  H   UNL     1      39.666 -23.478 -13.292  0.00  0.00    +0.296 HD
ENDBRANCH  21  22
ENDBRANCH  18  21
ENDBRANCH   3  17
BRANCH   7  25
ATOM     24  N   UNL     1      31.535 -25.185 -13.250  0.00  0.00    -0.191 NA
ATOM     25  C   UNL     1      32.468 -24.770 -13.804  0.00  0.00    +0.100 C 
ENDBRANCH   7  25
TORSDOF 7
ENDMDL
MODEL 6
REMARK VINA RESULT:      -8.4      3.906      5.057
REMARK  Name = 44564
REMARK  7 active torsions:
REMARK  status: ('A' for Active; 'I' for Inactive)
REMARK    1  A    between atoms: C_2  and  N_9
REMARK    2  A    between atoms: C_3  and  N_17
REMARK    3  A    between atoms: C_7  and  C_25
REMARK    4  A    between atoms: C_10  and  C_13
REMARK    5  A    between atoms: C_13  and  O_14
REMARK    6  A    between atoms: C_18  and  C_21
REMARK    7  A    between atoms: C_21  and  O_22
REMARK                            x       y       z     vdW  Elec       q    Type
REMARK                         _______ _______ _______ _____ _____    ______ ____
ROOT
ATOM      1 CL   UNL     1      37.223 -22.602 -16.934  0.00  0.00    -0.080 Cl
ATOM      2  C   UNL     1      36.090 -24.030 -14.920  0.00  0.00    +0.063 C 
ATOM      3  C   UNL     1      34.571 -22.924 -16.439  0.00  0.00    +0.063 C 
ATOM      4  C   UNL     1      35.873 -23.225 -16.039  0.00  0.00    +0.085 C 
ATOM      5  C   UNL     1      35.007 -24.533 -14.203  0.00  0.00    +0.026 C 
ATOM      6  C   UNL     1      33.487 -23.428 -15.721  0.00  0.00    +0.026 C 
ATOM      7  C   UNL     1      33.704 -24.233 -14.603  0.00  0.00    +0.071 C 
ENDROOT
BRANCH   2   9
ATOM      8  O   UNL     1      37.721 -26.552 -15.281  0.00  0.00    -0.263 OA
ATOM      9  N   UNL     1      37.381 -24.353 -14.490  0.00  0.00    -0.274 N 
ATOM     10  C   UNL     1      38.073 -25.543 -14.694  0.00  0.00    +0.325 C 
ATOM     11  H   UNL     1      37.857 -23.657 -13.983  0.00  0.00    +0.155 HD
BRANCH  10  13
ATOM     12  O   UNL     1      39.833 -24.639 -13.322  0.00  0.00    -0.240 OA
ATOM     13  C   UNL     1      39.457 -25.517 -14.073  0.00  0.00    +0.393 C 
BRANCH  13  14
ATOM     14  O   UNL     1      40.164 -26.585 -14.475  0.00  0.00    -0.474 OA
ATOM     15  H   UNL     1      39.777 -27.215 -15.049  0.00  0.00    +0.296 HD
ENDBRANCH  13  14
ENDBRANCH  10  13
ENDBRANCH   2   9
BRANCH   3  17
ATOM     16  O   UNL     1      33.889 -23.665 -19.293  0.00  0.00    -0.263 OA
ATOM     17  N   UNL     1      34.314 -22.121 -17.556  0.00  0.00    -0.274 N 
ATOM     18  C   UNL     1      34.005 -22.534 -18.848  0.00  0.00    +0.325 C 
ATOM     19  H   UNL     1      34.356 -21.149 -17.409  0.00  0.00    +0.155 HD
BRANCH  18  21
ATOM     20  O   UNL     1      32.701 -21.050 -20.224  0.00  0.00    -0.240 OA
ATOM     21  C   UNL     1      33.792 -21.365 -19.790  0.00  0.00    +0.393 C 
BRANCH  21  22
ATOM     22  O   UNL     1      34.961 -20.762 -20.052  0.00  0.00    -0.474 OA
ATOM     23  H   UNL     1      35.320 -20.149 -19.440  0.00  0.00    +0.296 HD
ENDBRANCH  21  22
ENDBRANCH  18  21
ENDBRANCH   3  17
BRANCH   7  25
ATOM     24  N   UNL     1      31.691 -25.168 -13.266  0.00  0.00    -0.191 NA
ATOM     25  C   UNL     1      32.594 -24.749 -13.866  0.00  0.00    +0.100 C 
ENDBRANCH   7  25
TORSDOF 7
ENDMDL
MODEL 7
REMARK VINA RESULT:      -8.4      2.965      4.380
REMARK  Name = 44564
REMARK  7 active torsions:
REMARK  status: ('A' for Active; 'I' for Inactive)
REMARK    1  A    between atoms: C_2  and  N_9
REMARK    2  A    between atoms: C_3  and  N_17
REMARK    3  A    between atoms: C_7  and  C_25
REMARK    4  A    between atoms: C_10  and  C_13
REMARK    5  A    between atoms: C_13  and  O_14
REMARK    6  A    between atoms: C_18  and  C_21
REMARK    7  A    between atoms: C_21  and  O_22
REMARK                            x       y       z     vdW  Elec       q    Type
REMARK                         _______ _______ _______ _____ _____    ______ ____
ROOT
ATOM      1 CL   UNL     1      35.892 -23.075 -15.957  0.00  0.00    -0.080 Cl
ATOM      2  C   UNL     1      34.007 -24.346 -14.471  0.00  0.00    +0.063 C 
ATOM      3  C   UNL     1      33.215 -23.148 -16.414  0.00  0.00    +0.063 C 
ATOM      4  C   UNL     1      34.265 -23.553 -15.590  0.00  0.00    +0.085 C 
ATOM      5  C   UNL     1      32.701 -24.733 -14.176  0.00  0.00    +0.026 C 
ATOM      6  C   UNL     1      31.908 -23.535 -16.119  0.00  0.00    +0.026 C 
ATOM      7  C   UNL     1      31.651 -24.329 -15.001  0.00  0.00    +0.071 C 
ENDROOT
BRANCH   2   9
ATOM      8  O   UNL     1      34.699 -23.535 -11.639  0.00  0.00    -0.263 OA
ATOM      9  N   UNL     1      35.034 -24.772 -13.623  0.00  0.00    -0.274 N 
ATOM     10  C   UNL     1      35.294 -24.352 -12.322  0.00  0.00    +0.325 C 
ATOM     11  H   UNL     1      35.647 -25.450 -13.989  0.00  0.00    +0.155 HD
BRANCH  10  13
ATOM     12  O   UNL     1      36.819 -26.186 -12.000  0.00  0.00    -0.240 OA
ATOM     13  C   UNL     1      36.502 -25.047 -11.724  0.00  0.00    +0.393 C 
BRANCH  13  14
ATOM     14  O   UNL     1      37.137 -24.222 -10.876  0.00  0.00    -0.474 OA
ATOM     15  H   UNL     1      37.238 -24.463  -9.976  0.00  0.00    +0.296 HD
ENDBRANCH  13  14
ENDBRANCH  10  13
ENDBRANCH   2   9
BRANCH   3  17
ATOM     16  O   UNL     1      33.819 -23.911 -19.279  0.00  0.00    -0.263 OA
ATOM     17  N   UNL     1      33.434 -22.354 -17.545  0.00  0.00    -0.274 N 
ATOM     18  C   UNL     1      33.709 -22.777 -18.841  0.00  0.00    +0.325 C 
ATOM     19  H   UNL     1      33.388 -21.380 -17.406  0.00  0.00    +0.155 HD
BRANCH  18  21
ATOM     20  O   UNL     1      34.973 -21.151 -20.088  0.00  0.00    -0.240 OA
ATOM     21  C   UNL     1      33.887 -21.615 -19.799  0.00  0.00    +0.393 C 
BRANCH  21  22
ATOM     22  O   UNL     1      32.694 -21.204 -20.255  0.00  0.00    -0.474 OA
ATOM     23  H   UNL     1      32.068 -21.830 -20.562  0.00  0.00    +0.296 HD
ENDBRANCH  21  22
ENDBRANCH  18  21
ENDBRANCH   3  17
BRANCH   7  25
ATOM     24  N   UNL     1      29.223 -25.049 -14.452  0.00  0.00    -0.191 NA
ATOM     25  C   UNL     1      30.312 -24.725 -14.698  0.00  0.00    +0.100 C 
ENDBRANCH   7  25
TORSDOF 7
ENDMDL
MODEL 8
REMARK VINA RESULT:      -8.1      2.497      6.847
REMARK  Name = 44564
REMARK  7 active torsions:
REMARK  status: ('A' for Active; 'I' for Inactive)
REMARK    1  A    between atoms: C_2  and  N_9
REMARK    2  A    between atoms: C_3  and  N_17
REMARK    3  A    between atoms: C_7  and  C_25
REMARK    4  A    between atoms: C_10  and  C_13
REMARK    5  A    between atoms: C_13  and  O_14
REMARK    6  A    between atoms: C_18  and  C_21
REMARK    7  A    between atoms: C_21  and  O_22
REMARK                            x       y       z     vdW  Elec       q    Type
REMARK                         _______ _______ _______ _____ _____    ______ ____
ROOT
ATOM      1 CL   UNL     1      34.315 -24.590 -14.329  0.00  0.00    -0.080 Cl
ATOM      2  C   UNL     1      34.015 -23.214 -16.651  0.00  0.00    +0.063 C 
ATOM      3  C   UNL     1      36.237 -23.248 -15.702  0.00  0.00    +0.063 C 
ATOM      4  C   UNL     1      34.893 -23.620 -15.646  0.00  0.00    +0.085 C 
ATOM      5  C   UNL     1      34.480 -22.437 -17.711  0.00  0.00    +0.026 C 
ATOM      6  C   UNL     1      36.702 -22.471 -16.762  0.00  0.00    +0.026 C 
ATOM      7  C   UNL     1      35.824 -22.066 -17.767  0.00  0.00    +0.071 C 
ENDROOT
BRANCH   2   9
ATOM      8  O   UNL     1      31.782 -22.384 -14.786  0.00  0.00    -0.263 OA
ATOM      9  N   UNL     1      32.663 -23.568 -16.629  0.00  0.00    -0.274 N 
ATOM     10  C   UNL     1      31.686 -23.144 -15.734  0.00  0.00    +0.325 C 
ATOM     11  H   UNL     1      32.366 -24.193 -17.330  0.00  0.00    +0.155 HD
BRANCH  10  13
ATOM     12  O   UNL     1      29.950 -24.804 -15.562  0.00  0.00    -0.240 OA
ATOM     13  C   UNL     1      30.328 -23.751 -16.035  0.00  0.00    +0.393 C 
BRANCH  13  14
ATOM     14  O   UNL     1      29.643 -22.958 -16.875  0.00  0.00    -0.474 OA
ATOM     15  H   UNL     1      29.523 -22.053 -16.671  0.00  0.00    +0.296 HD
ENDBRANCH  13  14
ENDBRANCH  10  13
ENDBRANCH   2   9
BRANCH   3  17
ATOM     16  O   UNL     1      37.559 -25.917 -15.170  0.00  0.00    -0.263 OA
ATOM     17  N   UNL     1      37.147 -23.637 -14.713  0.00  0.00    -0.274 N 
ATOM     18  C   UNL     1      37.718 -24.892 -14.527  0.00  0.00    +0.325 C 
ATOM     19  H   UNL     1      37.417 -22.938 -14.073  0.00  0.00    +0.155 HD
BRANCH  18  21
ATOM     20  O   UNL     1      38.733 -24.029 -12.522  0.00  0.00    -0.240 OA
ATOM     21  C   UNL     1      38.663 -24.924 -13.342  0.00  0.00    +0.393 C 
BRANCH  21  22
ATOM     22  O   UNL     1      39.377 -26.059 -13.349  0.00  0.00    -0.474 OA
ATOM     23  H   UNL     1      39.029 -26.835 -12.954  0.00  0.00    +0.296 HD
ENDBRANCH  21  22
ENDBRANCH  18  21
ENDBRANCH   3  17
BRANCH   7  25
ATOM     24  N   UNL     1      36.686 -20.620 -19.737  0.00  0.00    -0.191 NA
ATOM     25  C   UNL     1      36.299 -21.268 -18.854  0.00  0.00    +0.100 C 
ENDBRANCH   7  25
TORSDOF 7
ENDMDL
MODEL 9
REMARK VINA RESULT:      -8.0     10.113     12.125
REMARK  Name = 44564
REMARK  7 active torsions:
REMARK  status: ('A' for Active; 'I' for Inactive)
REMARK    1  A    between atoms: C_2  and  N_9
REMARK    2  A    between atoms: C_3  and  N_17
REMARK    3  A    between atoms: C_7  and  C_25
REMARK    4  A    between atoms: C_10  and  C_13
REMARK    5  A    between atoms: C_13  and  O_14
REMARK    6  A    between atoms: C_18  and  C_21
REMARK    7  A    between atoms: C_21  and  O_22
REMARK                            x       y       z     vdW  Elec       q    Type
REMARK                         _______ _______ _______ _____ _____    ______ ____
ROOT
ATOM      1 CL   UNL     1      33.975 -15.082 -20.246  0.00  0.00    -0.080 Cl
ATOM      2  C   UNL     1      34.466 -15.970 -22.766  0.00  0.00    +0.063 C 
ATOM      3  C   UNL     1      32.953 -14.097 -22.562  0.00  0.00    +0.063 C 
ATOM      4  C   UNL     1      33.784 -15.048 -21.970  0.00  0.00    +0.085 C 
ATOM      5  C   UNL     1      34.316 -15.940 -24.151  0.00  0.00    +0.026 C 
ATOM      6  C   UNL     1      32.803 -14.068 -23.948  0.00  0.00    +0.026 C 
ATOM      7  C   UNL     1      33.485 -14.989 -24.743  0.00  0.00    +0.071 C 
ENDROOT
BRANCH   2   9
ATOM      8  O   UNL     1      33.832 -18.528 -21.279  0.00  0.00    -0.263 OA
ATOM      9  N   UNL     1      35.308 -16.936 -22.208  0.00  0.00    -0.274 N 
ATOM     10  C   UNL     1      34.944 -18.096 -21.533  0.00  0.00    +0.325 C 
ATOM     11  H   UNL     1      36.275 -16.777 -22.304  0.00  0.00    +0.155 HD
BRANCH  10  13
ATOM     12  O   UNL     1      36.114 -19.672 -20.139  0.00  0.00    -0.240 OA
ATOM     13  C   UNL     1      36.148 -18.897 -21.073  0.00  0.00    +0.393 C 
BRANCH  13  14
ATOM     14  O   UNL     1      37.211 -18.616 -21.843  0.00  0.00    -0.474 OA
ATOM     15  H   UNL     1      37.933 -19.212 -21.880  0.00  0.00    +0.296 HD
ENDBRANCH  13  14
ENDBRANCH  10  13
ENDBRANCH   2   9
BRANCH   3  17
ATOM     16  O   UNL     1      32.608 -11.113 -22.929  0.00  0.00    -0.263 OA
ATOM     17  N   UNL     1      32.254 -13.156 -21.798  0.00  0.00    -0.274 N 
ATOM     18  C   UNL     1      32.138 -11.789 -22.028  0.00  0.00    +0.325 C 
ATOM     19  H   UNL     1      31.789 -13.503 -21.002  0.00  0.00    +0.155 HD
BRANCH  18  21
ATOM     20  O   UNL     1      31.750 -10.300 -20.176  0.00  0.00    -0.240 OA
ATOM     21  C   UNL     1      31.295 -11.098 -20.974  0.00  0.00    +0.393 C 
BRANCH  21  22
ATOM     22  O   UNL     1      30.018 -11.497 -21.066  0.00  0.00    -0.474 OA
ATOM     23  H   UNL     1      29.637 -11.657 -21.907  0.00  0.00    +0.296 HD
ENDBRANCH  21  22
ENDBRANCH  18  21
ENDBRANCH   3  17
BRANCH   7  25
ATOM     24  N   UNL     1      33.205 -14.937 -27.319  0.00  0.00    -0.191 NA
ATOM     25  C   UNL     1      33.331 -14.960 -26.164  0.00  0.00    +0.100 C 
ENDBRANCH   7  25
TORSDOF 7
ENDMDL
