MODEL 1
REMARK VINA RESULT:     -10.3      0.000      0.000
REMARK  Name = 8395
REMARK  6 active torsions:
REMARK  status: ('A' for Active; 'I' for Inactive)
REMARK    1  A    between atoms: C_5  and  C_12
REMARK    2  A    between atoms: C_9  and  O_18
REMARK    3  A    between atoms: O_18  and  C_19
REMARK    4  A    between atoms: C_19  and  C_21
REMARK    5  A    between atoms: C_21  and  O_22
REMARK    6  A    between atoms: O_22  and  C_23
REMARK                            x       y       z     vdW  Elec       q    Type
REMARK                         _______ _______ _______ _____ _____    ______ ____
ROOT
ATOM      1  O   UNL     1      33.929 -14.379 -22.458  0.00  0.00    -0.453 OA
ATOM      2  O   UNL     1      33.776 -16.107 -26.146  0.00  0.00    -0.286 OA
ATOM      3  C   UNL     1      34.364 -16.310 -23.866  0.00  0.00    +0.074 C 
ATOM      4  C   UNL     1      34.388 -15.661 -22.634  0.00  0.00    +0.151 C 
ATOM      5  C   UNL     1      33.411 -13.708 -23.556  0.00  0.00    +0.148 C 
ATOM      6  C   UNL     1      33.824 -15.599 -25.034  0.00  0.00    +0.202 C 
ATOM      7  C   UNL     1      34.897 -16.314 -21.511  0.00  0.00    +0.074 C 
ATOM      8  C   UNL     1      34.846 -17.617 -23.985  0.00  0.00    +0.009 C 
ATOM      9  C   UNL     1      35.380 -17.617 -21.626  0.00  0.00    +0.142 C 
ATOM     10  C   UNL     1      33.339 -14.225 -24.793  0.00  0.00    +0.080 C 
ATOM     11  C   UNL     1      35.353 -18.268 -22.860  0.00  0.00    +0.037 C 
ENDROOT
BRANCH   5  12
ATOM     12  C   UNL     1      32.951 -12.337 -23.258  0.00  0.00    +0.035 C 
ATOM     13  C   UNL     1      31.958 -12.122 -22.298  0.00  0.00    +0.003 C 
ATOM     14  C   UNL     1      33.506 -11.248 -23.934  0.00  0.00    +0.003 C 
ATOM     15  C   UNL     1      31.524 -10.828 -22.017  0.00  0.00    +0.000 C 
ATOM     16  C   UNL     1      33.072  -9.953 -23.654  0.00  0.00    +0.000 C 
ATOM     17  C   UNL     1      32.081  -9.742 -22.694  0.00  0.00    +0.000 C 
ENDBRANCH   5  12
BRANCH   9  18
ATOM     18  O   UNL     1      35.876 -18.257 -20.531  0.00  0.00    -0.464 OA
BRANCH  18  19
ATOM     19  C   UNL     1      36.637 -19.442 -20.762  0.00  0.00    +0.314 C 
BRANCH  19  21
ATOM     20  O   UNL     1      36.533 -20.916 -18.840  0.00  0.00    -0.246 OA
ATOM     21  C   UNL     1      36.075 -20.554 -19.916  0.00  0.00    +0.362 C 
BRANCH  21  22
ATOM     22  O   UNL     1      34.983 -21.081 -20.543  0.00  0.00    -0.446 OA
BRANCH  22  23
ATOM     23  C   UNL     1      33.750 -20.980 -19.824  0.00  0.00    +0.209 C 
ATOM     24  C   UNL     1      32.808 -20.072 -20.586  0.00  0.00    +0.051 C 
ENDBRANCH  22  23
ENDBRANCH  21  22
ENDBRANCH  19  21
ENDBRANCH  18  19
ENDBRANCH   9  18
TORSDOF 6
ENDMDL
MODEL 2
REMARK VINA RESULT:     -10.1      2.261      8.301
REMARK  Name = 8395
REMARK  6 active torsions:
REMARK  status: ('A' for Active; 'I' for Inactive)
REMARK    1  A    between atoms: C_5  and  C_12
REMARK    2  A    between atoms: C_9  and  O_18
REMARK    3  A    between atoms: O_18  and  C_19
REMARK    4  A    between atoms: C_19  and  C_21
REMARK    5  A    between atoms: C_21  and  O_22
REMARK    6  A    between atoms: O_22  and  C_23
REMARK                            x       y       z     vdW  Elec       q    Type
REMARK                         _______ _______ _______ _____ _____    ______ ____
ROOT
ATOM      1  O   UNL     1      33.762 -17.117 -21.120  0.00  0.00    -0.453 OA
ATOM      2  O   UNL     1      35.047 -16.659 -24.960  0.00  0.00    -0.286 OA
ATOM      3  C   UNL     1      33.953 -15.712 -23.092  0.00  0.00    +0.074 C 
ATOM      4  C   UNL     1      33.539 -15.934 -21.781  0.00  0.00    +0.151 C 
ATOM      5  C   UNL     1      34.437 -18.128 -21.788  0.00  0.00    +0.148 C 
ATOM      6  C   UNL     1      34.660 -16.785 -23.807  0.00  0.00    +0.202 C 
ATOM      7  C   UNL     1      32.865 -14.932 -21.082  0.00  0.00    +0.074 C 
ATOM      8  C   UNL     1      33.697 -14.486 -23.715  0.00  0.00    +0.009 C 
ATOM      9  C   UNL     1      32.608 -13.709 -21.700  0.00  0.00    +0.142 C 
ATOM     10  C   UNL     1      34.879 -18.035 -23.052  0.00  0.00    +0.080 C 
ATOM     11  C   UNL     1      33.024 -13.486 -23.013  0.00  0.00    +0.037 C 
ENDROOT
BRANCH   5  12
ATOM     12  C   UNL     1      34.618 -19.357 -20.988  0.00  0.00    +0.035 C 
ATOM     13  C   UNL     1      33.506 -20.055 -20.512  0.00  0.00    +0.003 C 
ATOM     14  C   UNL     1      35.903 -19.826 -20.705  0.00  0.00    +0.003 C 
ATOM     15  C   UNL     1      33.677 -21.215 -19.758  0.00  0.00    +0.000 C 
ATOM     16  C   UNL     1      36.075 -20.986 -19.950  0.00  0.00    +0.000 C 
ATOM     17  C   UNL     1      34.962 -21.681 -19.477  0.00  0.00    +0.000 C 
ENDBRANCH   5  12
BRANCH   9  18
ATOM     18  O   UNL     1      31.950 -12.729 -21.020  0.00  0.00    -0.464 OA
BRANCH  18  19
ATOM     19  C   UNL     1      31.636 -11.539 -21.740  0.00  0.00    +0.314 C 
BRANCH  19  21
ATOM     20  O   UNL     1      30.879 -10.435 -19.719  0.00  0.00    -0.246 OA
ATOM     21  C   UNL     1      31.514 -10.398 -20.765  0.00  0.00    +0.362 C 
BRANCH  21  22
ATOM     22  O   UNL     1      32.221  -9.331 -21.239  0.00  0.00    -0.446 OA
BRANCH  22  23
ATOM     23  C   UNL     1      32.467  -8.285 -20.293  0.00  0.00    +0.209 C 
ATOM     24  C   UNL     1      32.121  -6.955 -20.928  0.00  0.00    +0.051 C 
ENDBRANCH  22  23
ENDBRANCH  21  22
ENDBRANCH  19  21
ENDBRANCH  18  19
ENDBRANCH   9  18
TORSDOF 6
ENDMDL
MODEL 3
REMARK VINA RESULT:     -10.1      2.074      7.935
REMARK  Name = 8395
REMARK  6 active torsions:
REMARK  status: ('A' for Active; 'I' for Inactive)
REMARK    1  A    between atoms: C_5  and  C_12
REMARK    2  A    between atoms: C_9  and  O_18
REMARK    3  A    between atoms: O_18  and  C_19
REMARK    4  A    between atoms: C_19  and  C_21
REMARK    5  A    between atoms: C_21  and  O_22
REMARK    6  A    between atoms: O_22  and  C_23
REMARK                            x       y       z     vdW  Elec       q    Type
REMARK                         _______ _______ _______ _____ _____    ______ ____
ROOT
ATOM      1  O   UNL     1      34.026 -16.877 -21.838  0.00  0.00    -0.453 OA
ATOM      2  O   UNL     1      34.790 -17.146 -25.832  0.00  0.00    -0.286 OA
ATOM      3  C   UNL     1      33.969 -15.846 -24.037  0.00  0.00    +0.074 C 
ATOM      4  C   UNL     1      33.732 -15.821 -22.664  0.00  0.00    +0.151 C 
ATOM      5  C   UNL     1      34.592 -18.013 -22.397  0.00  0.00    +0.148 C 
ATOM      6  C   UNL     1      34.560 -17.053 -24.634  0.00  0.00    +0.202 C 
ATOM      7  C   UNL     1      33.171 -14.689 -22.074  0.00  0.00    +0.074 C 
ATOM      8  C   UNL     1      33.648 -14.741 -24.830  0.00  0.00    +0.009 C 
ATOM      9  C   UNL     1      32.849 -13.584 -22.861  0.00  0.00    +0.142 C 
ATOM     10  C   UNL     1      34.861 -18.160 -23.704  0.00  0.00    +0.080 C 
ATOM     11  C   UNL     1      33.087 -13.609 -24.236  0.00  0.00    +0.037 C 
ENDROOT
BRANCH   5  12
ATOM     12  C   UNL     1      34.863 -19.089 -21.422  0.00  0.00    +0.035 C 
ATOM     13  C   UNL     1      33.812 -19.855 -20.910  0.00  0.00    +0.003 C 
ATOM     14  C   UNL     1      36.172 -19.346 -21.006  0.00  0.00    +0.003 C 
ATOM     15  C   UNL     1      34.068 -20.870 -19.990  0.00  0.00    +0.000 C 
ATOM     16  C   UNL     1      36.428 -20.361 -20.085  0.00  0.00    +0.000 C 
ATOM     17  C   UNL     1      35.377 -21.124 -19.578  0.00  0.00    +0.000 C 
ENDBRANCH   5  12
BRANCH   9  18
ATOM     18  O   UNL     1      32.301 -12.477 -22.287  0.00  0.00    -0.464 OA
BRANCH  18  19
ATOM     19  C   UNL     1      32.545 -11.226 -22.928  0.00  0.00    +0.314 C 
BRANCH  19  21
ATOM     20  O   UNL     1      31.322  -9.133 -22.893  0.00  0.00    -0.246 OA
ATOM     21  C   UNL     1      31.610 -10.194 -22.354  0.00  0.00    +0.362 C 
BRANCH  21  22
ATOM     22  O   UNL     1      31.144 -10.637 -21.150  0.00  0.00    -0.446 OA
BRANCH  22  23
ATOM     23  C   UNL     1      31.642  -9.941 -20.003  0.00  0.00    +0.209 C 
ATOM     24  C   UNL     1      31.363 -10.768 -18.766  0.00  0.00    +0.051 C 
ENDBRANCH  22  23
ENDBRANCH  21  22
ENDBRANCH  19  21
ENDBRANCH  18  19
ENDBRANCH   9  18
TORSDOF 6
ENDMDL
MODEL 4
REMARK VINA RESULT:     -10.0      3.041      5.622
REMARK  Name = 8395
REMARK  6 active torsions:
REMARK  status: ('A' for Active; 'I' for Inactive)
REMARK    1  A    between atoms: C_5  and  C_12
REMARK    2  A    between atoms: C_9  and  O_18
REMARK    3  A    between atoms: O_18  and  C_19
REMARK    4  A    between atoms: C_19  and  C_21
REMARK    5  A    between atoms: C_21  and  O_22
REMARK    6  A    between atoms: O_22  and  C_23
REMARK                            x       y       z     vdW  Elec       q    Type
REMARK                         _______ _______ _______ _____ _____    ______ ____
ROOT
ATOM      1  O   UNL     1      33.949 -18.713 -21.762  0.00  0.00    -0.453 OA
ATOM      2  O   UNL     1      37.901 -19.317 -20.978  0.00  0.00    -0.286 OA
ATOM      3  C   UNL     1      35.665 -19.982 -20.604  0.00  0.00    +0.074 C 
ATOM      4  C   UNL     1      34.332 -19.721 -20.914  0.00  0.00    +0.151 C 
ATOM      5  C   UNL     1      34.934 -17.928 -22.342  0.00  0.00    +0.148 C 
ATOM      6  C   UNL     1      36.712 -19.147 -21.209  0.00  0.00    +0.202 C 
ATOM      7  C   UNL     1      33.319 -20.499 -20.352  0.00  0.00    +0.074 C 
ATOM      8  C   UNL     1      35.996 -21.023 -19.732  0.00  0.00    +0.009 C 
ATOM      9  C   UNL     1      33.646 -21.537 -19.480  0.00  0.00    +0.142 C 
ATOM     10  C   UNL     1      36.250 -18.078 -22.117  0.00  0.00    +0.080 C 
ATOM     11  C   UNL     1      34.981 -21.800 -19.171  0.00  0.00    +0.037 C 
ENDROOT
BRANCH   5  12
ATOM     12  C   UNL     1      34.413 -16.871 -23.233  0.00  0.00    +0.035 C 
ATOM     13  C   UNL     1      33.920 -15.679 -22.695  0.00  0.00    +0.003 C 
ATOM     14  C   UNL     1      34.410 -17.058 -24.617  0.00  0.00    +0.003 C 
ATOM     15  C   UNL     1      33.428 -14.682 -23.535  0.00  0.00    +0.000 C 
ATOM     16  C   UNL     1      33.918 -16.061 -25.458  0.00  0.00    +0.000 C 
ATOM     17  C   UNL     1      33.427 -14.872 -24.917  0.00  0.00    +0.000 C 
ENDBRANCH   5  12
BRANCH   9  18
ATOM     18  O   UNL     1      32.659 -22.298 -18.930  0.00  0.00    -0.464 OA
BRANCH  18  19
ATOM     19  C   UNL     1      32.926 -22.885 -17.657  0.00  0.00    +0.314 C 
BRANCH  19  21
ATOM     20  O   UNL     1      30.622 -22.318 -17.162  0.00  0.00    -0.246 OA
ATOM     21  C   UNL     1      31.654 -22.896 -16.851  0.00  0.00    +0.362 C 
BRANCH  21  22
ATOM     22  O   UNL     1      31.846 -23.651 -15.729  0.00  0.00    -0.446 OA
BRANCH  22  23
ATOM     23  C   UNL     1      31.760 -22.943 -14.488  0.00  0.00    +0.209 C 
ATOM     24  C   UNL     1      30.852 -23.707 -13.547  0.00  0.00    +0.051 C 
ENDBRANCH  22  23
ENDBRANCH  21  22
ENDBRANCH  19  21
ENDBRANCH  18  19
ENDBRANCH   9  18
TORSDOF 6
ENDMDL
MODEL 5
REMARK VINA RESULT:      -9.9      0.958      1.176
REMARK  Name = 8395
REMARK  6 active torsions:
REMARK  status: ('A' for Active; 'I' for Inactive)
REMARK    1  A    between atoms: C_5  and  C_12
REMARK    2  A    between atoms: C_9  and  O_18
REMARK    3  A    between atoms: O_18  and  C_19
REMARK    4  A    between atoms: C_19  and  C_21
REMARK    5  A    between atoms: C_21  and  O_22
REMARK    6  A    between atoms: O_22  and  C_23
REMARK                            x       y       z     vdW  Elec       q    Type
REMARK                         _______ _______ _______ _____ _____    ______ ____
ROOT
ATOM      1  O   UNL     1      33.796 -14.930 -22.268  0.00  0.00    -0.453 OA
ATOM      2  O   UNL     1      34.026 -16.213 -26.129  0.00  0.00    -0.286 OA
ATOM      3  C   UNL     1      34.390 -16.682 -23.842  0.00  0.00    +0.074 C 
ATOM      4  C   UNL     1      34.286 -16.182 -22.546  0.00  0.00    +0.151 C 
ATOM      5  C   UNL     1      33.379 -14.136 -23.325  0.00  0.00    +0.148 C 
ATOM      6  C   UNL     1      33.958 -15.839 -24.967  0.00  0.00    +0.202 C 
ATOM      7  C   UNL     1      34.691 -16.962 -21.462  0.00  0.00    +0.074 C 
ATOM      8  C   UNL     1      34.898 -17.965 -24.065  0.00  0.00    +0.009 C 
ATOM      9  C   UNL     1      35.199 -18.242 -21.681  0.00  0.00    +0.142 C 
ATOM     10  C   UNL     1      33.435 -14.504 -24.616  0.00  0.00    +0.080 C 
ATOM     11  C   UNL     1      35.302 -18.743 -22.979  0.00  0.00    +0.037 C 
ENDROOT
BRANCH   5  12
ATOM     12  C   UNL     1      32.874 -12.809 -22.916  0.00  0.00    +0.035 C 
ATOM     13  C   UNL     1      31.959 -12.699 -21.866  0.00  0.00    +0.003 C 
ATOM     14  C   UNL     1      33.308 -11.658 -23.578  0.00  0.00    +0.003 C 
ATOM     15  C   UNL     1      31.483 -11.447 -21.479  0.00  0.00    +0.000 C 
ATOM     16  C   UNL     1      32.832 -10.406 -23.192  0.00  0.00    +0.000 C 
ATOM     17  C   UNL     1      31.920 -10.300 -22.142  0.00  0.00    +0.000 C 
ENDBRANCH   5  12
BRANCH   9  18
ATOM     18  O   UNL     1      35.595 -19.005 -20.624  0.00  0.00    -0.464 OA
BRANCH  18  19
ATOM     19  C   UNL     1      34.925 -20.251 -20.437  0.00  0.00    +0.314 C 
BRANCH  19  21
ATOM     20  O   UNL     1      36.669 -20.700 -18.815  0.00  0.00    -0.246 OA
ATOM     21  C   UNL     1      35.735 -21.102 -19.496  0.00  0.00    +0.362 C 
BRANCH  21  22
ATOM     22  O   UNL     1      35.257 -22.380 -19.530  0.00  0.00    -0.446 OA
BRANCH  22  23
ATOM     23  C   UNL     1      33.867 -22.528 -19.221  0.00  0.00    +0.209 C 
ATOM     24  C   UNL     1      33.726 -22.956 -17.776  0.00  0.00    +0.051 C 
ENDBRANCH  22  23
ENDBRANCH  21  22
ENDBRANCH  19  21
ENDBRANCH  18  19
ENDBRANCH   9  18
TORSDOF 6
ENDMDL
MODEL 6
REMARK VINA RESULT:      -9.9      5.273      8.750
REMARK  Name = 8395
REMARK  6 active torsions:
REMARK  status: ('A' for Active; 'I' for Inactive)
REMARK    1  A    between atoms: C_5  and  C_12
REMARK    2  A    between atoms: C_9  and  O_18
REMARK    3  A    between atoms: O_18  and  C_19
REMARK    4  A    between atoms: C_19  and  C_21
REMARK    5  A    between atoms: C_21  and  O_22
REMARK    6  A    between atoms: O_22  and  C_23
REMARK                            x       y       z     vdW  Elec       q    Type
REMARK                         _______ _______ _______ _____ _____    ______ ____
ROOT
ATOM      1  O   UNL     1      36.114 -21.138 -18.774  0.00  0.00    -0.453 OA
ATOM      2  O   UNL     1      32.525 -22.964 -18.148  0.00  0.00    -0.286 OA
ATOM      3  C   UNL     1      34.748 -22.622 -17.421  0.00  0.00    +0.074 C 
ATOM      4  C   UNL     1      35.947 -21.968 -17.693  0.00  0.00    +0.151 C 
ATOM      5  C   UNL     1      35.036 -20.937 -19.623  0.00  0.00    +0.148 C 
ATOM      6  C   UNL     1      33.606 -22.419 -18.324  0.00  0.00    +0.202 C 
ATOM      7  C   UNL     1      37.046 -22.146 -16.852  0.00  0.00    +0.074 C 
ATOM      8  C   UNL     1      34.636 -23.457 -16.305  0.00  0.00    +0.009 C 
ATOM      9  C   UNL     1      36.938 -22.978 -15.739  0.00  0.00    +0.142 C 
ATOM     10  C   UNL     1      33.834 -21.514 -19.469  0.00  0.00    +0.080 C 
ATOM     11  C   UNL     1      35.736 -23.632 -15.465  0.00  0.00    +0.037 C 
ENDROOT
BRANCH   5  12
ATOM     12  C   UNL     1      35.325 -20.032 -20.754  0.00  0.00    +0.035 C 
ATOM     13  C   UNL     1      36.577 -19.419 -20.862  0.00  0.00    +0.003 C 
ATOM     14  C   UNL     1      34.348 -19.783 -21.721  0.00  0.00    +0.003 C 
ATOM     15  C   UNL     1      36.849 -18.565 -21.929  0.00  0.00    +0.000 C 
ATOM     16  C   UNL     1      34.621 -18.928 -22.789  0.00  0.00    +0.000 C 
ATOM     17  C   UNL     1      35.871 -18.319 -22.893  0.00  0.00    +0.000 C 
ENDBRANCH   5  12
BRANCH   9  18
ATOM     18  O   UNL     1      38.009 -23.153 -14.915  0.00  0.00    -0.464 OA
BRANCH  18  19
ATOM     19  C   UNL     1      38.035 -24.343 -14.129  0.00  0.00    +0.314 C 
BRANCH  19  21
ATOM     20  O   UNL     1      40.328 -24.774 -14.789  0.00  0.00    -0.246 OA
ATOM     21  C   UNL     1      39.199 -25.192 -14.568  0.00  0.00    +0.362 C 
BRANCH  21  22
ATOM     22  O   UNL     1      38.787 -26.489 -14.677  0.00  0.00    -0.446 OA
BRANCH  22  23
ATOM     23  C   UNL     1      37.430 -26.739 -14.297  0.00  0.00    +0.209 C 
ATOM     24  C   UNL     1      36.628 -27.087 -15.534  0.00  0.00    +0.051 C 
ENDBRANCH  22  23
ENDBRANCH  21  22
ENDBRANCH  19  21
ENDBRANCH  18  19
ENDBRANCH   9  18
TORSDOF 6
ENDMDL
MODEL 7
REMARK VINA RESULT:      -9.8      1.003      1.585
REMARK  Name = 8395
REMARK  6 active torsions:
REMARK  status: ('A' for Active; 'I' for Inactive)
REMARK    1  A    between atoms: C_5  and  C_12
REMARK    2  A    between atoms: C_9  and  O_18
REMARK    3  A    between atoms: O_18  and  C_19
REMARK    4  A    between atoms: C_19  and  C_21
REMARK    5  A    between atoms: C_21  and  O_22
REMARK    6  A    between atoms: O_22  and  C_23
REMARK                            x       y       z     vdW  Elec       q    Type
REMARK                         _______ _______ _______ _____ _____    ______ ____
ROOT
ATOM      1  O   UNL     1      33.813 -14.797 -22.239  0.00  0.00    -0.453 OA
ATOM      2  O   UNL     1      34.028 -16.186 -26.064  0.00  0.00    -0.286 OA
ATOM      3  C   UNL     1      34.440 -16.576 -23.769  0.00  0.00    +0.074 C 
ATOM      4  C   UNL     1      34.339 -16.040 -22.487  0.00  0.00    +0.151 C 
ATOM      5  C   UNL     1      33.356 -14.048 -23.312  0.00  0.00    +0.148 C 
ATOM      6  C   UNL     1      33.965 -15.781 -24.912  0.00  0.00    +0.202 C 
ATOM      7  C   UNL     1      34.784 -16.775 -21.388  0.00  0.00    +0.074 C 
ATOM      8  C   UNL     1      34.985 -17.848 -23.963  0.00  0.00    +0.009 C 
ATOM      9  C   UNL     1      35.329 -18.044 -21.576  0.00  0.00    +0.142 C 
ATOM     10  C   UNL     1      33.405 -14.452 -24.592  0.00  0.00    +0.080 C 
ATOM     11  C   UNL     1      35.429 -18.580 -22.861  0.00  0.00    +0.037 C 
ENDROOT
BRANCH   5  12
ATOM     12  C   UNL     1      32.816 -12.726 -22.935  0.00  0.00    +0.035 C 
ATOM     13  C   UNL     1      31.894 -12.617 -21.890  0.00  0.00    +0.003 C 
ATOM     14  C   UNL     1      33.223 -11.580 -23.620  0.00  0.00    +0.003 C 
ATOM     15  C   UNL     1      31.384 -11.370 -21.533  0.00  0.00    +0.000 C 
ATOM     16  C   UNL     1      32.712 -10.331 -23.264  0.00  0.00    +0.000 C 
ATOM     17  C   UNL     1      31.793 -10.226 -22.220  0.00  0.00    +0.000 C 
ENDBRANCH   5  12
BRANCH   9  18
ATOM     18  O   UNL     1      35.764 -18.763 -20.504  0.00  0.00    -0.464 OA
BRANCH  18  19
ATOM     19  C   UNL     1      35.878 -20.175 -20.673  0.00  0.00    +0.314 C 
BRANCH  19  21
ATOM     20  O   UNL     1      33.583 -20.551 -19.987  0.00  0.00    -0.246 OA
ATOM     21  C   UNL     1      34.768 -20.848 -19.909  0.00  0.00    +0.362 C 
BRANCH  21  22
ATOM     22  O   UNL     1      35.300 -21.830 -19.125  0.00  0.00    -0.446 OA
BRANCH  22  23
ATOM     23  C   UNL     1      36.601 -21.558 -18.593  0.00  0.00    +0.209 C 
ATOM     24  C   UNL     1      36.646 -22.007 -17.148  0.00  0.00    +0.051 C 
ENDBRANCH  22  23
ENDBRANCH  21  22
ENDBRANCH  19  21
ENDBRANCH  18  19
ENDBRANCH   9  18
TORSDOF 6
ENDMDL
MODEL 8
REMARK VINA RESULT:      -9.8      2.914      5.292
REMARK  Name = 8395
REMARK  6 active torsions:
REMARK  status: ('A' for Active; 'I' for Inactive)
REMARK    1  A    between atoms: C_5  and  C_12
REMARK    2  A    between atoms: C_9  and  O_18
REMARK    3  A    between atoms: O_18  and  C_19
REMARK    4  A    between atoms: C_19  and  C_21
REMARK    5  A    between atoms: C_21  and  O_22
REMARK    6  A    between atoms: O_22  and  C_23
REMARK                            x       y       z     vdW  Elec       q    Type
REMARK                         _______ _______ _______ _____ _____    ______ ____
ROOT
ATOM      1  O   UNL     1      33.748 -18.351 -21.094  0.00  0.00    -0.453 OA
ATOM      2  O   UNL     1      37.741 -19.130 -21.325  0.00  0.00    -0.286 OA
ATOM      3  C   UNL     1      35.596 -19.865 -20.658  0.00  0.00    +0.074 C 
ATOM      4  C   UNL     1      34.243 -19.536 -20.609  0.00  0.00    +0.151 C 
ATOM      5  C   UNL     1      34.633 -17.449 -21.664  0.00  0.00    +0.148 C 
ATOM      6  C   UNL     1      36.540 -18.908 -21.253  0.00  0.00    +0.202 C 
ATOM      7  C   UNL     1      33.328 -20.427 -20.048  0.00  0.00    +0.074 C 
ATOM      8  C   UNL     1      36.044 -21.087 -20.148  0.00  0.00    +0.009 C 
ATOM      9  C   UNL     1      33.771 -21.646 -19.538  0.00  0.00    +0.142 C 
ATOM     10  C   UNL     1      35.957 -17.650 -21.763  0.00  0.00    +0.080 C 
ATOM     11  C   UNL     1      35.126 -21.976 -19.588  0.00  0.00    +0.037 C 
ENDROOT
BRANCH   5  12
ATOM     12  C   UNL     1      33.997 -16.207 -22.147  0.00  0.00    +0.035 C 
ATOM     13  C   UNL     1      34.334 -15.687 -23.400  0.00  0.00    +0.003 C 
ATOM     14  C   UNL     1      33.056 -15.546 -21.355  0.00  0.00    +0.003 C 
ATOM     15  C   UNL     1      33.733 -14.515 -23.856  0.00  0.00    +0.000 C 
ATOM     16  C   UNL     1      32.455 -14.373 -21.811  0.00  0.00    +0.000 C 
ATOM     17  C   UNL     1      32.793 -13.858 -23.062  0.00  0.00    +0.000 C 
ENDBRANCH   5  12
BRANCH   9  18
ATOM     18  O   UNL     1      32.879 -22.518 -18.990  0.00  0.00    -0.464 OA
BRANCH  18  19
ATOM     19  C   UNL     1      33.237 -23.115 -17.745  0.00  0.00    +0.314 C 
BRANCH  19  21
ATOM     20  O   UNL     1      30.983 -22.524 -17.078  0.00  0.00    -0.246 OA
ATOM     21  C   UNL     1      32.044 -23.079 -16.827  0.00  0.00    +0.362 C 
BRANCH  21  22
ATOM     22  O   UNL     1      32.343 -23.762 -15.683  0.00  0.00    -0.446 OA
BRANCH  22  23
ATOM     23  C   UNL     1      33.699 -23.654 -15.236  0.00  0.00    +0.209 C 
ATOM     24  C   UNL     1      33.758 -23.982 -13.759  0.00  0.00    +0.051 C 
ENDBRANCH  22  23
ENDBRANCH  21  22
ENDBRANCH  19  21
ENDBRANCH  18  19
ENDBRANCH   9  18
TORSDOF 6
ENDMDL
MODEL 9
REMARK VINA RESULT:      -9.8      3.831      9.949
REMARK  Name = 8395
REMARK  6 active torsions:
REMARK  status: ('A' for Active; 'I' for Inactive)
REMARK    1  A    between atoms: C_5  and  C_12
REMARK    2  A    between atoms: C_9  and  O_18
REMARK    3  A    between atoms: O_18  and  C_19
REMARK    4  A    between atoms: C_19  and  C_21
REMARK    5  A    between atoms: C_21  and  O_22
REMARK    6  A    between atoms: O_22  and  C_23
REMARK                            x       y       z     vdW  Elec       q    Type
REMARK                         _______ _______ _______ _____ _____    ______ ____
ROOT
ATOM      1  O   UNL     1      32.378 -22.353 -17.995  0.00  0.00    -0.453 OA
ATOM      2  O   UNL     1      35.994 -23.344 -16.399  0.00  0.00    -0.286 OA
ATOM      3  C   UNL     1      34.800 -22.216 -18.099  0.00  0.00    +0.074 C 
ATOM      4  C   UNL     1      33.533 -21.915 -18.592  0.00  0.00    +0.151 C 
ATOM      5  C   UNL     1      32.480 -23.120 -16.844  0.00  0.00    +0.148 C 
ATOM      6  C   UNL     1      34.914 -23.038 -16.885  0.00  0.00    +0.202 C 
ATOM      7  C   UNL     1      33.399 -21.139 -19.744  0.00  0.00    +0.074 C 
ATOM      8  C   UNL     1      35.943 -21.744 -18.751  0.00  0.00    +0.009 C 
ATOM      9  C   UNL     1      34.536 -20.666 -20.398  0.00  0.00    +0.142 C 
ATOM     10  C   UNL     1      33.643 -23.480 -16.277  0.00  0.00    +0.080 C 
ATOM     11  C   UNL     1      35.806 -20.967 -19.902  0.00  0.00    +0.037 C 
ENDROOT
BRANCH   5  12
ATOM     12  C   UNL     1      31.179 -23.541 -16.286  0.00  0.00    +0.035 C 
ATOM     13  C   UNL     1      31.105 -24.645 -15.432  0.00  0.00    +0.003 C 
ATOM     14  C   UNL     1      30.016 -22.839 -16.609  0.00  0.00    +0.003 C 
ATOM     15  C   UNL     1      29.878 -25.043 -14.906  0.00  0.00    +0.000 C 
ATOM     16  C   UNL     1      28.787 -23.236 -16.083  0.00  0.00    +0.000 C 
ATOM     17  C   UNL     1      28.718 -24.338 -15.230  0.00  0.00    +0.000 C 
ENDBRANCH   5  12
BRANCH   9  18
ATOM     18  O   UNL     1      34.408 -19.908 -21.522  0.00  0.00    -0.464 OA
BRANCH  18  19
ATOM     19  C   UNL     1      33.875 -18.595 -21.361  0.00  0.00    +0.314 C 
BRANCH  19  21
ATOM     20  O   UNL     1      35.324 -16.897 -20.417  0.00  0.00    -0.246 OA
ATOM     21  C   UNL     1      35.010 -17.605 -21.364  0.00  0.00    +0.362 C 
BRANCH  21  22
ATOM     22  O   UNL     1      35.620 -17.631 -22.585  0.00  0.00    -0.446 OA
BRANCH  22  23
ATOM     23  C   UNL     1      35.094 -16.721 -23.557  0.00  0.00    +0.209 C 
ATOM     24  C   UNL     1      34.748 -17.490 -24.815  0.00  0.00    +0.051 C 
ENDBRANCH  22  23
ENDBRANCH  21  22
ENDBRANCH  19  21
ENDBRANCH  18  19
ENDBRANCH   9  18
TORSDOF 6
ENDMDL
