MODEL 1
REMARK VINA RESULT:      -6.0      0.000      0.000
REMARK  Name = 446994
REMARK  12 active torsions:
REMARK  status: ('A' for Active; 'I' for Inactive)
REMARK    1  A    between atoms: C_1  and  C_2
REMARK    2  A    between atoms: C_1  and  C_12
REMARK    3  A    between atoms: C_2  and  S_3
REMARK    4  A    between atoms: S_3  and  C_4
REMARK    5  A    between atoms: C_4  and  C_5
REMARK    6  A    between atoms: C_5  and  C_6
REMARK    7  A    between atoms: C_6  and  C_7
REMARK    8  A    between atoms: C_7  and  C_9
REMARK    9  A    between atoms: C_9  and  O_10
REMARK   10  A    between atoms: C_12  and  N_13
REMARK   11  A    between atoms: C_12  and  C_18
REMARK   12  A    between atoms: C_18  and  O_19
REMARK                            x       y       z     vdW  Elec       q    Type
REMARK                         _______ _______ _______ _____ _____    ______ ____
ROOT
ATOM      1  C   UNK     1      37.999 -24.009 -14.538  0.00  0.00    +0.001 C 
ENDROOT
BRANCH   1   2
ATOM      2  C   UNK     1      37.718 -23.181 -15.795  0.00  0.00    +0.056 C 
BRANCH   2   3
ATOM      3  S   UNK     1      35.981 -22.713 -15.966  0.00  0.00    -0.140 S 
BRANCH   3   4
ATOM      4  C   UNK     1      35.234 -24.216 -15.270  0.00  0.00    +0.058 C 
BRANCH   4   5
ATOM      5  C   UNK     1      34.022 -23.921 -14.387  0.00  0.00    +0.012 C 
BRANCH   5   6
ATOM      6  C   UNK     1      34.224 -24.316 -12.918  0.00  0.00    +0.013 C 
BRANCH   6   7
ATOM      7  C   UNK     1      35.428 -23.615 -12.288  0.00  0.00    +0.109 C 
BRANCH   7   9
ATOM      8  O   UNK     1      37.358 -24.534 -11.119  0.00  0.00    -0.250 OA
ATOM      9  C   UNK     1      36.146 -24.467 -11.264  0.00  0.00    +0.314 C 
BRANCH   9  10
ATOM     10  O   UNK     1      35.269 -25.186 -10.516  0.00  0.00    -0.480 OA
ATOM     11  H   UNK     1      35.149 -24.982  -9.609  0.00  0.00    +0.295 HD
ENDBRANCH   9  10
ENDBRANCH   7   9
ENDBRANCH   6   7
ENDBRANCH   5   6
ENDBRANCH   4   5
ENDBRANCH   3   4
ENDBRANCH   2   3
ENDBRANCH   1   2
BRANCH   1  12
ATOM     12  C   UNK     1      38.595 -25.403 -14.784  0.00  0.00    +0.037 C 
BRANCH  12  13
ATOM     13  N   UNK     1      38.370 -26.239 -13.601  0.00  0.00    +0.389 N 
ATOM     14  H   UNK     1      38.827 -27.142 -13.731  0.00  0.00    -0.088 HD
ATOM     15  H   UNK     1      37.369 -26.381 -13.470  0.00  0.00    -0.088 HD
ATOM     16  H   UNK     1      38.758 -25.778 -12.779  0.00  0.00    -0.088 HD
ENDBRANCH  12  13
BRANCH  12  18
ATOM     17  O   UNK     1      40.881 -24.773 -14.217  0.00  0.00    -0.253 OA
ATOM     18  C   UNK     1      40.099 -25.329 -14.979  0.00  0.00    +0.293 C 
BRANCH  18  19
ATOM     19  O   UNK     1      40.507 -25.979 -16.099  0.00  0.00    -0.482 OA
ATOM     20  H   UNK     1      40.089 -25.807 -16.920  0.00  0.00    +0.295 HD
ENDBRANCH  18  19
ENDBRANCH  12  18
ENDBRANCH   1  12
TORSDOF 12
ENDMDL
MODEL 2
REMARK VINA RESULT:      -5.9      5.141      6.115
REMARK  Name = 446994
REMARK  12 active torsions:
REMARK  status: ('A' for Active; 'I' for Inactive)
REMARK    1  A    between atoms: C_1  and  C_2
REMARK    2  A    between atoms: C_1  and  C_12
REMARK    3  A    between atoms: C_2  and  S_3
REMARK    4  A    between atoms: S_3  and  C_4
REMARK    5  A    between atoms: C_4  and  C_5
REMARK    6  A    between atoms: C_5  and  C_6
REMARK    7  A    between atoms: C_6  and  C_7
REMARK    8  A    between atoms: C_7  and  C_9
REMARK    9  A    between atoms: C_9  and  O_10
REMARK   10  A    between atoms: C_12  and  N_13
REMARK   11  A    between atoms: C_12  and  C_18
REMARK   12  A    between atoms: C_18  and  O_19
REMARK                            x       y       z     vdW  Elec       q    Type
REMARK                         _______ _______ _______ _____ _____    ______ ____
ROOT
ATOM      1  C   UNK     1      35.219 -24.982 -15.071  0.00  0.00    +0.001 C 
ENDROOT
BRANCH   1   2
ATOM      2  C   UNK     1      34.408 -24.232 -14.010  0.00  0.00    +0.056 C 
BRANCH   2   3
ATOM      3  S   UNK     1      32.633 -24.555 -14.110  0.00  0.00    -0.140 S 
BRANCH   3   4
ATOM      4  C   UNK     1      32.106 -22.939 -14.750  0.00  0.00    +0.058 C 
BRANCH   4   5
ATOM      5  C   UNK     1      31.202 -23.055 -15.977  0.00  0.00    +0.012 C 
BRANCH   5   6
ATOM      6  C   UNK     1      29.891 -23.805 -15.702  0.00  0.00    +0.013 C 
BRANCH   6   7
ATOM      7  C   UNK     1      28.698 -22.858 -15.566  0.00  0.00    +0.109 C 
BRANCH   7   9
ATOM      8  O   UNK     1      27.461 -21.624 -17.265  0.00  0.00    -0.250 OA
ATOM      9  C   UNK     1      27.929 -22.678 -16.857  0.00  0.00    +0.314 C 
BRANCH   9  10
ATOM     10  O   UNK     1      27.793 -23.855 -17.521  0.00  0.00    -0.480 OA
ATOM     11  H   UNK     1      27.569 -24.635 -17.053  0.00  0.00    +0.295 HD
ENDBRANCH   9  10
ENDBRANCH   7   9
ENDBRANCH   6   7
ENDBRANCH   5   6
ENDBRANCH   4   5
ENDBRANCH   3   4
ENDBRANCH   2   3
ENDBRANCH   1   2
BRANCH   1  12
ATOM     12  C   UNK     1      36.674 -25.294 -14.692  0.00  0.00    +0.037 C 
BRANCH  12  13
ATOM     13  N   UNK     1      37.558 -24.301 -15.312  0.00  0.00    +0.389 N 
ATOM     14  H   UNK     1      37.632 -24.491 -16.312  0.00  0.00    -0.088 HD
ATOM     15  H   UNK     1      38.482 -24.356 -14.886  0.00  0.00    -0.088 HD
ATOM     16  H   UNK     1      37.173 -23.368 -15.171  0.00  0.00    -0.088 HD
ENDBRANCH  12  13
BRANCH  12  18
ATOM     17  O   UNK     1      36.571 -27.231 -16.167  0.00  0.00    -0.253 OA
ATOM     18  C   UNK     1      37.102 -26.648 -15.230  0.00  0.00    +0.293 C 
BRANCH  18  19
ATOM     19  O   UNK     1      38.176 -27.151 -14.569  0.00  0.00    -0.482 OA
ATOM     20  H   UNK     1      38.888 -26.588 -14.335  0.00  0.00    +0.295 HD
ENDBRANCH  18  19
ENDBRANCH  12  18
ENDBRANCH   1  12
TORSDOF 12
ENDMDL
MODEL 3
REMARK VINA RESULT:      -5.8      3.011      4.435
REMARK  Name = 446994
REMARK  12 active torsions:
REMARK  status: ('A' for Active; 'I' for Inactive)
REMARK    1  A    between atoms: C_1  and  C_2
REMARK    2  A    between atoms: C_1  and  C_12
REMARK    3  A    between atoms: C_2  and  S_3
REMARK    4  A    between atoms: S_3  and  C_4
REMARK    5  A    between atoms: C_4  and  C_5
REMARK    6  A    between atoms: C_5  and  C_6
REMARK    7  A    between atoms: C_6  and  C_7
REMARK    8  A    between atoms: C_7  and  C_9
REMARK    9  A    between atoms: C_9  and  O_10
REMARK   10  A    between atoms: C_12  and  N_13
REMARK   11  A    between atoms: C_12  and  C_18
REMARK   12  A    between atoms: C_18  and  O_19
REMARK                            x       y       z     vdW  Elec       q    Type
REMARK                         _______ _______ _______ _____ _____    ______ ____
ROOT
ATOM      1  C   UNK     1      36.980 -23.478 -13.331  0.00  0.00    +0.001 C 
ENDROOT
BRANCH   1   2
ATOM      2  C   UNK     1      37.217 -23.737 -14.822  0.00  0.00    +0.056 C 
BRANCH   2   3
ATOM      3  S   UNK     1      36.173 -22.723 -15.894  0.00  0.00    -0.140 S 
BRANCH   3   4
ATOM      4  C   UNK     1      34.586 -23.546 -15.570  0.00  0.00    +0.058 C 
BRANCH   4   5
ATOM      5  C   UNK     1      33.539 -23.254 -16.644  0.00  0.00    +0.012 C 
BRANCH   5   6
ATOM      6  C   UNK     1      32.095 -23.427 -16.153  0.00  0.00    +0.013 C 
BRANCH   6   7
ATOM      7  C   UNK     1      31.980 -23.307 -14.633  0.00  0.00    +0.109 C 
BRANCH   7   9
ATOM      8  O   UNK     1      30.316 -24.984 -14.034  0.00  0.00    -0.250 OA
ATOM      9  C   UNK     1      31.465 -24.567 -13.973  0.00  0.00    +0.314 C 
BRANCH   9  10
ATOM     10  O   UNK     1      32.442 -25.191 -13.265  0.00  0.00    -0.480 OA
ATOM     11  H   UNK     1      32.568 -26.115 -13.355  0.00  0.00    +0.295 HD
ENDBRANCH   9  10
ENDBRANCH   7   9
ENDBRANCH   6   7
ENDBRANCH   5   6
ENDBRANCH   4   5
ENDBRANCH   3   4
ENDBRANCH   2   3
ENDBRANCH   1   2
BRANCH   1  12
ATOM     12  C   UNK     1      36.717 -24.728 -12.477  0.00  0.00    +0.037 C 
BRANCH  12  13
ATOM     13  N   UNK     1      36.412 -25.859 -13.359  0.00  0.00    +0.389 N 
ATOM     14  H   UNK     1      35.920 -25.522 -14.187  0.00  0.00    -0.088 HD
ATOM     15  H   UNK     1      35.824 -26.528 -12.863  0.00  0.00    -0.088 HD
ATOM     16  H   UNK     1      37.280 -26.313 -13.642  0.00  0.00    -0.088 HD
ENDBRANCH  12  13
BRANCH  12  18
ATOM     17  O   UNK     1      35.298 -25.137 -10.539  0.00  0.00    -0.253 OA
ATOM     18  C   UNK     1      35.502 -24.536 -11.587  0.00  0.00    +0.293 C 
BRANCH  18  19
ATOM     19  O   UNK     1      34.655 -23.590 -12.065  0.00  0.00    -0.482 OA
ATOM     20  H   UNK     1      34.373 -23.621 -12.959  0.00  0.00    +0.295 HD
ENDBRANCH  18  19
ENDBRANCH  12  18
ENDBRANCH   1  12
TORSDOF 12
ENDMDL
MODEL 4
REMARK VINA RESULT:      -5.7      3.607      4.662
REMARK  Name = 446994
REMARK  12 active torsions:
REMARK  status: ('A' for Active; 'I' for Inactive)
REMARK    1  A    between atoms: C_1  and  C_2
REMARK    2  A    between atoms: C_1  and  C_12
REMARK    3  A    between atoms: C_2  and  S_3
REMARK    4  A    between atoms: S_3  and  C_4
REMARK    5  A    between atoms: C_4  and  C_5
REMARK    6  A    between atoms: C_5  and  C_6
REMARK    7  A    between atoms: C_6  and  C_7
REMARK    8  A    between atoms: C_7  and  C_9
REMARK    9  A    between atoms: C_9  and  O_10
REMARK   10  A    between atoms: C_12  and  N_13
REMARK   11  A    between atoms: C_12  and  C_18
REMARK   12  A    between atoms: C_18  and  O_19
REMARK                            x       y       z     vdW  Elec       q    Type
REMARK                         _______ _______ _______ _____ _____    ______ ____
ROOT
ATOM      1  C   UNK     1      37.651 -24.761 -14.839  0.00  0.00    +0.001 C 
ENDROOT
BRANCH   1   2
ATOM      2  C   UNK     1      37.091 -24.000 -13.635  0.00  0.00    +0.056 C 
BRANCH   2   3
ATOM      3  S   UNK     1      35.310 -23.709 -13.743  0.00  0.00    -0.140 S 
BRANCH   3   4
ATOM      4  C   UNK     1      35.060 -24.241 -15.462  0.00  0.00    +0.058 C 
BRANCH   4   5
ATOM      5  C   UNK     1      34.562 -23.111 -16.364  0.00  0.00    +0.012 C 
BRANCH   5   6
ATOM      6  C   UNK     1      35.663 -22.494 -17.236  0.00  0.00    +0.013 C 
BRANCH   6   7
ATOM      7  C   UNK     1      35.117 -21.933 -18.550  0.00  0.00    +0.109 C 
BRANCH   7   9
ATOM      8  O   UNK     1      34.074 -23.874 -19.590  0.00  0.00    -0.250 OA
ATOM      9  C   UNK     1      33.977 -22.749 -19.119  0.00  0.00    +0.314 C 
BRANCH   9  10
ATOM     10  O   UNK     1      32.804 -22.066 -19.067  0.00  0.00    -0.480 OA
ATOM     11  H   UNK     1      32.750 -21.200 -19.420  0.00  0.00    +0.295 HD
ENDBRANCH   9  10
ENDBRANCH   7   9
ENDBRANCH   6   7
ENDBRANCH   5   6
ENDBRANCH   4   5
ENDBRANCH   3   4
ENDBRANCH   2   3
ENDBRANCH   1   2
BRANCH   1  12
ATOM     12  C   UNK     1      38.688 -25.846 -14.511  0.00  0.00    +0.037 C 
BRANCH  12  13
ATOM     13  N   UNK     1      38.728 -26.052 -13.060  0.00  0.00    +0.389 N 
ATOM     14  H   UNK     1      37.776 -26.113 -12.699  0.00  0.00    -0.088 HD
ATOM     15  H   UNK     1      39.209 -25.268 -12.619  0.00  0.00    -0.088 HD
ATOM     16  H   UNK     1      39.227 -26.917 -12.853  0.00  0.00    -0.088 HD
ENDBRANCH  12  13
BRANCH  12  18
ATOM     17  O   UNK     1      40.815 -24.682 -14.270  0.00  0.00    -0.253 OA
ATOM     18  C   UNK     1      40.083 -25.413 -14.925  0.00  0.00    +0.293 C 
BRANCH  18  19
ATOM     19  O   UNK     1      40.460 -25.952 -16.113  0.00  0.00    -0.482 OA
ATOM     20  H   UNK     1      40.123 -26.785 -16.378  0.00  0.00    +0.295 HD
ENDBRANCH  18  19
ENDBRANCH  12  18
ENDBRANCH   1  12
TORSDOF 12
ENDMDL
MODEL 5
REMARK VINA RESULT:      -5.7      4.557      5.699
REMARK  Name = 446994
REMARK  12 active torsions:
REMARK  status: ('A' for Active; 'I' for Inactive)
REMARK    1  A    between atoms: C_1  and  C_2
REMARK    2  A    between atoms: C_1  and  C_12
REMARK    3  A    between atoms: C_2  and  S_3
REMARK    4  A    between atoms: S_3  and  C_4
REMARK    5  A    between atoms: C_4  and  C_5
REMARK    6  A    between atoms: C_5  and  C_6
REMARK    7  A    between atoms: C_6  and  C_7
REMARK    8  A    between atoms: C_7  and  C_9
REMARK    9  A    between atoms: C_9  and  O_10
REMARK   10  A    between atoms: C_12  and  N_13
REMARK   11  A    between atoms: C_12  and  C_18
REMARK   12  A    between atoms: C_18  and  O_19
REMARK                            x       y       z     vdW  Elec       q    Type
REMARK                         _______ _______ _______ _____ _____    ______ ____
ROOT
ATOM      1  C   UNK     1      36.430 -25.687 -14.615  0.00  0.00    +0.001 C 
ENDROOT
BRANCH   1   2
ATOM      2  C   UNK     1      35.597 -24.481 -15.057  0.00  0.00    +0.056 C 
BRANCH   2   3
ATOM      3  S   UNK     1      34.265 -24.075 -13.905  0.00  0.00    -0.140 S 
BRANCH   3   4
ATOM      4  C   UNK     1      32.983 -23.656 -15.122  0.00  0.00    +0.058 C 
BRANCH   4   5
ATOM      5  C   UNK     1      31.587 -23.574 -14.506  0.00  0.00    +0.012 C 
BRANCH   5   6
ATOM      6  C   UNK     1      30.546 -22.930 -15.433  0.00  0.00    +0.013 C 
BRANCH   6   7
ATOM      7  C   UNK     1      29.393 -23.881 -15.761  0.00  0.00    +0.109 C 
BRANCH   7   9
ATOM      8  O   UNK     1      27.719 -24.035 -17.524  0.00  0.00    -0.250 OA
ATOM      9  C   UNK     1      28.479 -23.358 -16.847  0.00  0.00    +0.314 C 
BRANCH   9  10
ATOM     10  O   UNK     1      28.616 -22.015 -17.006  0.00  0.00    -0.480 OA
ATOM     11  H   UNK     1      27.860 -21.482 -17.154  0.00  0.00    +0.295 HD
ENDBRANCH   9  10
ENDBRANCH   7   9
ENDBRANCH   6   7
ENDBRANCH   5   6
ENDBRANCH   4   5
ENDBRANCH   3   4
ENDBRANCH   2   3
ENDBRANCH   1   2
BRANCH   1  12
ATOM     12  C   UNK     1      37.721 -25.356 -13.852  0.00  0.00    +0.037 C 
BRANCH  12  13
ATOM     13  N   UNK     1      38.755 -26.335 -14.205  0.00  0.00    +0.389 N 
ATOM     14  H   UNK     1      39.627 -25.848 -14.412  0.00  0.00    -0.088 HD
ATOM     15  H   UNK     1      38.457 -26.863 -15.025  0.00  0.00    -0.088 HD
ATOM     16  H   UNK     1      38.899 -26.974 -13.423  0.00  0.00    -0.088 HD
ENDBRANCH  12  13
BRANCH  12  18
ATOM     17  O   UNK     1      37.916 -24.657 -11.526  0.00  0.00    -0.253 OA
ATOM     18  C   UNK     1      37.516 -25.468 -12.352  0.00  0.00    +0.293 C 
BRANCH  18  19
ATOM     19  O   UNK     1      36.803 -26.571 -12.010  0.00  0.00    -0.482 OA
ATOM     20  H   UNK     1      36.549 -27.188 -12.667  0.00  0.00    +0.295 HD
ENDBRANCH  18  19
ENDBRANCH  12  18
ENDBRANCH   1  12
TORSDOF 12
ENDMDL
MODEL 6
REMARK VINA RESULT:      -5.6      2.308      3.147
REMARK  Name = 446994
REMARK  12 active torsions:
REMARK  status: ('A' for Active; 'I' for Inactive)
REMARK    1  A    between atoms: C_1  and  C_2
REMARK    2  A    between atoms: C_1  and  C_12
REMARK    3  A    between atoms: C_2  and  S_3
REMARK    4  A    between atoms: S_3  and  C_4
REMARK    5  A    between atoms: C_4  and  C_5
REMARK    6  A    between atoms: C_5  and  C_6
REMARK    7  A    between atoms: C_6  and  C_7
REMARK    8  A    between atoms: C_7  and  C_9
REMARK    9  A    between atoms: C_9  and  O_10
REMARK   10  A    between atoms: C_12  and  N_13
REMARK   11  A    between atoms: C_12  and  C_18
REMARK   12  A    between atoms: C_18  and  O_19
REMARK                            x       y       z     vdW  Elec       q    Type
REMARK                         _______ _______ _______ _____ _____    ______ ____
ROOT
ATOM      1  C   UNK     1      37.975 -24.681 -13.417  0.00  0.00    +0.001 C 
ENDROOT
BRANCH   1   2
ATOM      2  C   UNK     1      37.132 -23.443 -13.733  0.00  0.00    +0.056 C 
BRANCH   2   3
ATOM      3  S   UNK     1      36.697 -23.306 -15.482  0.00  0.00    -0.140 S 
BRANCH   3   4
ATOM      4  C   UNK     1      35.083 -24.136 -15.418  0.00  0.00    +0.058 C 
BRANCH   4   5
ATOM      5  C   UNK     1      33.938 -23.180 -15.084  0.00  0.00    +0.012 C 
BRANCH   5   6
ATOM      6  C   UNK     1      32.699 -23.377 -15.967  0.00  0.00    +0.013 C 
BRANCH   6   7
ATOM      7  C   UNK     1      31.397 -23.276 -15.171  0.00  0.00    +0.109 C 
BRANCH   7   9
ATOM      8  O   UNK     1      31.348 -25.480 -14.133  0.00  0.00    -0.250 OA
ATOM      9  C   UNK     1      31.320 -24.262 -14.025  0.00  0.00    +0.314 C 
BRANCH   9  10
ATOM     10  O   UNK     1      31.192 -23.626 -12.832  0.00  0.00    -0.480 OA
ATOM     11  H   UNK     1      30.655 -23.996 -12.159  0.00  0.00    +0.295 HD
ENDBRANCH   9  10
ENDBRANCH   7   9
ENDBRANCH   6   7
ENDBRANCH   5   6
ENDBRANCH   4   5
ENDBRANCH   3   4
ENDBRANCH   2   3
ENDBRANCH   1   2
BRANCH   1  12
ATOM     12  C   UNK     1      38.444 -25.491 -14.634  0.00  0.00    +0.037 C 
BRANCH  12  13
ATOM     13  N   UNK     1      38.175 -26.913 -14.400  0.00  0.00    +0.389 N 
ATOM     14  H   UNK     1      38.851 -27.281 -13.730  0.00  0.00    -0.088 HD
ATOM     15  H   UNK     1      38.256 -27.424 -15.279  0.00  0.00    -0.088 HD
ATOM     16  H   UNK     1      37.233 -27.025 -14.028  0.00  0.00    -0.088 HD
ENDBRANCH  12  13
BRANCH  12  18
ATOM     17  O   UNK     1      40.718 -24.860 -14.029  0.00  0.00    -0.253 OA
ATOM     18  C   UNK     1      39.943 -25.362 -14.833  0.00  0.00    +0.293 C 
BRANCH  18  19
ATOM     19  O   UNK     1      40.356 -25.896 -16.012  0.00  0.00    -0.482 OA
ATOM     20  H   UNK     1      41.271 -25.977 -16.195  0.00  0.00    +0.295 HD
ENDBRANCH  18  19
ENDBRANCH  12  18
ENDBRANCH   1  12
TORSDOF 12
ENDMDL
MODEL 7
REMARK VINA RESULT:      -5.6      5.398      7.643
REMARK  Name = 446994
REMARK  12 active torsions:
REMARK  status: ('A' for Active; 'I' for Inactive)
REMARK    1  A    between atoms: C_1  and  C_2
REMARK    2  A    between atoms: C_1  and  C_12
REMARK    3  A    between atoms: C_2  and  S_3
REMARK    4  A    between atoms: S_3  and  C_4
REMARK    5  A    between atoms: C_4  and  C_5
REMARK    6  A    between atoms: C_5  and  C_6
REMARK    7  A    between atoms: C_6  and  C_7
REMARK    8  A    between atoms: C_7  and  C_9
REMARK    9  A    between atoms: C_9  and  O_10
REMARK   10  A    between atoms: C_12  and  N_13
REMARK   11  A    between atoms: C_12  and  C_18
REMARK   12  A    between atoms: C_18  and  O_19
REMARK                            x       y       z     vdW  Elec       q    Type
REMARK                         _______ _______ _______ _____ _____    ______ ____
ROOT
ATOM      1  C   UNK     1      29.938 -23.404 -14.849  0.00  0.00    +0.001 C 
ENDROOT
BRANCH   1   2
ATOM      2  C   UNK     1      31.309 -22.982 -14.316  0.00  0.00    +0.056 C 
BRANCH   2   3
ATOM      3  S   UNK     1      32.443 -24.371 -14.089  0.00  0.00    -0.140 S 
BRANCH   3   4
ATOM      4  C   UNK     1      33.757 -23.826 -15.220  0.00  0.00    +0.058 C 
BRANCH   4   5
ATOM      5  C   UNK     1      35.011 -23.353 -14.486  0.00  0.00    +0.012 C 
BRANCH   5   6
ATOM      6  C   UNK     1      35.892 -24.501 -13.976  0.00  0.00    +0.013 C 
BRANCH   6   7
ATOM      7  C   UNK     1      36.773 -25.091 -15.079  0.00  0.00    +0.109 C 
BRANCH   7   9
ATOM      8  O   UNK     1      36.711 -27.300 -16.104  0.00  0.00    -0.250 OA
ATOM      9  C   UNK     1      36.770 -26.604 -15.101  0.00  0.00    +0.314 C 
BRANCH   9  10
ATOM     10  O   UNK     1      36.819 -27.118 -13.844  0.00  0.00    -0.480 OA
ATOM     11  H   UNK     1      37.092 -26.579 -13.128  0.00  0.00    +0.295 HD
ENDBRANCH   9  10
ENDBRANCH   7   9
ENDBRANCH   6   7
ENDBRANCH   5   6
ENDBRANCH   4   5
ENDBRANCH   3   4
ENDBRANCH   2   3
ENDBRANCH   1   2
BRANCH   1  12
ATOM     12  C   UNK     1      29.810 -23.457 -16.378  0.00  0.00    +0.037 C 
BRANCH  12  13
ATOM     13  N   UNK     1      30.809 -22.566 -16.977  0.00  0.00    +0.389 N 
ATOM     14  H   UNK     1      31.711 -23.043 -17.012  0.00  0.00    -0.088 HD
ATOM     15  H   UNK     1      30.893 -21.721 -16.413  0.00  0.00    -0.088 HD
ATOM     16  H   UNK     1      30.520 -22.317 -17.923  0.00  0.00    -0.088 HD
ENDBRANCH  12  13
BRANCH  12  18
ATOM     17  O   UNK     1      28.051 -21.800 -16.696  0.00  0.00    -0.253 OA
ATOM     18  C   UNK     1      28.453 -22.949 -16.832  0.00  0.00    +0.293 C 
BRANCH  18  19
ATOM     19  O   UNK     1      27.719 -23.913 -17.444  0.00  0.00    -0.482 OA
ATOM     20  H   UNK     1      26.951 -23.681 -17.929  0.00  0.00    +0.295 HD
ENDBRANCH  18  19
ENDBRANCH  12  18
ENDBRANCH   1  12
TORSDOF 12
ENDMDL
MODEL 8
REMARK VINA RESULT:      -5.6      7.039      8.099
REMARK  Name = 446994
REMARK  12 active torsions:
REMARK  status: ('A' for Active; 'I' for Inactive)
REMARK    1  A    between atoms: C_1  and  C_2
REMARK    2  A    between atoms: C_1  and  C_12
REMARK    3  A    between atoms: C_2  and  S_3
REMARK    4  A    between atoms: S_3  and  C_4
REMARK    5  A    between atoms: C_4  and  C_5
REMARK    6  A    between atoms: C_5  and  C_6
REMARK    7  A    between atoms: C_6  and  C_7
REMARK    8  A    between atoms: C_7  and  C_9
REMARK    9  A    between atoms: C_9  and  O_10
REMARK   10  A    between atoms: C_12  and  N_13
REMARK   11  A    between atoms: C_12  and  C_18
REMARK   12  A    between atoms: C_18  and  O_19
REMARK                            x       y       z     vdW  Elec       q    Type
REMARK                         _______ _______ _______ _____ _____    ______ ____
ROOT
ATOM      1  C   UNK     1      34.255 -22.126 -19.221  0.00  0.00    +0.001 C 
ENDROOT
BRANCH   1   2
ATOM      2  C   UNK     1      33.283 -22.788 -18.240  0.00  0.00    +0.056 C 
BRANCH   2   3
ATOM      3  S   UNK     1      34.050 -23.220 -16.661  0.00  0.00    -0.140 S 
BRANCH   3   4
ATOM      4  C   UNK     1      32.534 -23.453 -15.688  0.00  0.00    +0.058 C 
BRANCH   4   5
ATOM      5  C   UNK     1      31.280 -22.983 -16.424  0.00  0.00    +0.012 C 
BRANCH   5   6
ATOM      6  C   UNK     1      30.000 -23.699 -15.971  0.00  0.00    +0.013 C 
BRANCH   6   7
ATOM      7  C   UNK     1      28.852 -22.723 -15.705  0.00  0.00    +0.109 C 
BRANCH   7   9
ATOM      8  O   UNK     1      27.328 -21.559 -17.208  0.00  0.00    -0.250 OA
ATOM      9  C   UNK     1      27.903 -22.586 -16.875  0.00  0.00    +0.314 C 
BRANCH   9  10
ATOM     10  O   UNK     1      27.738 -23.770 -17.521  0.00  0.00    -0.480 OA
ATOM     11  H   UNK     1      27.662 -23.787 -18.455  0.00  0.00    +0.295 HD
ENDBRANCH   9  10
ENDBRANCH   7   9
ENDBRANCH   6   7
ENDBRANCH   5   6
ENDBRANCH   4   5
ENDBRANCH   3   4
ENDBRANCH   2   3
ENDBRANCH   1   2
BRANCH   1  12
ATOM     12  C   UNK     1      33.855 -20.724 -19.702  0.00  0.00    +0.037 C 
BRANCH  12  13
ATOM     13  N   UNK     1      32.666 -20.826 -20.555  0.00  0.00    +0.389 N 
ATOM     14  H   UNK     1      31.834 -20.905 -19.970  0.00  0.00    -0.088 HD
ATOM     15  H   UNK     1      32.744 -21.651 -21.149  0.00  0.00    -0.088 HD
ATOM     16  H   UNK     1      32.594 -19.993 -21.139  0.00  0.00    -0.088 HD
ENDBRANCH  12  13
BRANCH  12  18
ATOM     17  O   UNK     1      36.116 -19.974 -20.217  0.00  0.00    -0.253 OA
ATOM     18  C   UNK     1      34.947 -20.106 -20.557  0.00  0.00    +0.293 C 
BRANCH  18  19
ATOM     19  O   UNK     1      34.493 -19.726 -21.779  0.00  0.00    -0.482 OA
ATOM     20  H   UNK     1      35.039 -19.829 -22.534  0.00  0.00    +0.295 HD
ENDBRANCH  18  19
ENDBRANCH  12  18
ENDBRANCH   1  12
TORSDOF 12
ENDMDL
MODEL 9
REMARK VINA RESULT:      -5.6      7.301      9.452
REMARK  Name = 446994
REMARK  12 active torsions:
REMARK  status: ('A' for Active; 'I' for Inactive)
REMARK    1  A    between atoms: C_1  and  C_2
REMARK    2  A    between atoms: C_1  and  C_12
REMARK    3  A    between atoms: C_2  and  S_3
REMARK    4  A    between atoms: S_3  and  C_4
REMARK    5  A    between atoms: C_4  and  C_5
REMARK    6  A    between atoms: C_5  and  C_6
REMARK    7  A    between atoms: C_6  and  C_7
REMARK    8  A    between atoms: C_7  and  C_9
REMARK    9  A    between atoms: C_9  and  O_10
REMARK   10  A    between atoms: C_12  and  N_13
REMARK   11  A    between atoms: C_12  and  C_18
REMARK   12  A    between atoms: C_18  and  O_19
REMARK                            x       y       z     vdW  Elec       q    Type
REMARK                         _______ _______ _______ _____ _____    ______ ____
ROOT
ATOM      1  C   UNK     1      30.364 -22.852 -15.873  0.00  0.00    +0.001 C 
ENDROOT
BRANCH   1   2
ATOM      2  C   UNK     1      31.353 -23.869 -15.297  0.00  0.00    +0.056 C 
BRANCH   2   3
ATOM      3  S   UNK     1      33.081 -23.401 -15.547  0.00  0.00    -0.140 S 
BRANCH   3   4
ATOM      4  C   UNK     1      33.046 -23.218 -17.354  0.00  0.00    +0.058 C 
BRANCH   4   5
ATOM      5  C   UNK     1      34.367 -22.701 -17.922  0.00  0.00    +0.012 C 
BRANCH   5   6
ATOM      6  C   UNK     1      34.312 -22.404 -19.427  0.00  0.00    +0.013 C 
BRANCH   6   7
ATOM      7  C   UNK     1      34.776 -20.984 -19.756  0.00  0.00    +0.109 C 
BRANCH   7   9
ATOM      8  O   UNK     1      33.994 -19.178 -21.193  0.00  0.00    -0.250 OA
ATOM      9  C   UNK     1      33.762 -20.197 -20.557  0.00  0.00    +0.314 C 
BRANCH   9  10
ATOM     10  O   UNK     1      32.524 -20.750 -20.472  0.00  0.00    -0.480 OA
ATOM     11  H   UNK     1      32.239 -21.364 -21.119  0.00  0.00    +0.295 HD
ENDBRANCH   9  10
ENDBRANCH   7   9
ENDBRANCH   6   7
ENDBRANCH   5   6
ENDBRANCH   4   5
ENDBRANCH   3   4
ENDBRANCH   2   3
ENDBRANCH   1   2
BRANCH   1  12
ATOM     12  C   UNK     1      28.881 -23.144 -15.599  0.00  0.00    +0.037 C 
BRANCH  12  13
ATOM     13  N   UNK     1      28.712 -24.578 -15.340  0.00  0.00    +0.389 N 
ATOM     14  H   UNK     1      28.031 -24.710 -14.592  0.00  0.00    -0.088 HD
ATOM     15  H   UNK     1      29.606 -24.981 -15.061  0.00  0.00    -0.088 HD
ATOM     16  H   UNK     1      28.380 -25.040 -16.187  0.00  0.00    -0.088 HD
ENDBRANCH  12  13
BRANCH  12  18
ATOM     17  O   UNK     1      27.634 -21.702 -17.117  0.00  0.00    -0.253 OA
ATOM     18  C   UNK     1      28.026 -22.822 -16.812  0.00  0.00    +0.293 C 
BRANCH  18  19
ATOM     19  O   UNK     1      27.754 -23.922 -17.559  0.00  0.00    -0.482 OA
ATOM     20  H   UNK     1      27.463 -24.710 -17.144  0.00  0.00    +0.295 HD
ENDBRANCH  18  19
ENDBRANCH  12  18
ENDBRANCH   1  12
TORSDOF 12
ENDMDL
