MODEL 1
REMARK VINA RESULT:     -11.9      0.000      0.000
REMARK  Name = 24776445
REMARK  4 active torsions:
REMARK  status: ('A' for Active; 'I' for Inactive)
REMARK    1  A    between atoms: N_2  and  C_17
REMARK    2  A    between atoms: C_3  and  C_7
REMARK    3  A    between atoms: C_6  and  S_12
REMARK    4  A    between atoms: C_18  and  C_24
REMARK                            x       y       z     vdW  Elec       q    Type
REMARK                         _______ _______ _______ _____ _____    ______ ____
ROOT
ATOM      1  O   UNL     1      34.699 -18.761 -22.963  0.00  0.00    -0.270 OA
ATOM      2  N   UNL     1      33.916 -17.302 -21.295  0.00  0.00    -0.280 N 
ATOM      3  C   UNL     1      34.317 -18.537 -21.819  0.00  0.00    +0.250 C 
ATOM      4  H   UNL     1      33.636 -17.304 -20.351  0.00  0.00    +0.155 HD
ENDROOT
BRANCH   3   7
ATOM      5 CL   UNL     1      36.955 -19.640 -20.650  0.00  0.00    -0.082 Cl
ATOM      6  C   UNL     1      33.994 -21.842 -19.125  0.00  0.00    +0.107 C 
ATOM      7  C   UNL     1      34.237 -19.685 -20.879  0.00  0.00    +0.064 C 
ATOM      8  C   UNL     1      35.254 -21.325 -19.426  0.00  0.00    +0.030 C 
ATOM      9  C   UNL     1      32.854 -21.279 -19.702  0.00  0.00    +0.019 C 
ATOM     10  C   UNL     1      35.375 -20.248 -20.302  0.00  0.00    +0.063 C 
ATOM     11  C   UNL     1      32.976 -20.202 -20.578  0.00  0.00    +0.007 C 
BRANCH   6  12
ATOM     12  S   UNL     1      33.839 -23.190 -18.026  0.00  0.00    +0.010 S 
ATOM     13  O   UNL     1      33.656 -24.396 -18.820  0.00  0.00    -0.169 OA
ATOM     14  O   UNL     1      34.916 -23.125 -17.047  0.00  0.00    -0.169 OA
ATOM     15  C   UNL     1      32.323 -22.874 -17.151  0.00  0.00    +0.182 C 
ENDBRANCH   6  12
ENDBRANCH   3   7
BRANCH   2  17
ATOM     16 CL   UNL     1      33.729 -12.096 -24.096  0.00  0.00    -0.082 Cl
ATOM     17  C   UNL     1      33.862 -16.068 -21.946  0.00  0.00    +0.051 C 
ATOM     18  C   UNL     1      33.063 -13.791 -22.052  0.00  0.00    +0.029 C 
ATOM     19  C   UNL     1      33.115 -15.024 -21.401  0.00  0.00    +0.017 C 
ATOM     20  C   UNL     1      34.557 -15.881 -23.140  0.00  0.00    +0.016 C 
ATOM     21  C   UNL     1      33.758 -13.603 -23.247  0.00  0.00    +0.059 C 
ATOM     22  C   UNL     1      34.504 -14.648 -23.791  0.00  0.00    +0.013 C 
BRANCH  18  24
ATOM     23  N   UNL     1      31.580 -11.970 -22.326  0.00  0.00    -0.244 NA
ATOM     24  C   UNL     1      32.275 -12.731 -21.451  0.00  0.00    +0.082 C 
ATOM     25  C   UNL     1      32.263 -12.543 -20.078  0.00  0.00    +0.019 C 
ATOM     26  C   UNL     1      31.485 -11.508 -19.571  0.00  0.00    +0.003 C 
ATOM     27  C   UNL     1      30.836 -10.973 -21.795  0.00  0.00    +0.099 C 
ATOM     28  C   UNL     1      30.757 -10.703 -20.439  0.00  0.00    +0.021 C 
ENDBRANCH  18  24
ENDBRANCH   2  17
TORSDOF 4
ENDMDL
MODEL 2
REMARK VINA RESULT:     -11.8      5.095      9.681
REMARK  Name = 24776445
REMARK  4 active torsions:
REMARK  status: ('A' for Active; 'I' for Inactive)
REMARK    1  A    between atoms: N_2  and  C_17
REMARK    2  A    between atoms: C_3  and  C_7
REMARK    3  A    between atoms: C_6  and  S_12
REMARK    4  A    between atoms: C_18  and  C_24
REMARK                            x       y       z     vdW  Elec       q    Type
REMARK                         _______ _______ _______ _____ _____    ______ ____
ROOT
ATOM      1  O   UNL     1      32.473 -13.901 -25.265  0.00  0.00    -0.270 OA
ATOM      2  N   UNL     1      33.875 -14.518 -23.482  0.00  0.00    -0.280 N 
ATOM      3  C   UNL     1      33.066 -13.647 -24.222  0.00  0.00    +0.250 C 
ATOM      4  H   UNL     1      34.276 -14.145 -22.664  0.00  0.00    +0.155 HD
ENDROOT
BRANCH   3   7
ATOM      5 CL   UNL     1      34.628 -11.390 -25.640  0.00  0.00    -0.082 Cl
ATOM      6  C   UNL     1      32.673  -9.715 -22.588  0.00  0.00    +0.107 C 
ATOM      7  C   UNL     1      32.949 -12.269 -23.678  0.00  0.00    +0.064 C 
ATOM      8  C   UNL     1      33.479  -9.912 -23.709  0.00  0.00    +0.030 C 
ATOM      9  C   UNL     1      32.003 -10.796 -22.012  0.00  0.00    +0.019 C 
ATOM     10  C   UNL     1      33.617 -11.188 -24.253  0.00  0.00    +0.063 C 
ATOM     11  C   UNL     1      32.141 -12.072 -22.557  0.00  0.00    +0.007 C 
BRANCH   6  12
ATOM     12  S   UNL     1      32.497  -8.117 -21.906  0.00  0.00    +0.010 S 
ATOM     13  O   UNL     1      33.757  -7.412 -22.088  0.00  0.00    -0.169 OA
ATOM     14  O   UNL     1      31.261  -7.527 -22.401  0.00  0.00    -0.169 OA
ATOM     15  C   UNL     1      32.276  -8.402 -20.165  0.00  0.00    +0.182 C 
ENDBRANCH   6  12
ENDBRANCH   3   7
BRANCH   2  17
ATOM     16 CL   UNL     1      35.178 -20.150 -24.730  0.00  0.00    -0.082 Cl
ATOM     17  C   UNL     1      34.185 -15.850 -23.762  0.00  0.00    +0.051 C 
ATOM     18  C   UNL     1      34.777 -18.065 -23.003  0.00  0.00    +0.029 C 
ATOM     19  C   UNL     1      34.469 -16.734 -22.721  0.00  0.00    +0.017 C 
ATOM     20  C   UNL     1      34.210 -16.295 -25.083  0.00  0.00    +0.016 C 
ATOM     21  C   UNL     1      34.802 -18.511 -24.324  0.00  0.00    +0.059 C 
ATOM     22  C   UNL     1      34.520 -17.627 -25.364  0.00  0.00    +0.013 C 
BRANCH  18  24
ATOM     23  N   UNL     1      36.352 -18.954 -21.479  0.00  0.00    -0.244 NA
ATOM     24  C   UNL     1      35.064 -18.953 -21.891  0.00  0.00    +0.082 C 
ATOM     25  C   UNL     1      34.066 -19.726 -21.320  0.00  0.00    +0.019 C 
ATOM     26  C   UNL     1      34.412 -20.553 -20.257  0.00  0.00    +0.003 C 
ATOM     27  C   UNL     1      36.651 -19.772 -20.445  0.00  0.00    +0.099 C 
ATOM     28  C   UNL     1      35.726 -20.583 -19.806  0.00  0.00    +0.021 C 
ENDBRANCH  18  24
ENDBRANCH   2  17
TORSDOF 4
ENDMDL
MODEL 3
REMARK VINA RESULT:     -11.7      1.783      3.100
REMARK  Name = 24776445
REMARK  4 active torsions:
REMARK  status: ('A' for Active; 'I' for Inactive)
REMARK    1  A    between atoms: N_2  and  C_17
REMARK    2  A    between atoms: C_3  and  C_7
REMARK    3  A    between atoms: C_6  and  S_12
REMARK    4  A    between atoms: C_18  and  C_24
REMARK                            x       y       z     vdW  Elec       q    Type
REMARK                         _______ _______ _______ _____ _____    ______ ____
ROOT
ATOM      1  O   UNL     1      34.476 -17.572 -22.807  0.00  0.00    -0.270 OA
ATOM      2  N   UNL     1      33.290 -16.618 -21.016  0.00  0.00    -0.280 N 
ATOM      3  C   UNL     1      33.975 -17.637 -21.689  0.00  0.00    +0.250 C 
ATOM      4  H   UNL     1      32.952 -16.845 -20.119  0.00  0.00    +0.155 HD
ENDROOT
BRANCH   3   7
ATOM      5 CL   UNL     1      36.783 -18.843 -21.237  0.00  0.00    -0.082 Cl
ATOM      6  C   UNL     1      34.156 -21.359 -19.592  0.00  0.00    +0.107 C 
ATOM      7  C   UNL     1      34.071 -18.930 -20.962  0.00  0.00    +0.064 C 
ATOM      8  C   UNL     1      35.339 -20.761 -20.027  0.00  0.00    +0.030 C 
ATOM      9  C   UNL     1      32.929 -20.741 -19.842  0.00  0.00    +0.019 C 
ATOM     10  C   UNL     1      35.296 -19.548 -20.712  0.00  0.00    +0.063 C 
ATOM     11  C   UNL     1      32.887 -19.527 -20.526  0.00  0.00    +0.007 C 
BRANCH   6  12
ATOM     12  S   UNL     1      34.208 -22.878 -18.731  0.00  0.00    +0.010 S 
ATOM     13  O   UNL     1      34.072 -23.949 -19.707  0.00  0.00    -0.169 OA
ATOM     14  O   UNL     1      35.346 -22.867 -17.823  0.00  0.00    -0.169 OA
ATOM     15  C   UNL     1      32.741 -22.864 -17.725  0.00  0.00    +0.182 C 
ENDBRANCH   6  12
ENDBRANCH   3   7
BRANCH   2  17
ATOM     16 CL   UNL     1      32.150 -11.107 -22.834  0.00  0.00    -0.082 Cl
ATOM     17  C   UNL     1      33.026 -15.321 -21.458  0.00  0.00    +0.051 C 
ATOM     18  C   UNL     1      32.969 -13.688 -23.237  0.00  0.00    +0.029 C 
ATOM     19  C   UNL     1      33.235 -14.984 -22.796  0.00  0.00    +0.017 C 
ATOM     20  C   UNL     1      32.553 -14.363 -20.563  0.00  0.00    +0.016 C 
ATOM     21  C   UNL     1      32.496 -12.729 -22.341  0.00  0.00    +0.059 C 
ATOM     22  C   UNL     1      32.289 -13.066 -21.005  0.00  0.00    +0.013 C 
BRANCH  18  24
ATOM     23  N   UNL     1      32.767 -14.321 -25.506  0.00  0.00    -0.244 NA
ATOM     24  C   UNL     1      33.198 -13.379 -24.637  0.00  0.00    +0.082 C 
ATOM     25  C   UNL     1      33.816 -12.198 -25.015  0.00  0.00    +0.019 C 
ATOM     26  C   UNL     1      34.002 -11.968 -26.373  0.00  0.00    +0.003 C 
ATOM     27  C   UNL     1      32.966 -14.062 -26.818  0.00  0.00    +0.099 C 
ATOM     28  C   UNL     1      33.573 -12.913 -27.298  0.00  0.00    +0.021 C 
ENDBRANCH  18  24
ENDBRANCH   2  17
TORSDOF 4
ENDMDL
MODEL 4
REMARK VINA RESULT:     -11.6      5.295      9.900
REMARK  Name = 24776445
REMARK  4 active torsions:
REMARK  status: ('A' for Active; 'I' for Inactive)
REMARK    1  A    between atoms: N_2  and  C_17
REMARK    2  A    between atoms: C_3  and  C_7
REMARK    3  A    between atoms: C_6  and  S_12
REMARK    4  A    between atoms: C_18  and  C_24
REMARK                            x       y       z     vdW  Elec       q    Type
REMARK                         _______ _______ _______ _____ _____    ______ ____
ROOT
ATOM      1  O   UNL     1      32.611 -13.908 -25.436  0.00  0.00    -0.270 OA
ATOM      2  N   UNL     1      34.234 -14.486 -23.836  0.00  0.00    -0.280 N 
ATOM      3  C   UNL     1      33.376 -13.617 -24.522  0.00  0.00    +0.250 C 
ATOM      4  H   UNL     1      34.782 -14.080 -23.126  0.00  0.00    +0.155 HD
ENDROOT
BRANCH   3   7
ATOM      5 CL   UNL     1      31.761 -12.784 -22.023  0.00  0.00    -0.082 Cl
ATOM      6  C   UNL     1      33.601  -9.506 -23.368  0.00  0.00    +0.107 C 
ATOM      7  C   UNL     1      33.434 -12.195 -24.095  0.00  0.00    +0.064 C 
ATOM      8  C   UNL     1      32.822 -10.385 -22.616  0.00  0.00    +0.030 C 
ATOM      9  C   UNL     1      34.297  -9.971 -24.485  0.00  0.00    +0.019 C 
ATOM     10  C   UNL     1      32.739 -11.729 -22.980  0.00  0.00    +0.063 C 
ATOM     11  C   UNL     1      34.214 -11.315 -24.848  0.00  0.00    +0.007 C 
BRANCH   6  12
ATOM     12  S   UNL     1      33.708  -7.823 -22.913  0.00  0.00    +0.010 S 
ATOM     13  O   UNL     1      33.367  -7.719 -21.502  0.00  0.00    -0.169 OA
ATOM     14  O   UNL     1      34.973  -7.285 -23.394  0.00  0.00    -0.169 OA
ATOM     15  C   UNL     1      32.419  -7.031 -23.848  0.00  0.00    +0.182 C 
ENDBRANCH   6  12
ENDBRANCH   3   7
BRANCH   2  17
ATOM     16 CL   UNL     1      34.963 -20.284 -24.746  0.00  0.00    -0.082 Cl
ATOM     17  C   UNL     1      34.409 -15.856 -24.036  0.00  0.00    +0.051 C 
ATOM     18  C   UNL     1      34.883 -18.056 -23.158  0.00  0.00    +0.029 C 
ATOM     19  C   UNL     1      34.709 -16.687 -22.957  0.00  0.00    +0.017 C 
ATOM     20  C   UNL     1      34.284 -16.394 -25.317  0.00  0.00    +0.016 C 
ATOM     21  C   UNL     1      34.758 -18.594 -24.439  0.00  0.00    +0.059 C 
ATOM     22  C   UNL     1      34.460 -17.764 -25.518  0.00  0.00    +0.013 C 
BRANCH  18  24
ATOM     23  N   UNL     1      36.482 -18.850 -21.608  0.00  0.00    -0.244 NA
ATOM     24  C   UNL     1      35.191 -18.885 -22.008  0.00  0.00    +0.082 C 
ATOM     25  C   UNL     1      34.209 -19.643 -21.391  0.00  0.00    +0.019 C 
ATOM     26  C   UNL     1      34.575 -20.413 -20.293  0.00  0.00    +0.003 C 
ATOM     27  C   UNL     1      36.801 -19.612 -20.538  0.00  0.00    +0.099 C 
ATOM     28  C   UNL     1      35.893 -20.404 -19.853  0.00  0.00    +0.021 C 
ENDBRANCH  18  24
ENDBRANCH   2  17
TORSDOF 4
ENDMDL
MODEL 5
REMARK VINA RESULT:     -11.0      2.296      3.383
REMARK  Name = 24776445
REMARK  4 active torsions:
REMARK  status: ('A' for Active; 'I' for Inactive)
REMARK    1  A    between atoms: N_2  and  C_17
REMARK    2  A    between atoms: C_3  and  C_7
REMARK    3  A    between atoms: C_6  and  S_12
REMARK    4  A    between atoms: C_18  and  C_24
REMARK                            x       y       z     vdW  Elec       q    Type
REMARK                         _______ _______ _______ _____ _____    ______ ____
ROOT
ATOM      1  O   UNL     1      32.697 -21.152 -20.538  0.00  0.00    -0.270 OA
ATOM      2  N   UNL     1      34.752 -20.032 -20.326  0.00  0.00    -0.280 N 
ATOM      3  C   UNL     1      33.771 -20.967 -19.976  0.00  0.00    +0.250 C 
ATOM      4  H   UNL     1      35.559 -20.020 -19.761  0.00  0.00    +0.155 HD
ENDROOT
BRANCH   3   7
ATOM      5 CL   UNL     1      36.708 -21.124 -19.033  0.00  0.00    -0.082 Cl
ATOM      6  C   UNL     1      34.558 -23.371 -16.528  0.00  0.00    +0.107 C 
ATOM      7  C   UNL     1      34.076 -21.794 -18.780  0.00  0.00    +0.064 C 
ATOM      8  C   UNL     1      35.614 -22.710 -17.157  0.00  0.00    +0.030 C 
ATOM      9  C   UNL     1      33.260 -23.243 -17.025  0.00  0.00    +0.019 C 
ATOM     10  C   UNL     1      35.373 -21.923 -18.282  0.00  0.00    +0.063 C 
ATOM     11  C   UNL     1      33.020 -22.455 -18.150  0.00  0.00    +0.007 C 
BRANCH   6  12
ATOM     12  S   UNL     1      34.858 -24.355 -15.117  0.00  0.00    +0.010 S 
ATOM     13  O   UNL     1      33.590 -24.546 -14.428  0.00  0.00    -0.169 OA
ATOM     14  O   UNL     1      35.648 -25.514 -15.510  0.00  0.00    -0.169 OA
ATOM     15  C   UNL     1      35.896 -23.344 -14.086  0.00  0.00    +0.182 C 
ENDBRANCH   6  12
ENDBRANCH   3   7
BRANCH   2  17
ATOM     16 CL   UNL     1      34.684 -16.179 -24.813  0.00  0.00    -0.082 Cl
ATOM     17  C   UNL     1      34.728 -19.113 -21.376  0.00  0.00    +0.051 C 
ATOM     18  C   UNL     1      34.122 -16.942 -22.245  0.00  0.00    +0.029 C 
ATOM     19  C   UNL     1      34.143 -17.859 -21.194  0.00  0.00    +0.017 C 
ATOM     20  C   UNL     1      35.291 -19.449 -22.608  0.00  0.00    +0.016 C 
ATOM     21  C   UNL     1      34.684 -17.278 -23.476  0.00  0.00    +0.059 C 
ATOM     22  C   UNL     1      35.267 -18.531 -23.658  0.00  0.00    +0.013 C 
BRANCH  18  24
ATOM     23  N   UNL     1      33.174 -14.965 -23.131  0.00  0.00    -0.244 NA
ATOM     24  C   UNL     1      33.505 -15.649 -22.013  0.00  0.00    +0.082 C 
ATOM     25  C   UNL     1      33.290 -15.183 -20.726  0.00  0.00    +0.019 C 
ATOM     26  C   UNL     1      32.694 -13.935 -20.577  0.00  0.00    +0.003 C 
ATOM     27  C   UNL     1      32.597 -13.756 -22.947  0.00  0.00    +0.099 C 
ATOM     28  C   UNL     1      32.339 -13.202 -21.703  0.00  0.00    +0.021 C 
ENDBRANCH  18  24
ENDBRANCH   2  17
TORSDOF 4
ENDMDL
MODEL 6
REMARK VINA RESULT:     -11.0      1.523      1.976
REMARK  Name = 24776445
REMARK  4 active torsions:
REMARK  status: ('A' for Active; 'I' for Inactive)
REMARK    1  A    between atoms: N_2  and  C_17
REMARK    2  A    between atoms: C_3  and  C_7
REMARK    3  A    between atoms: C_6  and  S_12
REMARK    4  A    between atoms: C_18  and  C_24
REMARK                            x       y       z     vdW  Elec       q    Type
REMARK                         _______ _______ _______ _____ _____    ______ ____
ROOT
ATOM      1  O   UNL     1      36.080 -17.614 -22.599  0.00  0.00    -0.270 OA
ATOM      2  N   UNL     1      33.771 -17.195 -22.734  0.00  0.00    -0.280 N 
ATOM      3  C   UNL     1      34.918 -17.873 -22.303  0.00  0.00    +0.250 C 
ATOM      4  H   UNL     1      32.913 -17.541 -22.396  0.00  0.00    +0.155 HD
ENDROOT
BRANCH   3   7
ATOM      5 CL   UNL     1      37.365 -19.260 -21.026  0.00  0.00    -0.082 Cl
ATOM      6  C   UNL     1      34.124 -21.222 -19.766  0.00  0.00    +0.107 C 
ATOM      7  C   UNL     1      34.674 -19.039 -21.416  0.00  0.00    +0.064 C 
ATOM      8  C   UNL     1      35.443 -20.817 -19.971  0.00  0.00    +0.030 C 
ATOM      9  C   UNL     1      33.079 -20.534 -20.386  0.00  0.00    +0.019 C 
ATOM     10  C   UNL     1      35.718 -19.727 -20.796  0.00  0.00    +0.063 C 
ATOM     11  C   UNL     1      33.354 -19.444 -21.210  0.00  0.00    +0.007 C 
BRANCH   6  12
ATOM     12  S   UNL     1      33.777 -22.585 -18.732  0.00  0.00    +0.010 S 
ATOM     13  O   UNL     1      32.467 -22.373 -18.136  0.00  0.00    -0.169 OA
ATOM     14  O   UNL     1      34.047 -23.814 -19.466  0.00  0.00    -0.169 OA
ATOM     15  C   UNL     1      34.992 -22.477 -17.438  0.00  0.00    +0.182 C 
ENDBRANCH   6  12
ENDBRANCH   3   7
BRANCH   2  17
ATOM     16 CL   UNL     1      33.461 -12.551 -26.383  0.00  0.00    -0.082 Cl
ATOM     17  C   UNL     1      33.693 -16.091 -23.583  0.00  0.00    +0.051 C 
ATOM     18  C   UNL     1      33.258 -13.739 -23.925  0.00  0.00    +0.029 C 
ATOM     19  C   UNL     1      33.335 -14.842 -23.075  0.00  0.00    +0.017 C 
ATOM     20  C   UNL     1      33.974 -16.236 -24.942  0.00  0.00    +0.016 C 
ATOM     21  C   UNL     1      33.540 -13.885 -25.284  0.00  0.00    +0.059 C 
ATOM     22  C   UNL     1      33.896 -15.132 -25.792  0.00  0.00    +0.013 C 
BRANCH  18  24
ATOM     23  N   UNL     1      31.922 -12.514 -22.407  0.00  0.00    -0.244 NA
ATOM     24  C   UNL     1      32.884 -12.458 -23.355  0.00  0.00    +0.082 C 
ATOM     25  C   UNL     1      33.489 -11.285 -23.777  0.00  0.00    +0.019 C 
ATOM     26  C   UNL     1      33.082 -10.094 -23.187  0.00  0.00    +0.003 C 
ATOM     27  C   UNL     1      31.552 -11.336 -21.856  0.00  0.00    +0.099 C 
ATOM     28  C   UNL     1      32.095 -10.112 -22.209  0.00  0.00    +0.021 C 
ENDBRANCH  18  24
ENDBRANCH   2  17
TORSDOF 4
ENDMDL
MODEL 7
REMARK VINA RESULT:     -10.9      2.734      4.033
REMARK  Name = 24776445
REMARK  4 active torsions:
REMARK  status: ('A' for Active; 'I' for Inactive)
REMARK    1  A    between atoms: N_2  and  C_17
REMARK    2  A    between atoms: C_3  and  C_7
REMARK    3  A    between atoms: C_6  and  S_12
REMARK    4  A    between atoms: C_18  and  C_24
REMARK                            x       y       z     vdW  Elec       q    Type
REMARK                         _______ _______ _______ _____ _____    ______ ____
ROOT
ATOM      1  O   UNL     1      37.074 -21.129 -20.483  0.00  0.00    -0.270 OA
ATOM      2  N   UNL     1      35.023 -20.015 -20.200  0.00  0.00    -0.280 N 
ATOM      3  C   UNL     1      36.059 -20.886 -19.839  0.00  0.00    +0.250 C 
ATOM      4  H   UNL     1      34.279 -19.940 -19.560  0.00  0.00    +0.155 HD
ENDROOT
BRANCH   3   7
ATOM      5 CL   UNL     1      33.402 -22.397 -19.386  0.00  0.00    -0.082 Cl
ATOM      6  C   UNL     1      35.606 -22.902 -16.095  0.00  0.00    +0.107 C 
ATOM      7  C   UNL     1      35.872 -21.597 -18.548  0.00  0.00    +0.064 C 
ATOM      8  C   UNL     1      34.573 -22.958 -17.031  0.00  0.00    +0.030 C 
ATOM      9  C   UNL     1      36.774 -22.194 -16.386  0.00  0.00    +0.019 C 
ATOM     10  C   UNL     1      34.706 -22.306 -18.256  0.00  0.00    +0.063 C 
ATOM     11  C   UNL     1      36.906 -21.542 -17.612  0.00  0.00    +0.007 C 
BRANCH   6  12
ATOM     12  S   UNL     1      35.443 -23.720 -14.561  0.00  0.00    +0.010 S 
ATOM     13  O   UNL     1      36.326 -23.064 -13.608  0.00  0.00    -0.169 OA
ATOM     14  O   UNL     1      34.027 -23.866 -14.253  0.00  0.00    -0.169 OA
ATOM     15  C   UNL     1      36.079 -25.353 -14.862  0.00  0.00    +0.182 C 
ENDBRANCH   6  12
ENDBRANCH   3   7
BRANCH   2  17
ATOM     16 CL   UNL     1      34.592 -16.779 -25.132  0.00  0.00    -0.082 Cl
ATOM     17  C   UNL     1      34.916 -19.240 -21.356  0.00  0.00    +0.051 C 
ATOM     18  C   UNL     1      34.344 -17.154 -22.432  0.00  0.00    +0.029 C 
ATOM     19  C   UNL     1      34.450 -17.927 -21.276  0.00  0.00    +0.017 C 
ATOM     20  C   UNL     1      35.275 -19.779 -22.591  0.00  0.00    +0.016 C 
ATOM     21  C   UNL     1      34.703 -17.693 -23.667  0.00  0.00    +0.059 C 
ATOM     22  C   UNL     1      35.168 -19.005 -23.747  0.00  0.00    +0.013 C 
BRANCH  18  24
ATOM     23  N   UNL     1      34.448 -14.895 -23.122  0.00  0.00    -0.244 NA
ATOM     24  C   UNL     1      33.856 -15.793 -22.304  0.00  0.00    +0.082 C 
ATOM     25  C   UNL     1      32.857 -15.476 -21.397  0.00  0.00    +0.019 C 
ATOM     26  C   UNL     1      32.438 -14.152 -21.328  0.00  0.00    +0.003 C 
ATOM     27  C   UNL     1      34.015 -13.618 -23.026  0.00  0.00    +0.099 C 
ATOM     28  C   UNL     1      33.024 -13.200 -22.154  0.00  0.00    +0.021 C 
ENDBRANCH  18  24
ENDBRANCH   2  17
TORSDOF 4
ENDMDL
MODEL 8
REMARK VINA RESULT:     -10.7      5.432     10.622
REMARK  Name = 24776445
REMARK  4 active torsions:
REMARK  status: ('A' for Active; 'I' for Inactive)
REMARK    1  A    between atoms: N_2  and  C_17
REMARK    2  A    between atoms: C_3  and  C_7
REMARK    3  A    between atoms: C_6  and  S_12
REMARK    4  A    between atoms: C_18  and  C_24
REMARK                            x       y       z     vdW  Elec       q    Type
REMARK                         _______ _______ _______ _____ _____    ______ ____
ROOT
ATOM      1  O   UNL     1      33.905 -23.517 -19.382  0.00  0.00    -0.270 OA
ATOM      2  N   UNL     1      33.307 -21.981 -17.705  0.00  0.00    -0.280 N 
ATOM      3  C   UNL     1      33.748 -22.370 -18.976  0.00  0.00    +0.250 C 
ATOM      4  H   UNL     1      33.240 -21.011 -17.550  0.00  0.00    +0.155 HD
ENDROOT
BRANCH   3   7
ATOM      5 CL   UNL     1      36.722 -21.611 -19.332  0.00  0.00    -0.082 Cl
ATOM      6  C   UNL     1      34.606 -19.155 -21.663  0.00  0.00    +0.107 C 
ATOM      7  C   UNL     1      34.078 -21.257 -19.904  0.00  0.00    +0.064 C 
ATOM      8  C   UNL     1      35.657 -19.796 -21.006  0.00  0.00    +0.030 C 
ATOM      9  C   UNL     1      33.290 -19.566 -21.440  0.00  0.00    +0.019 C 
ATOM     10  C   UNL     1      35.393 -20.846 -20.127  0.00  0.00    +0.063 C 
ATOM     11  C   UNL     1      33.027 -20.616 -20.562  0.00  0.00    +0.007 C 
BRANCH   6  12
ATOM     12  S   UNL     1      34.934 -17.842 -22.765  0.00  0.00    +0.010 S 
ATOM     13  O   UNL     1      34.024 -16.752 -22.447  0.00  0.00    -0.169 OA
ATOM     14  O   UNL     1      36.370 -17.600 -22.796  0.00  0.00    -0.169 OA
ATOM     15  C   UNL     1      34.483 -18.483 -24.362  0.00  0.00    +0.182 C 
ENDBRANCH   6  12
ENDBRANCH   3   7
BRANCH   2  17
ATOM     16 CL   UNL     1      31.745 -25.443 -13.171  0.00  0.00    -0.082 Cl
ATOM     17  C   UNL     1      32.953 -22.799 -16.631  0.00  0.00    +0.051 C 
ATOM     18  C   UNL     1      33.568 -24.028 -14.644  0.00  0.00    +0.029 C 
ATOM     19  C   UNL     1      33.924 -23.211 -15.717  0.00  0.00    +0.017 C 
ATOM     20  C   UNL     1      31.628 -23.203 -16.471  0.00  0.00    +0.016 C 
ATOM     21  C   UNL     1      32.242 -24.431 -14.484  0.00  0.00    +0.059 C 
ATOM     22  C   UNL     1      31.273 -24.020 -15.397  0.00  0.00    +0.013 C 
BRANCH  18  24
ATOM     23  N   UNL     1      34.418 -24.035 -12.438  0.00  0.00    -0.244 NA
ATOM     24  C   UNL     1      34.608 -24.432 -13.716  0.00  0.00    +0.082 C 
ATOM     25  C   UNL     1      35.699 -25.169 -14.146  0.00  0.00    +0.019 C 
ATOM     26  C   UNL     1      36.657 -25.522 -13.202  0.00  0.00    +0.003 C 
ATOM     27  C   UNL     1      35.371 -24.397 -11.549  0.00  0.00    +0.099 C 
ATOM     28  C   UNL     1      36.498 -25.132 -11.878  0.00  0.00    +0.021 C 
ENDBRANCH  18  24
ENDBRANCH   2  17
TORSDOF 4
ENDMDL
MODEL 9
REMARK VINA RESULT:     -10.7      3.817      5.935
REMARK  Name = 24776445
REMARK  4 active torsions:
REMARK  status: ('A' for Active; 'I' for Inactive)
REMARK    1  A    between atoms: N_2  and  C_17
REMARK    2  A    between atoms: C_3  and  C_7
REMARK    3  A    between atoms: C_6  and  S_12
REMARK    4  A    between atoms: C_18  and  C_24
REMARK                            x       y       z     vdW  Elec       q    Type
REMARK                         _______ _______ _______ _____ _____    ______ ____
ROOT
ATOM      1  O   UNL     1      32.284 -12.617 -23.205  0.00  0.00    -0.270 OA
ATOM      2  N   UNL     1      34.476 -12.086 -23.867  0.00  0.00    -0.280 N 
ATOM      3  C   UNL     1      33.449 -12.931 -23.429  0.00  0.00    +0.250 C 
ATOM      4  H   UNL     1      35.357 -12.509 -23.996  0.00  0.00    +0.155 HD
ENDROOT
BRANCH   3   7
ATOM      5 CL   UNL     1      33.298 -14.892 -25.811  0.00  0.00    -0.082 Cl
ATOM      6  C   UNL     1      34.594 -16.978 -22.663  0.00  0.00    +0.107 C 
ATOM      7  C   UNL     1      33.841 -14.344 -23.194  0.00  0.00    +0.064 C 
ATOM      8  C   UNL     1      34.182 -16.616 -23.945  0.00  0.00    +0.030 C 
ATOM      9  C   UNL     1      34.630 -16.023 -21.645  0.00  0.00    +0.019 C 
ATOM     10  C   UNL     1      33.806 -15.300 -24.210  0.00  0.00    +0.063 C 
ATOM     11  C   UNL     1      34.254 -14.707 -21.911  0.00  0.00    +0.007 C 
BRANCH   6  12
ATOM     12  S   UNL     1      35.068 -18.626 -22.329  0.00  0.00    +0.010 S 
ATOM     13  O   UNL     1      34.873 -19.402 -23.544  0.00  0.00    -0.169 OA
ATOM     14  O   UNL     1      36.370 -18.619 -21.677  0.00  0.00    -0.169 OA
ATOM     15  C   UNL     1      33.887 -19.189 -21.124  0.00  0.00    +0.182 C 
ENDBRANCH   6  12
ENDBRANCH   3   7
BRANCH   2  17
ATOM     16 CL   UNL     1      34.230  -6.303 -25.079  0.00  0.00    -0.082 Cl
ATOM     17  C   UNL     1      34.408 -10.720 -24.142  0.00  0.00    +0.051 C 
ATOM     18  C   UNL     1      33.549  -8.521 -23.628  0.00  0.00    +0.029 C 
ATOM     19  C   UNL     1      33.615  -9.887 -23.352  0.00  0.00    +0.017 C 
ATOM     20  C   UNL     1      35.134 -10.187 -25.207  0.00  0.00    +0.016 C 
ATOM     21  C   UNL     1      34.275  -7.989 -24.692  0.00  0.00    +0.059 C 
ATOM     22  C   UNL     1      35.067  -8.821 -25.482  0.00  0.00    +0.013 C 
BRANCH  18  24
ATOM     23  N   UNL     1      31.627  -7.164 -23.389  0.00  0.00    -0.244 NA
ATOM     24  C   UNL     1      32.713  -7.691 -22.780  0.00  0.00    +0.082 C 
ATOM     25  C   UNL     1      33.038  -7.475 -21.450  0.00  0.00    +0.019 C 
ATOM     26  C   UNL     1      32.192  -6.669 -20.697  0.00  0.00    +0.003 C 
ATOM     27  C   UNL     1      30.829  -6.385 -22.625  0.00  0.00    +0.099 C 
ATOM     28  C   UNL     1      31.066  -6.109 -21.288  0.00  0.00    +0.021 C 
ENDBRANCH  18  24
ENDBRANCH   2  17
TORSDOF 4
ENDMDL
