MODEL 1
REMARK VINA RESULT:      -7.5      0.000      0.000
REMARK  Name = 46936963
REMARK  5 active torsions:
REMARK  status: ('A' for Active; 'I' for Inactive)
REMARK    1  A    between atoms: C_6  and  O_12
REMARK    2  A    between atoms: C_7  and  O_14
REMARK    3  A    between atoms: C_9  and  O_16
REMARK    4  A    between atoms: C_10  and  C_19
REMARK    5  A    between atoms: C_19  and  O_20
REMARK                            x       y       z     vdW  Elec       q    Type
REMARK                         _______ _______ _______ _____ _____    ______ ____
ROOT
ATOM      1  O   UNL     1      38.665 -24.542 -13.178  0.00  0.00    -0.323 OA
ATOM      2  O   UNL     1      35.992 -25.363 -12.504  0.00  0.00    -0.326 OA
ATOM      3  O   UNL     1      37.794 -26.308 -14.523  0.00  0.00    -0.323 OA
ATOM      4  C   UNL     1      37.522 -23.711 -13.414  0.00  0.00    +0.177 C 
ATOM      5  C   UNL     1      36.300 -24.593 -13.673  0.00  0.00    +0.177 C 
ATOM      6  C   UNL     1      37.288 -22.830 -12.186  0.00  0.00    +0.172 C 
ATOM      7  C   UNL     1      36.835 -23.661 -10.986  0.00  0.00    +0.196 C 
ATOM      8  C   UNL     1      36.599 -25.576 -14.797  0.00  0.00    +0.177 C 
ATOM      9  C   UNL     1      35.662 -24.563 -11.371  0.00  0.00    +0.262 C 
ATOM     10  C   UNL     1      38.907 -25.475 -14.223  0.00  0.00    +0.280 C 
ATOM     11  C   UNL     1      40.021 -26.397 -13.732  0.00  0.00    +0.074 C 
ENDROOT
BRANCH   6  12
ATOM     12  O   UNL     1      38.488 -22.129 -11.874  0.00  0.00    -0.379 OA
ATOM     13  H   UNL     1      38.670 -21.475 -12.566  0.00  0.00    +0.211 HD
ENDBRANCH   6  12
BRANCH   7  14
ATOM     14  O   UNL     1      36.426 -22.768  -9.950  0.00  0.00    -0.378 OA
ATOM     15  H   UNL     1      35.640 -22.278 -10.238  0.00  0.00    +0.211 HD
ENDBRANCH   7  14
BRANCH   9  16
ATOM     16  O   UNL     1      35.373 -25.403 -10.254  0.00  0.00    -0.358 OA
ATOM     17  H   UNL     1      36.177 -25.878  -9.990  0.00  0.00    +0.213 HD
ENDBRANCH   9  16
BRANCH  10  19
ATOM     18  O   UNL     1      39.171 -23.647 -15.797  0.00  0.00    -0.245 OA
ATOM     19  C   UNL     1      39.430 -24.793 -15.464  0.00  0.00    +0.366 C 
BRANCH  19  20
ATOM     20  O   UNL     1      40.232 -25.629 -16.169  0.00  0.00    -0.477 OA
ATOM     21  H   UNL     1      40.229 -26.548 -15.983  0.00  0.00    +0.295 HD
ENDBRANCH  19  20
ENDBRANCH  10  19
TORSDOF 5
ENDMDL
MODEL 2
REMARK VINA RESULT:      -7.4      2.889      4.468
REMARK  Name = 46936963
REMARK  5 active torsions:
REMARK  status: ('A' for Active; 'I' for Inactive)
REMARK    1  A    between atoms: C_6  and  O_12
REMARK    2  A    between atoms: C_7  and  O_14
REMARK    3  A    between atoms: C_9  and  O_16
REMARK    4  A    between atoms: C_10  and  C_19
REMARK    5  A    between atoms: C_19  and  O_20
REMARK                            x       y       z     vdW  Elec       q    Type
REMARK                         _______ _______ _______ _____ _____    ______ ____
ROOT
ATOM      1  O   UNL     1      35.736 -25.233 -14.123  0.00  0.00    -0.323 OA
ATOM      2  O   UNL     1      35.485 -23.387 -16.315  0.00  0.00    -0.326 OA
ATOM      3  O   UNL     1      37.802 -24.579 -15.119  0.00  0.00    -0.323 OA
ATOM      4  C   UNL     1      35.319 -23.875 -13.941  0.00  0.00    +0.177 C 
ATOM      5  C   UNL     1      35.960 -23.000 -15.019  0.00  0.00    +0.177 C 
ATOM      6  C   UNL     1      33.794 -23.807 -14.042  0.00  0.00    +0.172 C 
ATOM      7  C   UNL     1      33.320 -24.098 -15.465  0.00  0.00    +0.196 C 
ATOM      8  C   UNL     1      37.471 -23.194 -15.014  0.00  0.00    +0.177 C 
ATOM      9  C   UNL     1      34.077 -23.228 -16.470  0.00  0.00    +0.262 C 
ATOM     10  C   UNL     1      37.150 -25.389 -14.149  0.00  0.00    +0.280 C 
ATOM     11  C   UNL     1      37.419 -26.840 -14.541  0.00  0.00    +0.074 C 
ENDROOT
BRANCH   6  12
ATOM     12  O   UNL     1      33.221 -24.740 -13.132  0.00  0.00    -0.379 OA
ATOM     13  H   UNL     1      32.841 -25.483 -13.627  0.00  0.00    +0.211 HD
ENDBRANCH   6  12
BRANCH   7  14
ATOM     14  O   UNL     1      31.925 -23.806 -15.542  0.00  0.00    -0.378 OA
ATOM     15  H   UNL     1      31.795 -22.845 -15.521  0.00  0.00    +0.211 HD
ENDBRANCH   7  14
BRANCH   9  16
ATOM     16  O   UNL     1      33.686 -23.638 -17.781  0.00  0.00    -0.358 OA
ATOM     17  H   UNL     1      32.978 -23.059 -18.103  0.00  0.00    +0.213 HD
ENDBRANCH   9  16
BRANCH  10  19
ATOM     18  O   UNL     1      38.626 -24.384 -12.506  0.00  0.00    -0.245 OA
ATOM     19  C   UNL     1      37.753 -25.194 -12.780  0.00  0.00    +0.366 C 
BRANCH  19  20
ATOM     20  O   UNL     1      37.196 -26.046 -11.884  0.00  0.00    -0.477 OA
ATOM     21  H   UNL     1      37.068 -25.775 -10.997  0.00  0.00    +0.295 HD
ENDBRANCH  19  20
ENDBRANCH  10  19
TORSDOF 5
ENDMDL
MODEL 3
REMARK VINA RESULT:      -7.3      1.962      4.572
REMARK  Name = 46936963
REMARK  5 active torsions:
REMARK  status: ('A' for Active; 'I' for Inactive)
REMARK    1  A    between atoms: C_6  and  O_12
REMARK    2  A    between atoms: C_7  and  O_14
REMARK    3  A    between atoms: C_9  and  O_16
REMARK    4  A    between atoms: C_10  and  C_19
REMARK    5  A    between atoms: C_19  and  O_20
REMARK                            x       y       z     vdW  Elec       q    Type
REMARK                         _______ _______ _______ _____ _____    ______ ____
ROOT
ATOM      1  O   UNL     1      36.813 -24.079 -14.039  0.00  0.00    -0.323 OA
ATOM      2  O   UNL     1      38.205 -26.213 -15.375  0.00  0.00    -0.326 OA
ATOM      3  O   UNL     1      35.452 -25.421 -15.464  0.00  0.00    -0.323 OA
ATOM      4  C   UNL     1      37.322 -25.222 -13.340  0.00  0.00    +0.177 C 
ATOM      5  C   UNL     1      37.311 -26.432 -14.275  0.00  0.00    +0.177 C 
ATOM      6  C   UNL     1      38.748 -24.924 -12.876  0.00  0.00    +0.172 C 
ATOM      7  C   UNL     1      39.707 -24.823 -14.061  0.00  0.00    +0.196 C 
ATOM      8  C   UNL     1      35.917 -26.626 -14.857  0.00  0.00    +0.177 C 
ATOM      9  C   UNL     1      39.562 -26.042 -14.974  0.00  0.00    +0.262 C 
ATOM     10  C   UNL     1      35.525 -24.292 -14.603  0.00  0.00    +0.280 C 
ATOM     11  C   UNL     1      35.220 -23.067 -15.463  0.00  0.00    +0.074 C 
ENDROOT
BRANCH   6  12
ATOM     12  O   UNL     1      38.757 -23.710 -12.131  0.00  0.00    -0.379 OA
ATOM     13  H   UNL     1      39.558 -23.671 -11.586  0.00  0.00    +0.211 HD
ENDBRANCH   6  12
BRANCH   7  14
ATOM     14  O   UNL     1      41.041 -24.765 -13.557  0.00  0.00    -0.378 OA
ATOM     15  H   UNL     1      41.238 -23.861 -13.267  0.00  0.00    +0.211 HD
ENDBRANCH   7  14
BRANCH   9  16
ATOM     16  O   UNL     1      40.382 -25.827 -16.122  0.00  0.00    -0.358 OA
ATOM     17  H   UNL     1      40.532 -24.875 -16.238  0.00  0.00    +0.213 HD
ENDBRANCH   9  16
BRANCH  10  19
ATOM     18  O   UNL     1      34.584 -23.934 -12.395  0.00  0.00    -0.245 OA
ATOM     19  C   UNL     1      34.457 -24.346 -13.538  0.00  0.00    +0.366 C 
BRANCH  19  20
ATOM     20  O   UNL     1      33.327 -24.918 -14.022  0.00  0.00    -0.477 OA
ATOM     21  H   UNL     1      32.844 -24.498 -14.705  0.00  0.00    +0.295 HD
ENDBRANCH  19  20
ENDBRANCH  10  19
TORSDOF 5
ENDMDL
MODEL 4
REMARK VINA RESULT:      -7.0     10.786     12.329
REMARK  Name = 46936963
REMARK  5 active torsions:
REMARK  status: ('A' for Active; 'I' for Inactive)
REMARK    1  A    between atoms: C_6  and  O_12
REMARK    2  A    between atoms: C_7  and  O_14
REMARK    3  A    between atoms: C_9  and  O_16
REMARK    4  A    between atoms: C_10  and  C_19
REMARK    5  A    between atoms: C_19  and  O_20
REMARK                            x       y       z     vdW  Elec       q    Type
REMARK                         _______ _______ _______ _____ _____    ______ ____
ROOT
ATOM      1  O   UNL     1      34.102 -17.773 -21.219  0.00  0.00    -0.323 OA
ATOM      2  O   UNL     1      34.300 -16.897 -23.951  0.00  0.00    -0.326 OA
ATOM      3  O   UNL     1      34.392 -19.525 -22.810  0.00  0.00    -0.323 OA
ATOM      4  C   UNL     1      35.234 -17.047 -21.714  0.00  0.00    +0.177 C 
ATOM      5  C   UNL     1      35.427 -17.363 -23.198  0.00  0.00    +0.177 C 
ATOM      6  C   UNL     1      34.987 -15.550 -21.520  0.00  0.00    +0.172 C 
ATOM      7  C   UNL     1      33.865 -15.051 -22.429  0.00  0.00    +0.196 C 
ATOM      8  C   UNL     1      35.515 -18.870 -23.400  0.00  0.00    +0.177 C 
ATOM      9  C   UNL     1      34.114 -15.486 -23.874  0.00  0.00    +0.262 C 
ATOM     10  C   UNL     1      34.189 -19.174 -21.447  0.00  0.00    +0.280 C 
ATOM     11  C   UNL     1      32.839 -19.763 -21.042  0.00  0.00    +0.074 C 
ENDROOT
BRANCH   6  12
ATOM     12  O   UNL     1      34.662 -15.301 -20.156  0.00  0.00    -0.379 OA
ATOM     13  H   UNL     1      33.901 -14.701 -20.109  0.00  0.00    +0.211 HD
ENDBRANCH   6  12
BRANCH   7  14
ATOM     14  O   UNL     1      33.833 -13.626 -22.362  0.00  0.00    -0.378 OA
ATOM     15  H   UNL     1      33.224 -13.349 -21.660  0.00  0.00    +0.211 HD
ENDBRANCH   7  14
BRANCH   9  16
ATOM     16  O   UNL     1      32.974 -15.107 -24.646  0.00  0.00    -0.358 OA
ATOM     17  H   UNL     1      33.062 -14.180 -24.919  0.00  0.00    +0.213 HD
ENDBRANCH   9  16
BRANCH  10  19
ATOM     18  O   UNL     1      36.307 -19.329 -20.273  0.00  0.00    -0.245 OA
ATOM     19  C   UNL     1      35.223 -19.817 -20.556  0.00  0.00    +0.366 C 
BRANCH  19  20
ATOM     20  O   UNL     1      34.789 -21.021 -20.109  0.00  0.00    -0.477 OA
ATOM     21  H   UNL     1      35.098 -21.357 -19.291  0.00  0.00    +0.295 HD
ENDBRANCH  19  20
ENDBRANCH  10  19
TORSDOF 5
ENDMDL
MODEL 5
REMARK VINA RESULT:      -6.8      1.970      5.035
REMARK  Name = 46936963
REMARK  5 active torsions:
REMARK  status: ('A' for Active; 'I' for Inactive)
REMARK    1  A    between atoms: C_6  and  O_12
REMARK    2  A    between atoms: C_7  and  O_14
REMARK    3  A    between atoms: C_9  and  O_16
REMARK    4  A    between atoms: C_10  and  C_19
REMARK    5  A    between atoms: C_19  and  O_20
REMARK                            x       y       z     vdW  Elec       q    Type
REMARK                         _______ _______ _______ _____ _____    ______ ____
ROOT
ATOM      1  O   UNL     1      36.201 -25.038 -13.450  0.00  0.00    -0.323 OA
ATOM      2  O   UNL     1      38.464 -23.807 -14.729  0.00  0.00    -0.326 OA
ATOM      3  O   UNL     1      36.012 -22.682 -13.760  0.00  0.00    -0.323 OA
ATOM      4  C   UNL     1      36.521 -25.260 -14.829  0.00  0.00    +0.177 C 
ATOM      5  C   UNL     1      37.211 -24.018 -15.394  0.00  0.00    +0.177 C 
ATOM      6  C   UNL     1      37.444 -26.474 -14.935  0.00  0.00    +0.172 C 
ATOM      7  C   UNL     1      38.818 -26.180 -14.334  0.00  0.00    +0.196 C 
ATOM      8  C   UNL     1      36.352 -22.786 -15.142  0.00  0.00    +0.177 C 
ATOM      9  C   UNL     1      39.385 -24.880 -14.906  0.00  0.00    +0.262 C 
ATOM     10  C   UNL     1      35.426 -23.866 -13.233  0.00  0.00    +0.280 C 
ATOM     11  C   UNL     1      35.343 -23.675 -11.720  0.00  0.00    +0.074 C 
ENDROOT
BRANCH   6  12
ATOM     12  O   UNL     1      36.843 -27.582 -14.271  0.00  0.00    -0.379 OA
ATOM     13  H   UNL     1      36.839 -27.421 -13.315  0.00  0.00    +0.211 HD
ENDBRANCH   6  12
BRANCH   7  14
ATOM     14  O   UNL     1      39.691 -27.261 -14.658  0.00  0.00    -0.378 OA
ATOM     15  H   UNL     1      40.600 -27.025 -14.416  0.00  0.00    +0.211 HD
ENDBRANCH   7  14
BRANCH   9  16
ATOM     16  O   UNL     1      40.600 -24.593 -14.212  0.00  0.00    -0.358 OA
ATOM     17  H   UNL     1      41.277 -25.239 -14.466  0.00  0.00    +0.213 HD
ENDBRANCH   9  16
BRANCH  10  19
ATOM     18  O   UNL     1      33.504 -23.416 -14.644  0.00  0.00    -0.245 OA
ATOM     19  C   UNL     1      34.010 -24.040 -13.723  0.00  0.00    +0.366 C 
BRANCH  19  20
ATOM     20  O   UNL     1      33.365 -24.988 -13.000  0.00  0.00    -0.477 OA
ATOM     21  H   UNL     1      33.149 -25.811 -13.392  0.00  0.00    +0.295 HD
ENDBRANCH  19  20
ENDBRANCH  10  19
TORSDOF 5
ENDMDL
MODEL 6
REMARK VINA RESULT:      -6.7     11.510     13.176
REMARK  Name = 46936963
REMARK  5 active torsions:
REMARK  status: ('A' for Active; 'I' for Inactive)
REMARK    1  A    between atoms: C_6  and  O_12
REMARK    2  A    between atoms: C_7  and  O_14
REMARK    3  A    between atoms: C_9  and  O_16
REMARK    4  A    between atoms: C_10  and  C_19
REMARK    5  A    between atoms: C_19  and  O_20
REMARK                            x       y       z     vdW  Elec       q    Type
REMARK                         _______ _______ _______ _____ _____    ______ ____
ROOT
ATOM      1  O   UNL     1      34.065 -17.421 -22.127  0.00  0.00    -0.323 OA
ATOM      2  O   UNL     1      34.146 -17.461 -25.002  0.00  0.00    -0.326 OA
ATOM      3  O   UNL     1      34.403 -19.578 -23.086  0.00  0.00    -0.323 OA
ATOM      4  C   UNL     1      35.145 -16.847 -22.875  0.00  0.00    +0.177 C 
ATOM      5  C   UNL     1      35.316 -17.615 -24.186  0.00  0.00    +0.177 C 
ATOM      6  C   UNL     1      34.826 -15.379 -23.158  0.00  0.00    +0.172 C 
ATOM      7  C   UNL     1      33.657 -15.243 -24.133  0.00  0.00    +0.196 C 
ATOM      8  C   UNL     1      35.475 -19.102 -23.901  0.00  0.00    +0.177 C 
ATOM      9  C   UNL     1      33.890 -16.108 -25.372  0.00  0.00    +0.262 C 
ATOM     10  C   UNL     1      34.217 -18.816 -21.900  0.00  0.00    +0.280 C 
ATOM     11  C   UNL     1      32.911 -19.299 -21.273  0.00  0.00    +0.074 C 
ENDROOT
BRANCH   6  12
ATOM     12  O   UNL     1      34.524 -14.718 -21.933  0.00  0.00    -0.379 OA
ATOM     13  H   UNL     1      34.149 -13.844 -22.121  0.00  0.00    +0.211 HD
ENDBRANCH   6  12
BRANCH   7  14
ATOM     14  O   UNL     1      33.554 -13.874 -24.523  0.00  0.00    -0.378 OA
ATOM     15  H   UNL     1      33.004 -13.397 -23.883  0.00  0.00    +0.211 HD
ENDBRANCH   7  14
BRANCH   9  16
ATOM     16  O   UNL     1      32.713 -16.043 -26.177  0.00  0.00    -0.358 OA
ATOM     17  H   UNL     1      32.344 -15.146 -26.138  0.00  0.00    +0.213 HD
ENDBRANCH   9  16
BRANCH  10  19
ATOM     18  O   UNL     1      36.048 -18.257 -20.408  0.00  0.00    -0.245 OA
ATOM     19  C   UNL     1      35.306 -19.098 -20.894  0.00  0.00    +0.366 C 
BRANCH  19  20
ATOM     20  O   UNL     1      35.355 -20.420 -20.597  0.00  0.00    -0.477 OA
ATOM     21  H   UNL     1      36.165 -20.813 -20.339  0.00  0.00    +0.295 HD
ENDBRANCH  19  20
ENDBRANCH  10  19
TORSDOF 5
ENDMDL
MODEL 7
REMARK VINA RESULT:      -6.7     13.215     14.855
REMARK  Name = 46936963
REMARK  5 active torsions:
REMARK  status: ('A' for Active; 'I' for Inactive)
REMARK    1  A    between atoms: C_6  and  O_12
REMARK    2  A    between atoms: C_7  and  O_14
REMARK    3  A    between atoms: C_9  and  O_16
REMARK    4  A    between atoms: C_10  and  C_19
REMARK    5  A    between atoms: C_19  and  O_20
REMARK                            x       y       z     vdW  Elec       q    Type
REMARK                         _______ _______ _______ _____ _____    ______ ____
ROOT
ATOM      1  O   UNL     1      33.396 -14.956 -22.559  0.00  0.00    -0.323 OA
ATOM      2  O   UNL     1      33.721 -16.454 -24.993  0.00  0.00    -0.326 OA
ATOM      3  O   UNL     1      33.990 -17.244 -22.251  0.00  0.00    -0.323 OA
ATOM      4  C   UNL     1      34.483 -14.727 -23.464  0.00  0.00    +0.177 C 
ATOM      5  C   UNL     1      34.826 -16.033 -24.182  0.00  0.00    +0.177 C 
ATOM      6  C   UNL     1      34.069 -13.659 -24.476  0.00  0.00    +0.172 C 
ATOM      7  C   UNL     1      32.979 -14.176 -25.414  0.00  0.00    +0.196 C 
ATOM      8  C   UNL     1      35.083 -17.135 -23.162  0.00  0.00    +0.177 C 
ATOM      9  C   UNL     1      33.386 -15.521 -26.018  0.00  0.00    +0.262 C 
ATOM     10  C   UNL     1      33.643 -16.010 -21.637  0.00  0.00    +0.280 C 
ATOM     11  C   UNL     1      32.333 -16.248 -20.889  0.00  0.00    +0.074 C 
ENDROOT
BRANCH   6  12
ATOM     12  O   UNL     1      33.612 -12.503 -23.781  0.00  0.00    -0.379 OA
ATOM     13  H   UNL     1      32.644 -12.471 -23.810  0.00  0.00    +0.211 HD
ENDBRANCH   6  12
BRANCH   7  14
ATOM     14  O   UNL     1      32.796 -13.223 -26.460  0.00  0.00    -0.378 OA
ATOM     15  H   UNL     1      32.479 -13.675 -27.257  0.00  0.00    +0.211 HD
ENDBRANCH   7  14
BRANCH   9  16
ATOM     16  O   UNL     1      32.279 -16.012 -26.774  0.00  0.00    -0.358 OA
ATOM     17  H   UNL     1      31.463 -15.588 -26.465  0.00  0.00    +0.213 HD
ENDBRANCH   9  16
BRANCH  10  19
ATOM     18  O   UNL     1      34.875 -14.465 -20.227  0.00  0.00    -0.245 OA
ATOM     19  C   UNL     1      34.663 -15.609 -20.599  0.00  0.00    +0.366 C 
BRANCH  19  20
ATOM     20  O   UNL     1      35.322 -16.697 -20.130  0.00  0.00    -0.477 OA
ATOM     21  H   UNL     1      35.023 -17.127 -19.353  0.00  0.00    +0.295 HD
ENDBRANCH  19  20
ENDBRANCH  10  19
TORSDOF 5
ENDMDL
MODEL 8
REMARK VINA RESULT:      -6.6      2.939      4.558
REMARK  Name = 46936963
REMARK  5 active torsions:
REMARK  status: ('A' for Active; 'I' for Inactive)
REMARK    1  A    between atoms: C_6  and  O_12
REMARK    2  A    between atoms: C_7  and  O_14
REMARK    3  A    between atoms: C_9  and  O_16
REMARK    4  A    between atoms: C_10  and  C_19
REMARK    5  A    between atoms: C_19  and  O_20
REMARK                            x       y       z     vdW  Elec       q    Type
REMARK                         _______ _______ _______ _____ _____    ______ ____
ROOT
ATOM      1  O   UNL     1      35.079 -24.401 -15.130  0.00  0.00    -0.323 OA
ATOM      2  O   UNL     1      37.139 -23.401 -13.389  0.00  0.00    -0.326 OA
ATOM      3  O   UNL     1      35.412 -22.042 -15.230  0.00  0.00    -0.323 OA
ATOM      4  C   UNL     1      36.470 -24.672 -15.348  0.00  0.00    +0.177 C 
ATOM      5  C   UNL     1      37.302 -23.508 -14.810  0.00  0.00    +0.177 C 
ATOM      6  C   UNL     1      36.841 -25.967 -14.624  0.00  0.00    +0.172 C 
ATOM      7  C   UNL     1      36.785 -25.790 -13.107  0.00  0.00    +0.196 C 
ATOM      8  C   UNL     1      36.818 -22.199 -15.420  0.00  0.00    +0.177 C 
ATOM      9  C   UNL     1      37.583 -24.556 -12.682  0.00  0.00    +0.262 C 
ATOM     10  C   UNL     1      34.656 -23.160 -15.679  0.00  0.00    +0.280 C 
ATOM     11  C   UNL     1      33.223 -22.939 -15.196  0.00  0.00    +0.074 C 
ENDROOT
BRANCH   6  12
ATOM     12  O   UNL     1      35.955 -27.005 -15.031  0.00  0.00    -0.379 OA
ATOM     13  H   UNL     1      36.349 -27.497 -15.768  0.00  0.00    +0.211 HD
ENDBRANCH   6  12
BRANCH   7  14
ATOM     14  O   UNL     1      37.349 -26.952 -12.498  0.00  0.00    -0.378 OA
ATOM     15  H   UNL     1      38.243 -27.095 -12.844  0.00  0.00    +0.211 HD
ENDBRANCH   7  14
BRANCH   9  16
ATOM     16  O   UNL     1      37.384 -24.371 -11.281  0.00  0.00    -0.358 OA
ATOM     17  H   UNL     1      37.122 -25.213 -10.877  0.00  0.00    +0.213 HD
ENDBRANCH   9  16
BRANCH  10  19
ATOM     18  O   UNL     1      35.336 -22.593 -17.938  0.00  0.00    -0.245 OA
ATOM     19  C   UNL     1      34.598 -23.211 -17.186  0.00  0.00    +0.366 C 
BRANCH  19  20
ATOM     20  O   UNL     1      33.609 -24.041 -17.600  0.00  0.00    -0.477 OA
ATOM     21  H   UNL     1      32.792 -23.687 -17.892  0.00  0.00    +0.295 HD
ENDBRANCH  19  20
ENDBRANCH  10  19
TORSDOF 5
ENDMDL
MODEL 9
REMARK VINA RESULT:      -6.5      5.346      7.260
REMARK  Name = 46936963
REMARK  5 active torsions:
REMARK  status: ('A' for Active; 'I' for Inactive)
REMARK    1  A    between atoms: C_6  and  O_12
REMARK    2  A    between atoms: C_7  and  O_14
REMARK    3  A    between atoms: C_9  and  O_16
REMARK    4  A    between atoms: C_10  and  C_19
REMARK    5  A    between atoms: C_19  and  O_20
REMARK                            x       y       z     vdW  Elec       q    Type
REMARK                         _______ _______ _______ _____ _____    ______ ____
ROOT
ATOM      1  O   UNL     1      31.715 -24.268 -15.898  0.00  0.00    -0.323 OA
ATOM      2  O   UNL     1      33.154 -23.968 -13.426  0.00  0.00    -0.326 OA
ATOM      3  O   UNL     1      30.340 -24.021 -13.965  0.00  0.00    -0.323 OA
ATOM      4  C   UNL     1      32.475 -23.093 -15.587  0.00  0.00    +0.177 C 
ATOM      5  C   UNL     1      32.480 -22.880 -14.073  0.00  0.00    +0.177 C 
ATOM      6  C   UNL     1      33.903 -23.277 -16.102  0.00  0.00    +0.172 C 
ATOM      7  C   UNL     1      34.643 -24.353 -15.309  0.00  0.00    +0.196 C 
ATOM      8  C   UNL     1      31.051 -22.857 -13.547  0.00  0.00    +0.177 C 
ATOM      9  C   UNL     1      34.522 -24.091 -13.807  0.00  0.00    +0.262 C 
ATOM     10  C   UNL     1      30.395 -24.241 -15.369  0.00  0.00    +0.280 C 
ATOM     11  C   UNL     1      29.799 -25.625 -15.618  0.00  0.00    +0.074 C 
ENDROOT
BRANCH   6  12
ATOM     12  O   UNL     1      33.865 -23.622 -17.483  0.00  0.00    -0.379 OA
ATOM     13  H   UNL     1      34.301 -22.928 -18.002  0.00  0.00    +0.211 HD
ENDBRANCH   6  12
BRANCH   7  14
ATOM     14  O   UNL     1      36.020 -24.322 -15.686  0.00  0.00    -0.378 OA
ATOM     15  H   UNL     1      36.387 -23.445 -15.495  0.00  0.00    +0.211 HD
ENDBRANCH   7  14
BRANCH   9  16
ATOM     16  O   UNL     1      35.117 -25.194 -13.123  0.00  0.00    -0.358 OA
ATOM     17  H   UNL     1      35.259 -24.959 -12.193  0.00  0.00    +0.213 HD
ENDBRANCH   9  16
BRANCH  10  19
ATOM     18  O   UNL     1      29.900 -22.525 -17.012  0.00  0.00    -0.245 OA
ATOM     19  C   UNL     1      29.522 -23.257 -16.111  0.00  0.00    +0.366 C 
BRANCH  19  20
ATOM     20  O   UNL     1      28.252 -23.293 -15.639  0.00  0.00    -0.477 OA
ATOM     21  H   UNL     1      27.535 -23.088 -16.206  0.00  0.00    +0.295 HD
ENDBRANCH  19  20
ENDBRANCH  10  19
TORSDOF 5
ENDMDL
