MODEL 1
REMARK VINA RESULT:      -6.4      0.000      0.000
REMARK  Name = 5288636
REMARK  6 active torsions:
REMARK  status: ('A' for Active; 'I' for Inactive)
REMARK    1  A    between atoms: C_1  and  N_3
REMARK    2  A    between atoms: C_1  and  C_9
REMARK    3  A    between atoms: C_1  and  C_12
REMARK    4  A    between atoms: N_3  and  O_6
REMARK    5  A    between atoms: C_9  and  O_10
REMARK    6  A    between atoms: C_12  and  C_13
REMARK                            x       y       z     vdW  Elec       q    Type
REMARK                         _______ _______ _______ _____ _____    ______ ____
ROOT
ATOM      1  C   UNL     1      34.465 -17.838 -21.880  0.00  0.00    +0.201 C 
ENDROOT
BRANCH   1   3
ATOM      2  O   UNL     1      32.793 -20.016 -21.078  0.00  0.00    -0.273 OA
ATOM      3  N   UNL     1      34.827 -18.945 -21.033  0.00  0.00    -0.163 N 
ATOM      4  C   UNL     1      33.962 -19.953 -20.694  0.00  0.00    +0.248 C 
ATOM      5  C   UNL     1      34.530 -21.031 -19.804  0.00  0.00    +0.097 C 
BRANCH   3   6
ATOM      6  O   UNL     1      36.157 -18.881 -20.593  0.00  0.00    -0.291 OA
ATOM      7  H   UNL     1      36.747 -18.790 -21.356  0.00  0.00    +0.242 HD
ENDBRANCH   3   6
ENDBRANCH   1   3
BRANCH   1   9
ATOM      8  O   UNL     1      35.087 -16.160 -20.229  0.00  0.00    -0.248 OA
ATOM      9  C   UNL     1      34.239 -16.652 -20.962  0.00  0.00    +0.338 C 
BRANCH   9  10
ATOM     10  O   UNL     1      32.932 -16.259 -21.047  0.00  0.00    -0.443 OA
ATOM     11  C   UNL     1      32.713 -14.970 -21.630  0.00  0.00    +0.256 C 
ENDBRANCH   9  10
ENDBRANCH   1   9
BRANCH   1  12
ATOM     12  C   UNL     1      35.550 -17.505 -22.908  0.00  0.00    +0.034 C 
BRANCH  12  13
ATOM     13  C   UNL     1      35.101 -17.619 -24.379  0.00  0.00    +0.002 C 
ATOM     14  C   UNL     1      34.397 -18.960 -24.602  0.00  0.00    +0.000 C 
ATOM     15  C   UNL     1      34.175 -16.476 -24.796  0.00  0.00    +0.000 C 
ENDBRANCH  12  13
ENDBRANCH   1  12
TORSDOF 6
ENDMDL
MODEL 2
REMARK VINA RESULT:      -6.3      8.543     10.051
REMARK  Name = 5288636
REMARK  6 active torsions:
REMARK  status: ('A' for Active; 'I' for Inactive)
REMARK    1  A    between atoms: C_1  and  N_3
REMARK    2  A    between atoms: C_1  and  C_9
REMARK    3  A    between atoms: C_1  and  C_12
REMARK    4  A    between atoms: N_3  and  O_6
REMARK    5  A    between atoms: C_9  and  O_10
REMARK    6  A    between atoms: C_12  and  C_13
REMARK                            x       y       z     vdW  Elec       q    Type
REMARK                         _______ _______ _______ _____ _____    ______ ____
ROOT
ATOM      1  C   UNL     1      32.638  -8.429 -22.259  0.00  0.00    +0.201 C 
ENDROOT
BRANCH   1   3
ATOM      2  O   UNL     1      31.181 -10.794 -21.577  0.00  0.00    -0.273 OA
ATOM      3  N   UNL     1      32.364  -8.929 -20.937  0.00  0.00    -0.163 N 
ATOM      4  C   UNL     1      31.654 -10.077 -20.693  0.00  0.00    +0.248 C 
ATOM      5  C   UNL     1      31.478 -10.442 -19.240  0.00  0.00    +0.097 C 
BRANCH   3   6
ATOM      6  O   UNL     1      32.899  -8.118 -19.925  0.00  0.00    -0.291 OA
ATOM      7  H   UNL     1      32.591  -8.432 -19.061  0.00  0.00    +0.242 HD
ENDBRANCH   3   6
ENDBRANCH   1   3
BRANCH   1   9
ATOM      8  O   UNL     1      30.733  -7.830 -23.651  0.00  0.00    -0.248 OA
ATOM      9  C   UNL     1      31.428  -7.611 -22.668  0.00  0.00    +0.338 C 
BRANCH   9  10
ATOM     10  O   UNL     1      31.273  -6.569 -21.797  0.00  0.00    -0.443 OA
ATOM     11  C   UNL     1      30.818  -5.343 -22.378  0.00  0.00    +0.256 C 
ENDBRANCH   9  10
ENDBRANCH   1   9
BRANCH   1  12
ATOM     12  C   UNL     1      33.899  -7.561 -22.309  0.00  0.00    +0.034 C 
BRANCH  12  13
ATOM     13  C   UNL     1      34.772  -7.762 -23.563  0.00  0.00    +0.002 C 
ATOM     14  C   UNL     1      34.611  -9.194 -24.079  0.00  0.00    +0.000 C 
ATOM     15  C   UNL     1      34.428  -6.772 -24.677  0.00  0.00    +0.000 C 
ENDBRANCH  12  13
ENDBRANCH   1  12
TORSDOF 6
ENDMDL
MODEL 3
REMARK VINA RESULT:      -6.2      2.695      4.543
REMARK  Name = 5288636
REMARK  6 active torsions:
REMARK  status: ('A' for Active; 'I' for Inactive)
REMARK    1  A    between atoms: C_1  and  N_3
REMARK    2  A    between atoms: C_1  and  C_9
REMARK    3  A    between atoms: C_1  and  C_12
REMARK    4  A    between atoms: N_3  and  O_6
REMARK    5  A    between atoms: C_9  and  O_10
REMARK    6  A    between atoms: C_12  and  C_13
REMARK                            x       y       z     vdW  Elec       q    Type
REMARK                         _______ _______ _______ _____ _____    ______ ____
ROOT
ATOM      1  C   UNL     1      33.990 -16.121 -23.441  0.00  0.00    +0.201 C 
ENDROOT
BRANCH   1   3
ATOM      2  O   UNL     1      32.040 -15.707 -21.390  0.00  0.00    -0.273 OA
ATOM      3  N   UNL     1      33.694 -14.888 -22.760  0.00  0.00    -0.163 N 
ATOM      4  C   UNL     1      32.739 -14.772 -21.783  0.00  0.00    +0.248 C 
ATOM      5  C   UNL     1      32.582 -13.397 -21.181  0.00  0.00    +0.097 C 
BRANCH   3   6
ATOM      6  O   UNL     1      34.486 -13.818 -23.203  0.00  0.00    -0.291 OA
ATOM      7  H   UNL     1      35.309 -14.160 -23.583  0.00  0.00    +0.242 HD
ENDBRANCH   3   6
ENDBRANCH   1   3
BRANCH   1   9
ATOM      8  O   UNL     1      34.619 -16.323 -25.784  0.00  0.00    -0.248 OA
ATOM      9  C   UNL     1      33.904 -15.824 -24.925  0.00  0.00    +0.338 C 
BRANCH   9  10
ATOM     10  O   UNL     1      32.941 -14.877 -25.140  0.00  0.00    -0.443 OA
ATOM     11  C   UNL     1      32.885 -14.345 -26.468  0.00  0.00    +0.256 C 
ENDBRANCH   9  10
ENDBRANCH   1   9
BRANCH   1  12
ATOM     12  C   UNL     1      35.379 -16.665 -23.095  0.00  0.00    +0.034 C 
BRANCH  12  13
ATOM     13  C   UNL     1      35.392 -18.117 -22.576  0.00  0.00    +0.002 C 
ATOM     14  C   UNL     1      34.534 -18.222 -21.313  0.00  0.00    +0.000 C 
ATOM     15  C   UNL     1      34.893 -19.115 -23.622  0.00  0.00    +0.000 C 
ENDBRANCH  12  13
ENDBRANCH   1  12
TORSDOF 6
ENDMDL
MODEL 4
REMARK VINA RESULT:      -6.1      9.576     11.558
REMARK  Name = 5288636
REMARK  6 active torsions:
REMARK  status: ('A' for Active; 'I' for Inactive)
REMARK    1  A    between atoms: C_1  and  N_3
REMARK    2  A    between atoms: C_1  and  C_9
REMARK    3  A    between atoms: C_1  and  C_12
REMARK    4  A    between atoms: N_3  and  O_6
REMARK    5  A    between atoms: C_9  and  O_10
REMARK    6  A    between atoms: C_12  and  C_13
REMARK                            x       y       z     vdW  Elec       q    Type
REMARK                         _______ _______ _______ _____ _____    ______ ____
ROOT
ATOM      1  C   UNL     1      37.310 -25.000 -13.895  0.00  0.00    +0.201 C 
ENDROOT
BRANCH   1   3
ATOM      2  O   UNL     1      36.463 -22.859 -12.197  0.00  0.00    -0.273 OA
ATOM      3  N   UNL     1      36.793 -25.106 -12.555  0.00  0.00    -0.163 N 
ATOM      4  C   UNL     1      36.408 -24.026 -11.804  0.00  0.00    +0.248 C 
ATOM      5  C   UNL     1      35.883 -24.341 -10.425  0.00  0.00    +0.097 C 
BRANCH   3   6
ATOM      6  O   UNL     1      36.727 -26.432 -12.101  0.00  0.00    -0.291 OA
ATOM      7  H   UNL     1      37.085 -27.025 -12.779  0.00  0.00    +0.242 HD
ENDBRANCH   3   6
ENDBRANCH   1   3
BRANCH   1   9
ATOM      8  O   UNL     1      37.900 -27.218 -14.708  0.00  0.00    -0.248 OA
ATOM      9  C   UNL     1      38.213 -26.200 -14.103  0.00  0.00    +0.338 C 
BRANCH   9  10
ATOM     10  O   UNL     1      39.404 -25.984 -13.468  0.00  0.00    -0.443 OA
ATOM     11  C   UNL     1      40.463 -25.490 -14.294  0.00  0.00    +0.256 C 
ENDBRANCH   9  10
ENDBRANCH   1   9
BRANCH   1  12
ATOM     12  C   UNL     1      36.203 -24.987 -14.953  0.00  0.00    +0.034 C 
BRANCH  12  13
ATOM     13  C   UNL     1      36.095 -23.676 -15.758  0.00  0.00    +0.002 C 
ATOM     14  C   UNL     1      34.880 -22.877 -15.282  0.00  0.00    +0.000 C 
ATOM     15  C   UNL     1      37.354 -22.816 -15.642  0.00  0.00    +0.000 C 
ENDBRANCH  12  13
ENDBRANCH   1  12
TORSDOF 6
ENDMDL
MODEL 5
REMARK VINA RESULT:      -6.1      8.290     11.489
REMARK  Name = 5288636
REMARK  6 active torsions:
REMARK  status: ('A' for Active; 'I' for Inactive)
REMARK    1  A    between atoms: C_1  and  N_3
REMARK    2  A    between atoms: C_1  and  C_9
REMARK    3  A    between atoms: C_1  and  C_12
REMARK    4  A    between atoms: N_3  and  O_6
REMARK    5  A    between atoms: C_9  and  O_10
REMARK    6  A    between atoms: C_12  and  C_13
REMARK                            x       y       z     vdW  Elec       q    Type
REMARK                         _______ _______ _______ _____ _____    ______ ____
ROOT
ATOM      1  C   UNL     1      37.850 -24.996 -14.147  0.00  0.00    +0.201 C 
ENDROOT
BRANCH   1   3
ATOM      2  O   UNL     1      35.910 -23.003 -14.816  0.00  0.00    -0.273 OA
ATOM      3  N   UNL     1      37.990 -23.937 -15.114  0.00  0.00    -0.163 N 
ATOM      4  C   UNL     1      37.007 -23.018 -15.377  0.00  0.00    +0.248 C 
ATOM      5  C   UNL     1      37.345 -21.979 -16.418  0.00  0.00    +0.097 C 
BRANCH   3   6
ATOM      6  O   UNL     1      39.236 -23.948 -15.756  0.00  0.00    -0.291 OA
ATOM      7  H   UNL     1      39.937 -24.085 -15.101  0.00  0.00    +0.242 HD
ENDBRANCH   3   6
ENDBRANCH   1   3
BRANCH   1   9
ATOM      8  O   UNL     1      39.740 -26.489 -14.501  0.00  0.00    -0.248 OA
ATOM      9  C   UNL     1      38.571 -26.199 -14.721  0.00  0.00    +0.338 C 
BRANCH   9  10
ATOM     10  O   UNL     1      37.726 -26.873 -15.558  0.00  0.00    -0.443 OA
ATOM     11  C   UNL     1      36.331 -26.725 -15.276  0.00  0.00    +0.256 C 
ENDBRANCH   9  10
ENDBRANCH   1   9
BRANCH   1  12
ATOM     12  C   UNL     1      38.445 -24.629 -12.784  0.00  0.00    +0.034 C 
BRANCH  12  13
ATOM     13  C   UNL     1      37.407 -24.300 -11.694  0.00  0.00    +0.002 C 
ATOM     14  C   UNL     1      37.236 -22.782 -11.585  0.00  0.00    +0.000 C 
ATOM     15  C   UNL     1      36.050 -24.952 -11.965  0.00  0.00    +0.000 C 
ENDBRANCH  12  13
ENDBRANCH   1  12
TORSDOF 6
ENDMDL
MODEL 6
REMARK VINA RESULT:      -6.0      8.831     11.458
REMARK  Name = 5288636
REMARK  6 active torsions:
REMARK  status: ('A' for Active; 'I' for Inactive)
REMARK    1  A    between atoms: C_1  and  N_3
REMARK    2  A    between atoms: C_1  and  C_9
REMARK    3  A    between atoms: C_1  and  C_12
REMARK    4  A    between atoms: N_3  and  O_6
REMARK    5  A    between atoms: C_9  and  O_10
REMARK    6  A    between atoms: C_12  and  C_13
REMARK                            x       y       z     vdW  Elec       q    Type
REMARK                         _______ _______ _______ _____ _____    ______ ____
ROOT
ATOM      1  C   UNL     1      36.828 -24.801 -14.145  0.00  0.00    +0.201 C 
ENDROOT
BRANCH   1   3
ATOM      2  O   UNL     1      39.313 -23.960 -15.284  0.00  0.00    -0.273 OA
ATOM      3  N   UNL     1      38.064 -25.539 -14.175  0.00  0.00    -0.163 N 
ATOM      4  C   UNL     1      39.217 -25.063 -14.744  0.00  0.00    +0.248 C 
ATOM      5  C   UNL     1      40.412 -25.981 -14.668  0.00  0.00    +0.097 C 
BRANCH   3   6
ATOM      6  O   UNL     1      37.962 -26.797 -13.561  0.00  0.00    -0.291 OA
ATOM      7  H   UNL     1      38.734 -26.944 -12.994  0.00  0.00    +0.242 HD
ENDBRANCH   3   6
ENDBRANCH   1   3
BRANCH   1   9
ATOM      8  O   UNL     1      35.987 -26.481 -15.693  0.00  0.00    -0.248 OA
ATOM      9  C   UNL     1      35.987 -25.323 -15.294  0.00  0.00    +0.338 C 
BRANCH   9  10
ATOM     10  O   UNL     1      35.276 -24.291 -15.838  0.00  0.00    -0.443 OA
ATOM     11  C   UNL     1      35.956 -23.032 -15.886  0.00  0.00    +0.256 C 
ENDBRANCH   9  10
ENDBRANCH   1   9
BRANCH   1  12
ATOM     12  C   UNL     1      36.073 -24.971 -12.823  0.00  0.00    +0.034 C 
BRANCH  12  13
ATOM     13  C   UNL     1      36.083 -23.729 -11.910  0.00  0.00    +0.002 C 
ATOM     14  C   UNL     1      35.780 -24.146 -10.469  0.00  0.00    +0.000 C 
ATOM     15  C   UNL     1      37.415 -22.980 -11.959  0.00  0.00    +0.000 C 
ENDBRANCH  12  13
ENDBRANCH   1  12
TORSDOF 6
ENDMDL
MODEL 7
REMARK VINA RESULT:      -5.9      3.611      6.208
REMARK  Name = 5288636
REMARK  6 active torsions:
REMARK  status: ('A' for Active; 'I' for Inactive)
REMARK    1  A    between atoms: C_1  and  N_3
REMARK    2  A    between atoms: C_1  and  C_9
REMARK    3  A    between atoms: C_1  and  C_12
REMARK    4  A    between atoms: N_3  and  O_6
REMARK    5  A    between atoms: C_9  and  O_10
REMARK    6  A    between atoms: C_12  and  C_13
REMARK                            x       y       z     vdW  Elec       q    Type
REMARK                         _______ _______ _______ _____ _____    ______ ____
ROOT
ATOM      1  C   UNL     1      33.358 -14.116 -23.023  0.00  0.00    +0.201 C 
ENDROOT
BRANCH   1   3
ATOM      2  O   UNL     1      31.556 -12.280 -21.772  0.00  0.00    -0.273 OA
ATOM      3  N   UNL     1      33.270 -12.696 -23.247  0.00  0.00    -0.163 N 
ATOM      4  C   UNL     1      32.373 -11.882 -22.605  0.00  0.00    +0.248 C 
ATOM      5  C   UNL     1      32.440 -10.419 -22.968  0.00  0.00    +0.097 C 
BRANCH   3   6
ATOM      6  O   UNL     1      34.197 -12.235 -24.193  0.00  0.00    -0.291 OA
ATOM      7  H   UNL     1      33.892 -11.392 -24.561  0.00  0.00    +0.242 HD
ENDBRANCH   3   6
ENDBRANCH   1   3
BRANCH   1   9
ATOM      8  O   UNL     1      32.836 -14.496 -25.370  0.00  0.00    -0.248 OA
ATOM      9  C   UNL     1      33.518 -14.757 -24.387  0.00  0.00    +0.338 C 
BRANCH   9  10
ATOM     10  O   UNL     1      34.504 -15.702 -24.329  0.00  0.00    -0.443 OA
ATOM     11  C   UNL     1      34.288 -16.868 -25.129  0.00  0.00    +0.256 C 
ENDBRANCH   9  10
ENDBRANCH   1   9
BRANCH   1  12
ATOM     12  C   UNL     1      34.537 -14.496 -22.123  0.00  0.00    +0.034 C 
BRANCH  12  13
ATOM     13  C   UNL     1      34.163 -15.349 -20.894  0.00  0.00    +0.002 C 
ATOM     14  C   UNL     1      32.642 -15.503 -20.817  0.00  0.00    +0.000 C 
ATOM     15  C   UNL     1      34.819 -16.730 -20.922  0.00  0.00    +0.000 C 
ENDBRANCH  12  13
ENDBRANCH   1  12
TORSDOF 6
ENDMDL
MODEL 8
REMARK VINA RESULT:      -5.9      3.465      5.465
REMARK  Name = 5288636
REMARK  6 active torsions:
REMARK  status: ('A' for Active; 'I' for Inactive)
REMARK    1  A    between atoms: C_1  and  N_3
REMARK    2  A    between atoms: C_1  and  C_9
REMARK    3  A    between atoms: C_1  and  C_12
REMARK    4  A    between atoms: N_3  and  O_6
REMARK    5  A    between atoms: C_9  and  O_10
REMARK    6  A    between atoms: C_12  and  C_13
REMARK                            x       y       z     vdW  Elec       q    Type
REMARK                         _______ _______ _______ _____ _____    ______ ____
ROOT
ATOM      1  C   UNL     1      33.680 -13.758 -23.092  0.00  0.00    +0.201 C 
ENDROOT
BRANCH   1   3
ATOM      2  O   UNL     1      35.404 -16.035 -23.251  0.00  0.00    -0.273 OA
ATOM      3  N   UNL     1      33.710 -14.755 -24.131  0.00  0.00    -0.163 N 
ATOM      4  C   UNL     1      34.572 -15.821 -24.134  0.00  0.00    +0.248 C 
ATOM      5  C   UNL     1      34.444 -16.764 -25.305  0.00  0.00    +0.097 C 
BRANCH   3   6
ATOM      6  O   UNL     1      32.764 -14.519 -25.140  0.00  0.00    -0.291 OA
ATOM      7  H   UNL     1      32.175 -13.798 -24.869  0.00  0.00    +0.242 HD
ENDBRANCH   3   6
ENDBRANCH   1   3
BRANCH   1   9
ATOM      8  O   UNL     1      34.161 -12.101 -24.809  0.00  0.00    -0.248 OA
ATOM      9  C   UNL     1      33.563 -12.416 -23.788  0.00  0.00    +0.338 C 
BRANCH   9  10
ATOM     10  O   UNL     1      32.730 -11.606 -23.069  0.00  0.00    -0.443 OA
ATOM     11  C   UNL     1      32.855 -10.205 -23.332  0.00  0.00    +0.256 C 
ENDBRANCH   9  10
ENDBRANCH   1   9
BRANCH   1  12
ATOM     12  C   UNL     1      32.508 -13.951 -22.126  0.00  0.00    +0.034 C 
BRANCH  12  13
ATOM     13  C   UNL     1      32.880 -14.618 -20.786  0.00  0.00    +0.002 C 
ATOM     14  C   UNL     1      32.289 -16.029 -20.731  0.00  0.00    +0.000 C 
ATOM     15  C   UNL     1      34.392 -14.685 -20.568  0.00  0.00    +0.000 C 
ENDBRANCH  12  13
ENDBRANCH   1  12
TORSDOF 6
ENDMDL
MODEL 9
REMARK VINA RESULT:      -5.9      9.132     11.544
REMARK  Name = 5288636
REMARK  6 active torsions:
REMARK  status: ('A' for Active; 'I' for Inactive)
REMARK    1  A    between atoms: C_1  and  N_3
REMARK    2  A    between atoms: C_1  and  C_9
REMARK    3  A    between atoms: C_1  and  C_12
REMARK    4  A    between atoms: N_3  and  O_6
REMARK    5  A    between atoms: C_9  and  O_10
REMARK    6  A    between atoms: C_12  and  C_13
REMARK                            x       y       z     vdW  Elec       q    Type
REMARK                         _______ _______ _______ _____ _____    ______ ____
ROOT
ATOM      1  C   UNL     1      36.425 -24.611 -12.660  0.00  0.00    +0.201 C 
ENDROOT
BRANCH   1   3
ATOM      2  O   UNL     1      36.157 -22.961 -14.980  0.00  0.00    -0.273 OA
ATOM      3  N   UNL     1      35.207 -24.276 -13.351  0.00  0.00    -0.163 N 
ATOM      4  C   UNL     1      35.163 -23.473 -14.462  0.00  0.00    +0.248 C 
ATOM      5  C   UNL     1      33.793 -23.245 -15.050  0.00  0.00    +0.097 C 
BRANCH   3   6
ATOM      6  O   UNL     1      34.072 -24.856 -12.767  0.00  0.00    -0.291 OA
ATOM      7  H   UNL     1      33.438 -24.161 -12.530  0.00  0.00    +0.242 HD
ENDBRANCH   3   6
ENDBRANCH   1   3
BRANCH   1   9
ATOM      8  O   UNL     1      35.435 -24.940 -10.460  0.00  0.00    -0.248 OA
ATOM      9  C   UNL     1      36.184 -24.308 -11.194  0.00  0.00    +0.338 C 
BRANCH   9  10
ATOM     10  O   UNL     1      36.892 -23.193 -10.842  0.00  0.00    -0.443 OA
ATOM     11  C   UNL     1      37.784 -22.688 -11.841  0.00  0.00    +0.256 C 
ENDBRANCH   9  10
ENDBRANCH   1   9
BRANCH   1  12
ATOM     12  C   UNL     1      36.814 -26.082 -12.834  0.00  0.00    +0.034 C 
BRANCH  12  13
ATOM     13  C   UNL     1      37.719 -26.371 -14.048  0.00  0.00    +0.002 C 
ATOM     14  C   UNL     1      36.856 -26.705 -15.267  0.00  0.00    +0.000 C 
ATOM     15  C   UNL     1      38.644 -25.199 -14.377  0.00  0.00    +0.000 C 
ENDBRANCH  12  13
ENDBRANCH   1  12
TORSDOF 6
ENDMDL
