MODEL 1
REMARK VINA RESULT:      -7.3      0.000      0.000
REMARK  Name = 2292
REMARK  8 active torsions:
REMARK  status: ('A' for Active; 'I' for Inactive)
REMARK    1  A    between atoms: C_1  and  C_2
REMARK    2  A    between atoms: C_1  and  O_10
REMARK    3  A    between atoms: C_1  and  C_12
REMARK    4  A    between atoms: C_7  and  O_8
REMARK    5  A    between atoms: C_12  and  N_13
REMARK    6  A    between atoms: N_13  and  C_16
REMARK    7  A    between atoms: C_16  and  C_17
REMARK    8  A    between atoms: C_17  and  C_18
REMARK                            x       y       z     vdW  Elec       q    Type
REMARK                         _______ _______ _______ _____ _____    ______ ____
ROOT
ATOM      1  C   UNL     1      36.021 -18.431 -21.620  0.00  0.00    +0.112 C 
ENDROOT
BRANCH   1   2
ATOM      2  C   UNL     1      35.134 -19.444 -20.930  0.00  0.00    +0.002 C 
ATOM      3  C   UNL     1      33.760 -19.294 -20.996  0.00  0.00    +0.001 C 
ATOM      4  C   UNL     1      35.716 -20.499 -20.249  0.00  0.00    +0.001 C 
ATOM      5  C   UNL     1      32.941 -20.227 -20.360  0.00  0.00    +0.036 C 
ATOM      6  C   UNL     1      34.898 -21.433 -19.613  0.00  0.00    +0.036 C 
ATOM      7  C   UNL     1      33.511 -21.297 -19.668  0.00  0.00    +0.134 C 
BRANCH   7   8
ATOM      8  O   UNL     1      32.712 -22.208 -19.048  0.00  0.00    -0.506 OA
ATOM      9  H   UNL     1      32.000 -21.919 -18.512  0.00  0.00    +0.292 HD
ENDBRANCH   7   8
ENDBRANCH   1   2
BRANCH   1  10
ATOM     10  O   UNL     1      37.370 -18.890 -21.537  0.00  0.00    -0.382 OA
ATOM     11  H   UNL     1      37.575 -19.128 -20.620  0.00  0.00    +0.211 HD
ENDBRANCH   1  10
BRANCH   1  12
ATOM     12  C   UNL     1      35.616 -18.234 -23.086  0.00  0.00    -0.047 C 
BRANCH  12  13
ATOM     13  N   UNL     1      35.678 -16.827 -23.455  0.00  0.00    +0.386 N 
ATOM     14  H   UNL     1      35.982 -16.749 -24.425  0.00  0.00    -0.084 HD
ATOM     15  H   UNL     1      36.339 -16.357 -22.836  0.00  0.00    -0.084 HD
BRANCH  13  16
ATOM     16  C   UNL     1      34.373 -16.193 -23.312  0.00  0.00    -0.082 C 
BRANCH  16  17
ATOM     17  C   UNL     1      34.482 -14.946 -22.437  0.00  0.00    -0.023 C 
BRANCH  17  18
ATOM     18  C   UNL     1      34.157 -15.263 -20.977  0.00  0.00    -0.002 C 
ATOM     19  C   UNL     1      32.681 -15.572 -20.788  0.00  0.00    -0.000 C 
ENDBRANCH  17  18
ENDBRANCH  16  17
ENDBRANCH  13  16
ENDBRANCH  12  13
ENDBRANCH   1  12
TORSDOF 8
ENDMDL
MODEL 2
REMARK VINA RESULT:      -7.0      1.201      1.939
REMARK  Name = 2292
REMARK  8 active torsions:
REMARK  status: ('A' for Active; 'I' for Inactive)
REMARK    1  A    between atoms: C_1  and  C_2
REMARK    2  A    between atoms: C_1  and  O_10
REMARK    3  A    between atoms: C_1  and  C_12
REMARK    4  A    between atoms: C_7  and  O_8
REMARK    5  A    between atoms: C_12  and  N_13
REMARK    6  A    between atoms: N_13  and  C_16
REMARK    7  A    between atoms: C_16  and  C_17
REMARK    8  A    between atoms: C_17  and  C_18
REMARK                            x       y       z     vdW  Elec       q    Type
REMARK                         _______ _______ _______ _____ _____    ______ ____
ROOT
ATOM      1  C   UNL     1      35.636 -18.527 -21.843  0.00  0.00    +0.112 C 
ENDROOT
BRANCH   1   2
ATOM      2  C   UNL     1      34.899 -19.558 -21.016  0.00  0.00    +0.002 C 
ATOM      3  C   UNL     1      33.518 -19.510 -20.951  0.00  0.00    +0.001 C 
ATOM      4  C   UNL     1      35.623 -20.527 -20.343  0.00  0.00    +0.001 C 
ATOM      5  C   UNL     1      32.838 -20.460 -20.189  0.00  0.00    +0.036 C 
ATOM      6  C   UNL     1      34.944 -21.478 -19.581  0.00  0.00    +0.036 C 
ATOM      7  C   UNL     1      33.552 -21.444 -19.504  0.00  0.00    +0.134 C 
BRANCH   7   8
ATOM      8  O   UNL     1      32.888 -22.372 -18.761  0.00  0.00    -0.506 OA
ATOM      9  H   UNL     1      33.366 -22.951 -18.201  0.00  0.00    +0.292 HD
ENDBRANCH   7   8
ENDBRANCH   1   2
BRANCH   1  10
ATOM     10  O   UNL     1      37.035 -18.687 -21.612  0.00  0.00    -0.382 OA
ATOM     11  H   UNL     1      37.470 -18.955 -22.435  0.00  0.00    +0.211 HD
ENDBRANCH   1  10
BRANCH   1  12
ATOM     12  C   UNL     1      35.323 -18.676 -23.336  0.00  0.00    -0.047 C 
BRANCH  12  13
ATOM     13  N   UNL     1      35.361 -17.383 -24.005  0.00  0.00    +0.386 N 
ATOM     14  H   UNL     1      34.865 -17.450 -24.892  0.00  0.00    -0.084 HD
ATOM     15  H   UNL     1      36.336 -17.125 -24.160  0.00  0.00    -0.084 HD
BRANCH  13  16
ATOM     16  C   UNL     1      34.733 -16.355 -23.183  0.00  0.00    -0.082 C 
BRANCH  16  17
ATOM     17  C   UNL     1      34.040 -15.319 -24.067  0.00  0.00    -0.023 C 
BRANCH  17  18
ATOM     18  C   UNL     1      33.841 -15.848 -25.488  0.00  0.00    -0.002 C 
ATOM     19  C   UNL     1      32.880 -14.975 -26.279  0.00  0.00    -0.000 C 
ENDBRANCH  17  18
ENDBRANCH  16  17
ENDBRANCH  13  16
ENDBRANCH  12  13
ENDBRANCH   1  12
TORSDOF 8
ENDMDL
MODEL 3
REMARK VINA RESULT:      -6.8      2.647      5.923
REMARK  Name = 2292
REMARK  8 active torsions:
REMARK  status: ('A' for Active; 'I' for Inactive)
REMARK    1  A    between atoms: C_1  and  C_2
REMARK    2  A    between atoms: C_1  and  O_10
REMARK    3  A    between atoms: C_1  and  C_12
REMARK    4  A    between atoms: C_7  and  O_8
REMARK    5  A    between atoms: C_12  and  N_13
REMARK    6  A    between atoms: N_13  and  C_16
REMARK    7  A    between atoms: C_16  and  C_17
REMARK    8  A    between atoms: C_17  and  C_18
REMARK                            x       y       z     vdW  Elec       q    Type
REMARK                         _______ _______ _______ _____ _____    ______ ____
ROOT
ATOM      1  C   UNL     1      35.338 -17.018 -21.564  0.00  0.00    +0.112 C 
ENDROOT
BRANCH   1   2
ATOM      2  C   UNL     1      34.807 -16.615 -22.923  0.00  0.00    +0.002 C 
ATOM      3  C   UNL     1      34.910 -17.503 -23.979  0.00  0.00    +0.001 C 
ATOM      4  C   UNL     1      34.230 -15.367 -23.080  0.00  0.00    +0.001 C 
ATOM      5  C   UNL     1      34.421 -17.134 -25.231  0.00  0.00    +0.036 C 
ATOM      6  C   UNL     1      33.740 -14.996 -24.332  0.00  0.00    +0.036 C 
ATOM      7  C   UNL     1      33.836 -15.879 -25.408  0.00  0.00    +0.134 C 
BRANCH   7   8
ATOM      8  O   UNL     1      33.358 -15.517 -26.630  0.00  0.00    -0.506 OA
ATOM      9  H   UNL     1      33.762 -14.817 -27.103  0.00  0.00    +0.292 HD
ENDBRANCH   7   8
ENDBRANCH   1   2
BRANCH   1  10
ATOM     10  O   UNL     1      34.980 -16.002 -20.627  0.00  0.00    -0.382 OA
ATOM     11  H   UNL     1      35.600 -16.017 -19.882  0.00  0.00    +0.211 HD
ENDBRANCH   1  10
BRANCH   1  12
ATOM     12  C   UNL     1      34.776 -18.373 -21.121  0.00  0.00    -0.047 C 
BRANCH  12  13
ATOM     13  N   UNL     1      35.833 -19.223 -20.589  0.00  0.00    +0.386 N 
ATOM     14  H   UNL     1      36.218 -18.792 -19.749  0.00  0.00    -0.084 HD
ATOM     15  H   UNL     1      36.556 -19.326 -21.301  0.00  0.00    -0.084 HD
BRANCH  13  16
ATOM     16  C   UNL     1      35.317 -20.545 -20.253  0.00  0.00    -0.082 C 
BRANCH  16  17
ATOM     17  C   UNL     1      33.796 -20.572 -20.390  0.00  0.00    -0.023 C 
BRANCH  17  18
ATOM     18  C   UNL     1      33.158 -21.428 -19.295  0.00  0.00    -0.002 C 
ATOM     19  C   UNL     1      33.973 -22.681 -19.020  0.00  0.00    -0.000 C 
ENDBRANCH  17  18
ENDBRANCH  16  17
ENDBRANCH  13  16
ENDBRANCH  12  13
ENDBRANCH   1  12
TORSDOF 8
ENDMDL
MODEL 4
REMARK VINA RESULT:      -6.7      2.677      5.926
REMARK  Name = 2292
REMARK  8 active torsions:
REMARK  status: ('A' for Active; 'I' for Inactive)
REMARK    1  A    between atoms: C_1  and  C_2
REMARK    2  A    between atoms: C_1  and  O_10
REMARK    3  A    between atoms: C_1  and  C_12
REMARK    4  A    between atoms: C_7  and  O_8
REMARK    5  A    between atoms: C_12  and  N_13
REMARK    6  A    between atoms: N_13  and  C_16
REMARK    7  A    between atoms: C_16  and  C_17
REMARK    8  A    between atoms: C_17  and  C_18
REMARK                            x       y       z     vdW  Elec       q    Type
REMARK                         _______ _______ _______ _____ _____    ______ ____
ROOT
ATOM      1  C   UNL     1      35.251 -16.809 -21.539  0.00  0.00    +0.112 C 
ENDROOT
BRANCH   1   2
ATOM      2  C   UNL     1      34.738 -16.447 -22.915  0.00  0.00    +0.002 C 
ATOM      3  C   UNL     1      34.096 -15.236 -23.101  0.00  0.00    +0.001 C 
ATOM      4  C   UNL     1      34.922 -17.337 -23.960  0.00  0.00    +0.001 C 
ATOM      5  C   UNL     1      33.623 -14.901 -24.369  0.00  0.00    +0.036 C 
ATOM      6  C   UNL     1      34.449 -17.003 -25.229  0.00  0.00    +0.036 C 
ATOM      7  C   UNL     1      33.799 -15.786 -25.434  0.00  0.00    +0.134 C 
BRANCH   7   8
ATOM      8  O   UNL     1      33.338 -15.460 -26.672  0.00  0.00    -0.506 OA
ATOM      9  H   UNL     1      32.828 -14.684 -26.792  0.00  0.00    +0.292 HD
ENDBRANCH   7   8
ENDBRANCH   1   2
BRANCH   1  10
ATOM     10  O   UNL     1      34.855 -15.782 -20.631  0.00  0.00    -0.382 OA
ATOM     11  H   UNL     1      34.122 -15.277 -21.014  0.00  0.00    +0.211 HD
ENDBRANCH   1  10
BRANCH   1  12
ATOM     12  C   UNL     1      34.708 -18.166 -21.076  0.00  0.00    -0.047 C 
BRANCH  12  13
ATOM     13  N   UNL     1      35.789 -19.025 -20.611  0.00  0.00    +0.386 N 
ATOM     14  H   UNL     1      35.980 -18.821 -19.631  0.00  0.00    -0.084 HD
ATOM     15  H   UNL     1      36.616 -18.844 -21.181  0.00  0.00    -0.084 HD
BRANCH  13  16
ATOM     16  C   UNL     1      35.429 -20.431 -20.745  0.00  0.00    -0.082 C 
BRANCH  16  17
ATOM     17  C   UNL     1      35.997 -21.238 -19.579  0.00  0.00    -0.023 C 
BRANCH  17  18
ATOM     18  C   UNL     1      34.898 -22.021 -18.860  0.00  0.00    -0.002 C 
ATOM     19  C   UNL     1      33.522 -21.686 -19.412  0.00  0.00    -0.000 C 
ENDBRANCH  17  18
ENDBRANCH  16  17
ENDBRANCH  13  16
ENDBRANCH  12  13
ENDBRANCH   1  12
TORSDOF 8
ENDMDL
MODEL 5
REMARK VINA RESULT:      -6.7      2.941      6.007
REMARK  Name = 2292
REMARK  8 active torsions:
REMARK  status: ('A' for Active; 'I' for Inactive)
REMARK    1  A    between atoms: C_1  and  C_2
REMARK    2  A    between atoms: C_1  and  O_10
REMARK    3  A    between atoms: C_1  and  C_12
REMARK    4  A    between atoms: C_7  and  O_8
REMARK    5  A    between atoms: C_12  and  N_13
REMARK    6  A    between atoms: N_13  and  C_16
REMARK    7  A    between atoms: C_16  and  C_17
REMARK    8  A    between atoms: C_17  and  C_18
REMARK                            x       y       z     vdW  Elec       q    Type
REMARK                         _______ _______ _______ _____ _____    ______ ____
ROOT
ATOM      1  C   UNL     1      34.647 -16.710 -22.404  0.00  0.00    +0.112 C 
ENDROOT
BRANCH   1   2
ATOM      2  C   UNL     1      33.777 -15.476 -22.313  0.00  0.00    +0.002 C 
ATOM      3  C   UNL     1      33.463 -14.783 -23.469  0.00  0.00    +0.001 C 
ATOM      4  C   UNL     1      33.312 -15.067 -21.075  0.00  0.00    +0.001 C 
ATOM      5  C   UNL     1      32.660 -13.646 -23.386  0.00  0.00    +0.036 C 
ATOM      6  C   UNL     1      32.509 -13.930 -20.990  0.00  0.00    +0.036 C 
ATOM      7  C   UNL     1      32.184 -13.219 -22.146  0.00  0.00    +0.134 C 
BRANCH   7   8
ATOM      8  O   UNL     1      31.400 -12.109 -22.064  0.00  0.00    -0.506 OA
ATOM      9  H   UNL     1      30.804 -11.905 -22.758  0.00  0.00    +0.292 HD
ENDBRANCH   7   8
ENDBRANCH   1   2
BRANCH   1  10
ATOM     10  O   UNL     1      35.726 -16.430 -23.296  0.00  0.00    -0.382 OA
ATOM     11  H   UNL     1      36.556 -16.751 -22.910  0.00  0.00    +0.211 HD
ENDBRANCH   1  10
BRANCH   1  12
ATOM     12  C   UNL     1      35.187 -17.119 -21.028  0.00  0.00    -0.047 C 
BRANCH  12  13
ATOM     13  N   UNL     1      35.202 -18.568 -20.888  0.00  0.00    +0.386 N 
ATOM     14  H   UNL     1      35.187 -18.809 -19.898  0.00  0.00    -0.084 HD
ATOM     15  H   UNL     1      36.048 -18.930 -21.330  0.00  0.00    -0.084 HD
BRANCH  13  16
ATOM     16  C   UNL     1      34.044 -19.166 -21.542  0.00  0.00    -0.082 C 
BRANCH  16  17
ATOM     17  C   UNL     1      33.304 -20.088 -20.575  0.00  0.00    -0.023 C 
BRANCH  17  18
ATOM     18  C   UNL     1      34.274 -21.018 -19.846  0.00  0.00    -0.002 C 
ATOM     19  C   UNL     1      33.537 -22.088 -19.058  0.00  0.00    -0.000 C 
ENDBRANCH  17  18
ENDBRANCH  16  17
ENDBRANCH  13  16
ENDBRANCH  12  13
ENDBRANCH   1  12
TORSDOF 8
ENDMDL
MODEL 6
REMARK VINA RESULT:      -6.6      1.438      1.629
REMARK  Name = 2292
REMARK  8 active torsions:
REMARK  status: ('A' for Active; 'I' for Inactive)
REMARK    1  A    between atoms: C_1  and  C_2
REMARK    2  A    between atoms: C_1  and  O_10
REMARK    3  A    between atoms: C_1  and  C_12
REMARK    4  A    between atoms: C_7  and  O_8
REMARK    5  A    between atoms: C_12  and  N_13
REMARK    6  A    between atoms: N_13  and  C_16
REMARK    7  A    between atoms: C_16  and  C_17
REMARK    8  A    between atoms: C_17  and  C_18
REMARK                            x       y       z     vdW  Elec       q    Type
REMARK                         _______ _______ _______ _____ _____    ______ ____
ROOT
ATOM      1  C   UNL     1      35.639 -17.984 -21.773  0.00  0.00    +0.112 C 
ENDROOT
BRANCH   1   2
ATOM      2  C   UNL     1      34.940 -19.136 -21.086  0.00  0.00    +0.002 C 
ATOM      3  C   UNL     1      33.557 -19.172 -21.066  0.00  0.00    +0.001 C 
ATOM      4  C   UNL     1      35.699 -20.130 -20.492  0.00  0.00    +0.001 C 
ATOM      5  C   UNL     1      32.911 -20.234 -20.433  0.00  0.00    +0.036 C 
ATOM      6  C   UNL     1      35.054 -21.192 -19.858  0.00  0.00    +0.036 C 
ATOM      7  C   UNL     1      33.660 -21.244 -19.828  0.00  0.00    +0.134 C 
BRANCH   7   8
ATOM      8  O   UNL     1      33.030 -22.281 -19.210  0.00  0.00    -0.506 OA
ATOM      9  H   UNL     1      33.335 -23.157 -19.338  0.00  0.00    +0.292 HD
ENDBRANCH   7   8
ENDBRANCH   1   2
BRANCH   1  10
ATOM     10  O   UNL     1      36.282 -18.487 -22.944  0.00  0.00    -0.382 OA
ATOM     11  H   UNL     1      36.119 -19.440 -23.018  0.00  0.00    +0.211 HD
ENDBRANCH   1  10
BRANCH   1  12
ATOM     12  C   UNL     1      34.654 -16.870 -22.144  0.00  0.00    -0.047 C 
BRANCH  12  13
ATOM     13  N   UNL     1      34.713 -15.784 -21.176  0.00  0.00    +0.386 N 
ATOM     14  H   UNL     1      35.653 -15.733 -20.786  0.00  0.00    -0.084 HD
ATOM     15  H   UNL     1      34.030 -15.966 -20.440  0.00  0.00    -0.084 HD
BRANCH  13  16
ATOM     16  C   UNL     1      34.389 -14.509 -21.806  0.00  0.00    -0.082 C 
BRANCH  16  17
ATOM     17  C   UNL     1      33.159 -14.655 -22.700  0.00  0.00    -0.023 C 
BRANCH  17  18
ATOM     18  C   UNL     1      32.291 -13.397 -22.657  0.00  0.00    -0.002 C 
ATOM     19  C   UNL     1      32.105 -12.895 -21.235  0.00  0.00    -0.000 C 
ENDBRANCH  17  18
ENDBRANCH  16  17
ENDBRANCH  13  16
ENDBRANCH  12  13
ENDBRANCH   1  12
TORSDOF 8
ENDMDL
MODEL 7
REMARK VINA RESULT:      -6.6      4.037      6.972
REMARK  Name = 2292
REMARK  8 active torsions:
REMARK  status: ('A' for Active; 'I' for Inactive)
REMARK    1  A    between atoms: C_1  and  C_2
REMARK    2  A    between atoms: C_1  and  O_10
REMARK    3  A    between atoms: C_1  and  C_12
REMARK    4  A    between atoms: C_7  and  O_8
REMARK    5  A    between atoms: C_12  and  N_13
REMARK    6  A    between atoms: N_13  and  C_16
REMARK    7  A    between atoms: C_16  and  C_17
REMARK    8  A    between atoms: C_17  and  C_18
REMARK                            x       y       z     vdW  Elec       q    Type
REMARK                         _______ _______ _______ _____ _____    ______ ____
ROOT
ATOM      1  C   UNL     1      33.645 -22.821 -18.647  0.00  0.00    +0.112 C 
ENDROOT
BRANCH   1   2
ATOM      2  C   UNL     1      34.214 -21.667 -19.443  0.00  0.00    +0.002 C 
ATOM      3  C   UNL     1      33.350 -20.782 -20.061  0.00  0.00    +0.001 C 
ATOM      4  C   UNL     1      35.588 -21.522 -19.535  0.00  0.00    +0.001 C 
ATOM      5  C   UNL     1      33.873 -19.718 -20.795  0.00  0.00    +0.036 C 
ATOM      6  C   UNL     1      36.113 -20.458 -20.269  0.00  0.00    +0.036 C 
ATOM      7  C   UNL     1      35.255 -19.557 -20.899  0.00  0.00    +0.134 C 
BRANCH   7   8
ATOM      8  O   UNL     1      35.767 -18.518 -21.615  0.00  0.00    -0.506 OA
ATOM      9  H   UNL     1      36.648 -18.237 -21.468  0.00  0.00    +0.292 HD
ENDBRANCH   7   8
ENDBRANCH   1   2
BRANCH   1  10
ATOM     10  O   UNL     1      33.905 -24.028 -19.363  0.00  0.00    -0.382 OA
ATOM     11  H   UNL     1      33.904 -23.846 -20.315  0.00  0.00    +0.211 HD
ENDBRANCH   1  10
BRANCH   1  12
ATOM     12  C   UNL     1      34.260 -22.892 -17.244  0.00  0.00    -0.047 C 
BRANCH  12  13
ATOM     13  N   UNL     1      33.353 -23.552 -16.314  0.00  0.00    +0.386 N 
ATOM     14  H   UNL     1      33.634 -23.332 -15.360  0.00  0.00    -0.084 HD
ATOM     15  H   UNL     1      33.395 -24.558 -16.477  0.00  0.00    -0.084 HD
BRANCH  13  16
ATOM     16  C   UNL     1      31.980 -23.104 -16.522  0.00  0.00    -0.082 C 
BRANCH  16  17
ATOM     17  C   UNL     1      31.040 -23.803 -15.542  0.00  0.00    -0.023 C 
BRANCH  17  18
ATOM     18  C   UNL     1      30.126 -22.799 -14.840  0.00  0.00    -0.002 C 
ATOM     19  C   UNL     1      28.837 -22.580 -15.616  0.00  0.00    -0.000 C 
ENDBRANCH  17  18
ENDBRANCH  16  17
ENDBRANCH  13  16
ENDBRANCH  12  13
ENDBRANCH   1  12
TORSDOF 8
ENDMDL
MODEL 8
REMARK VINA RESULT:      -6.6      2.255      3.420
REMARK  Name = 2292
REMARK  8 active torsions:
REMARK  status: ('A' for Active; 'I' for Inactive)
REMARK    1  A    between atoms: C_1  and  C_2
REMARK    2  A    between atoms: C_1  and  O_10
REMARK    3  A    between atoms: C_1  and  C_12
REMARK    4  A    between atoms: C_7  and  O_8
REMARK    5  A    between atoms: C_12  and  N_13
REMARK    6  A    between atoms: N_13  and  C_16
REMARK    7  A    between atoms: C_16  and  C_17
REMARK    8  A    between atoms: C_17  and  C_18
REMARK                            x       y       z     vdW  Elec       q    Type
REMARK                         _______ _______ _______ _____ _____    ______ ____
ROOT
ATOM      1  C   UNL     1      34.801 -16.206 -24.589  0.00  0.00    +0.112 C 
ENDROOT
BRANCH   1   2
ATOM      2  C   UNL     1      34.916 -17.200 -23.454  0.00  0.00    +0.002 C 
ATOM      3  C   UNL     1      34.698 -18.543 -23.707  0.00  0.00    +0.001 C 
ATOM      4  C   UNL     1      35.237 -16.744 -22.187  0.00  0.00    +0.001 C 
ATOM      5  C   UNL     1      34.804 -19.460 -22.661  0.00  0.00    +0.036 C 
ATOM      6  C   UNL     1      35.343 -17.660 -21.140  0.00  0.00    +0.036 C 
ATOM      7  C   UNL     1      35.126 -19.018 -21.377  0.00  0.00    +0.134 C 
BRANCH   7   8
ATOM      8  O   UNL     1      35.229 -19.912 -20.356  0.00  0.00    -0.506 OA
ATOM      9  H   UNL     1      36.065 -20.272 -20.132  0.00  0.00    +0.292 HD
ENDBRANCH   7   8
ENDBRANCH   1   2
BRANCH   1  10
ATOM     10  O   UNL     1      34.853 -16.927 -25.820  0.00  0.00    -0.382 OA
ATOM     11  H   UNL     1      34.321 -16.466 -26.487  0.00  0.00    +0.211 HD
ENDBRANCH   1  10
BRANCH   1  12
ATOM     12  C   UNL     1      33.501 -15.399 -24.500  0.00  0.00    -0.047 C 
BRANCH  12  13
ATOM     13  N   UNL     1      33.781 -13.972 -24.432  0.00  0.00    +0.386 N 
ATOM     14  H   UNL     1      33.024 -13.460 -24.884  0.00  0.00    -0.084 HD
ATOM     15  H   UNL     1      34.666 -13.791 -24.905  0.00  0.00    -0.084 HD
BRANCH  13  16
ATOM     16  C   UNL     1      33.894 -13.530 -23.047  0.00  0.00    -0.082 C 
BRANCH  16  17
ATOM     17  C   UNL     1      32.562 -13.709 -22.321  0.00  0.00    -0.023 C 
BRANCH  17  18
ATOM     18  C   UNL     1      32.775 -14.132 -20.868  0.00  0.00    -0.002 C 
ATOM     19  C   UNL     1      32.312 -15.560 -20.629  0.00  0.00    -0.000 C 
ENDBRANCH  17  18
ENDBRANCH  16  17
ENDBRANCH  13  16
ENDBRANCH  12  13
ENDBRANCH   1  12
TORSDOF 8
ENDMDL
MODEL 9
REMARK VINA RESULT:      -6.5      6.136      8.975
REMARK  Name = 2292
REMARK  8 active torsions:
REMARK  status: ('A' for Active; 'I' for Inactive)
REMARK    1  A    between atoms: C_1  and  C_2
REMARK    2  A    between atoms: C_1  and  O_10
REMARK    3  A    between atoms: C_1  and  C_12
REMARK    4  A    between atoms: C_7  and  O_8
REMARK    5  A    between atoms: C_12  and  N_13
REMARK    6  A    between atoms: N_13  and  C_16
REMARK    7  A    between atoms: C_16  and  C_17
REMARK    8  A    between atoms: C_17  and  C_18
REMARK                            x       y       z     vdW  Elec       q    Type
REMARK                         _______ _______ _______ _____ _____    ______ ____
ROOT
ATOM      1  C   UNL     1      31.263 -23.975 -13.751  0.00  0.00    +0.112 C 
ENDROOT
BRANCH   1   2
ATOM      2  C   UNL     1      30.221 -23.814 -14.835  0.00  0.00    +0.002 C 
ATOM      3  C   UNL     1      29.773 -22.545 -15.160  0.00  0.00    +0.001 C 
ATOM      4  C   UNL     1      29.737 -24.939 -15.480  0.00  0.00    +0.001 C 
ATOM      5  C   UNL     1      28.813 -22.396 -16.160  0.00  0.00    +0.036 C 
ATOM      6  C   UNL     1      28.776 -24.791 -16.480  0.00  0.00    +0.036 C 
ATOM      7  C   UNL     1      28.313 -23.519 -16.820  0.00  0.00    +0.134 C 
BRANCH   7   8
ATOM      8  O   UNL     1      27.376 -23.373 -17.796  0.00  0.00    -0.506 OA
ATOM      9  H   UNL     1      27.051 -24.126 -18.248  0.00  0.00    +0.292 HD
ENDBRANCH   7   8
ENDBRANCH   1   2
BRANCH   1  10
ATOM     10  O   UNL     1      30.838 -25.020 -12.876  0.00  0.00    -0.382 OA
ATOM     11  H   UNL     1      30.451 -25.740 -13.396  0.00  0.00    +0.211 HD
ENDBRANCH   1  10
BRANCH   1  12
ATOM     12  C   UNL     1      32.640 -24.303 -14.340  0.00  0.00    -0.047 C 
BRANCH  12  13
ATOM     13  N   UNL     1      33.327 -23.088 -14.755  0.00  0.00    +0.386 N 
ATOM     14  H   UNL     1      34.010 -22.829 -14.044  0.00  0.00    -0.084 HD
ATOM     15  H   UNL     1      32.636 -22.347 -14.872  0.00  0.00    -0.084 HD
BRANCH  13  16
ATOM     16  C   UNL     1      34.014 -23.288 -16.026  0.00  0.00    -0.082 C 
BRANCH  16  17
ATOM     17  C   UNL     1      33.035 -23.134 -17.189  0.00  0.00    -0.023 C 
BRANCH  17  18
ATOM     18  C   UNL     1      33.775 -22.992 -18.519  0.00  0.00    -0.002 C 
ATOM     19  C   UNL     1      33.425 -21.688 -19.217  0.00  0.00    -0.000 C 
ENDBRANCH  17  18
ENDBRANCH  16  17
ENDBRANCH  13  16
ENDBRANCH  12  13
ENDBRANCH   1  12
TORSDOF 8
ENDMDL
