MODEL 1
REMARK VINA RESULT:      -5.5      0.000      0.000
REMARK  Name = 445999
REMARK  6 active torsions:
REMARK  status: ('A' for Active; 'I' for Inactive)
REMARK    1  A    between atoms: C_2  and  S_7
REMARK    2  A    between atoms: C_3  and  O_11
REMARK    3  A    between atoms: C_4  and  C_15
REMARK    4  A    between atoms: C_5  and  O_13
REMARK    5  A    between atoms: C_6  and  S_9
REMARK    6  A    between atoms: C_15  and  O_16
REMARK                            x       y       z     vdW  Elec       q    Type
REMARK                         _______ _______ _______ _____ _____    ______ ____
ROOT
ATOM      1  O   UNL     1      34.002 -15.016 -22.241  0.00  0.00    -0.342 OA
ATOM      2  C   UNL     1      34.874 -16.904 -23.490  0.00  0.00    +0.103 C 
ATOM      3  C   UNL     1      34.080 -16.449 -24.724  0.00  0.00    +0.153 C 
ATOM      4  C   UNL     1      34.185 -16.437 -22.197  0.00  0.00    +0.157 C 
ATOM      5  C   UNL     1      33.746 -14.954 -24.652  0.00  0.00    +0.175 C 
ATOM      6  C   UNL     1      33.137 -14.597 -23.295  0.00  0.00    +0.188 C 
ENDROOT
BRANCH   2   7
ATOM      7  S   UNL     1      35.070 -18.726 -23.541  0.00  0.00    -0.164 S 
ATOM      8  H   UNL     1      33.843 -19.312 -23.572  0.00  0.00    +0.102 HD
ENDBRANCH   2   7
BRANCH   6   9
ATOM      9  S   UNL     1      32.856 -12.792 -23.179  0.00  0.00    -0.137 S 
ATOM     10  H   UNL     1      33.979 -12.188 -22.705  0.00  0.00    +0.105 HD
ENDBRANCH   6   9
BRANCH   3  11
ATOM     11  O   UNL     1      34.853 -16.658 -25.908  0.00  0.00    -0.381 OA
ATOM     12  H   UNL     1      35.788 -16.486 -25.718  0.00  0.00    +0.210 HD
ENDBRANCH   3  11
BRANCH   5  13
ATOM     13  O   UNL     1      32.812 -14.650 -25.689  0.00  0.00    -0.379 OA
ATOM     14  H   UNL     1      33.293 -14.419 -26.500  0.00  0.00    +0.211 HD
ENDBRANCH   5  13
BRANCH   4  15
ATOM     15  C   UNL     1      34.999 -16.716 -20.936  0.00  0.00    +0.168 C 
BRANCH  15  16
ATOM     16  O   UNL     1      34.924 -15.583 -20.091  0.00  0.00    -0.379 OA
ATOM     17  H   UNL     1      34.143 -15.056 -20.325  0.00  0.00    +0.211 HD
ENDBRANCH  15  16
ENDBRANCH   4  15
TORSDOF 6
ENDMDL
MODEL 2
REMARK VINA RESULT:      -5.4     11.500     12.917
REMARK  Name = 445999
REMARK  6 active torsions:
REMARK  status: ('A' for Active; 'I' for Inactive)
REMARK    1  A    between atoms: C_2  and  S_7
REMARK    2  A    between atoms: C_3  and  O_11
REMARK    3  A    between atoms: C_4  and  C_15
REMARK    4  A    between atoms: C_5  and  O_13
REMARK    5  A    between atoms: C_6  and  S_9
REMARK    6  A    between atoms: C_15  and  O_16
REMARK                            x       y       z     vdW  Elec       q    Type
REMARK                         _______ _______ _______ _____ _____    ______ ____
ROOT
ATOM      1  O   UNL     1      34.372 -23.884 -12.854  0.00  0.00    -0.342 OA
ATOM      2  C   UNL     1      36.684 -24.101 -13.556  0.00  0.00    +0.103 C 
ATOM      3  C   UNL     1      36.220 -24.299 -15.007  0.00  0.00    +0.153 C 
ATOM      4  C   UNL     1      35.600 -24.568 -12.570  0.00  0.00    +0.157 C 
ATOM      5  C   UNL     1      34.821 -23.712 -15.231  0.00  0.00    +0.175 C 
ATOM      6  C   UNL     1      33.852 -24.186 -14.147  0.00  0.00    +0.188 C 
ENDROOT
BRANCH   2   7
ATOM      7  S   UNL     1      38.266 -24.992 -13.306  0.00  0.00    -0.164 S 
ATOM      8  H   UNL     1      38.105 -25.938 -12.343  0.00  0.00    +0.102 HD
ENDBRANCH   2   7
BRANCH   6   9
ATOM      9  S   UNL     1      32.220 -23.383 -14.357  0.00  0.00    -0.137 S 
ATOM     10  H   UNL     1      32.092 -22.945 -15.639  0.00  0.00    +0.105 HD
ENDBRANCH   6   9
BRANCH   3  11
ATOM     11  O   UNL     1      37.112 -23.631 -15.902  0.00  0.00    -0.381 OA
ATOM     12  H   UNL     1      36.613 -23.290 -16.661  0.00  0.00    +0.210 HD
ENDBRANCH   3  11
BRANCH   5  13
ATOM     13  O   UNL     1      34.352 -24.137 -16.511  0.00  0.00    -0.379 OA
ATOM     14  H   UNL     1      34.451 -23.413 -17.149  0.00  0.00    +0.211 HD
ENDBRANCH   5  13
BRANCH   4  15
ATOM     15  C   UNL     1      35.926 -24.255 -11.111  0.00  0.00    +0.168 C 
BRANCH  15  16
ATOM     16  O   UNL     1      35.217 -25.162 -10.288  0.00  0.00    -0.379 OA
ATOM     17  H   UNL     1      34.445 -24.715  -9.904  0.00  0.00    +0.211 HD
ENDBRANCH  15  16
ENDBRANCH   4  15
TORSDOF 6
ENDMDL
MODEL 3
REMARK VINA RESULT:      -5.4     10.120     12.275
REMARK  Name = 445999
REMARK  6 active torsions:
REMARK  status: ('A' for Active; 'I' for Inactive)
REMARK    1  A    between atoms: C_2  and  S_7
REMARK    2  A    between atoms: C_3  and  O_11
REMARK    3  A    between atoms: C_4  and  C_15
REMARK    4  A    between atoms: C_5  and  O_13
REMARK    5  A    between atoms: C_6  and  S_9
REMARK    6  A    between atoms: C_15  and  O_16
REMARK                            x       y       z     vdW  Elec       q    Type
REMARK                         _______ _______ _______ _____ _____    ______ ____
ROOT
ATOM      1  O   UNL     1      31.408 -23.861 -16.276  0.00  0.00    -0.342 OA
ATOM      2  C   UNL     1      33.539 -23.938 -15.119  0.00  0.00    +0.103 C 
ATOM      3  C   UNL     1      32.801 -24.071 -13.778  0.00  0.00    +0.153 C 
ATOM      4  C   UNL     1      32.670 -23.194 -16.147  0.00  0.00    +0.157 C 
ATOM      5  C   UNL     1      31.383 -24.623 -13.974  0.00  0.00    +0.175 C 
ATOM      6  C   UNL     1      30.646 -23.853 -15.071  0.00  0.00    +0.188 C 
ENDROOT
BRANCH   2   7
ATOM      7  S   UNL     1      35.142 -23.096 -14.840  0.00  0.00    -0.164 S 
ATOM      8  H   UNL     1      36.006 -23.954 -14.234  0.00  0.00    +0.102 HD
ENDBRANCH   2   7
BRANCH   6   9
ATOM      9  S   UNL     1      29.002 -24.599 -15.377  0.00  0.00    -0.137 S 
ATOM     10  H   UNL     1      28.818 -25.650 -14.534  0.00  0.00    +0.105 HD
ENDBRANCH   6   9
BRANCH   3  11
ATOM     11  O   UNL     1      33.498 -24.979 -12.923  0.00  0.00    -0.381 OA
ATOM     12  H   UNL     1      34.330 -25.244 -13.343  0.00  0.00    +0.210 HD
ENDBRANCH   3  11
BRANCH   5  13
ATOM     13  O   UNL     1      30.674 -24.493 -12.741  0.00  0.00    -0.379 OA
ATOM     14  H   UNL     1      31.035 -23.747 -12.237  0.00  0.00    +0.211 HD
ENDBRANCH   5  13
BRANCH   4  15
ATOM     15  C   UNL     1      33.274 -23.163 -17.549  0.00  0.00    +0.168 C 
BRANCH  15  16
ATOM     16  O   UNL     1      32.462 -22.346 -18.371  0.00  0.00    -0.379 OA
ATOM     17  H   UNL     1      32.852 -21.460 -18.434  0.00  0.00    +0.211 HD
ENDBRANCH  15  16
ENDBRANCH   4  15
TORSDOF 6
ENDMDL
MODEL 4
REMARK VINA RESULT:      -5.4      9.794     12.331
REMARK  Name = 445999
REMARK  6 active torsions:
REMARK  status: ('A' for Active; 'I' for Inactive)
REMARK    1  A    between atoms: C_2  and  S_7
REMARK    2  A    between atoms: C_3  and  O_11
REMARK    3  A    between atoms: C_4  and  C_15
REMARK    4  A    between atoms: C_5  and  O_13
REMARK    5  A    between atoms: C_6  and  S_9
REMARK    6  A    between atoms: C_15  and  O_16
REMARK                            x       y       z     vdW  Elec       q    Type
REMARK                         _______ _______ _______ _____ _____    ______ ____
ROOT
ATOM      1  O   UNL     1      35.254 -23.793 -16.099  0.00  0.00    -0.342 OA
ATOM      2  C   UNL     1      33.067 -23.193 -15.237  0.00  0.00    +0.103 C 
ATOM      3  C   UNL     1      33.360 -23.986 -13.955  0.00  0.00    +0.153 C 
ATOM      4  C   UNL     1      33.858 -23.767 -16.425  0.00  0.00    +0.157 C 
ATOM      5  C   UNL     1      34.869 -24.149 -13.731  0.00  0.00    +0.175 C 
ATOM      6  C   UNL     1      35.556 -24.652 -15.003  0.00  0.00    +0.188 C 
ENDROOT
BRANCH   2   7
ATOM      7  S   UNL     1      31.261 -23.203 -15.549  0.00  0.00    -0.164 S 
ATOM      8  H   UNL     1      30.598 -23.319 -14.367  0.00  0.00    +0.102 HD
ENDBRANCH   2   7
BRANCH   6   9
ATOM      9  S   UNL     1      37.369 -24.726 -14.759  0.00  0.00    -0.137 S 
ATOM     10  H   UNL     1      37.691 -24.133 -13.577  0.00  0.00    +0.105 HD
ENDBRANCH   6   9
BRANCH   3  11
ATOM     11  O   UNL     1      32.833 -23.295 -12.820  0.00  0.00    -0.381 OA
ATOM     12  H   UNL     1      32.174 -22.647 -13.114  0.00  0.00    +0.210 HD
ENDBRANCH   3  11
BRANCH   5  13
ATOM     13  O   UNL     1      35.070 -25.088 -12.675  0.00  0.00    -0.379 OA
ATOM     14  H   UNL     1      34.216 -25.306 -12.269  0.00  0.00    +0.211 HD
ENDBRANCH   5  13
BRANCH   4  15
ATOM     15  C   UNL     1      33.739 -22.934 -17.698  0.00  0.00    +0.168 C 
BRANCH  15  16
ATOM     16  O   UNL     1      33.780 -23.805 -18.812  0.00  0.00    -0.379 OA
ATOM     17  H   UNL     1      33.889 -24.719 -18.505  0.00  0.00    +0.211 HD
ENDBRANCH  15  16
ENDBRANCH   4  15
TORSDOF 6
ENDMDL
MODEL 5
REMARK VINA RESULT:      -5.4      0.939      3.275
REMARK  Name = 445999
REMARK  6 active torsions:
REMARK  status: ('A' for Active; 'I' for Inactive)
REMARK    1  A    between atoms: C_2  and  S_7
REMARK    2  A    between atoms: C_3  and  O_11
REMARK    3  A    between atoms: C_4  and  C_15
REMARK    4  A    between atoms: C_5  and  O_13
REMARK    5  A    between atoms: C_6  and  S_9
REMARK    6  A    between atoms: C_15  and  O_16
REMARK                            x       y       z     vdW  Elec       q    Type
REMARK                         _______ _______ _______ _____ _____    ______ ____
ROOT
ATOM      1  O   UNL     1      34.531 -16.477 -22.362  0.00  0.00    -0.342 OA
ATOM      2  C   UNL     1      33.472 -14.576 -23.433  0.00  0.00    +0.103 C 
ATOM      3  C   UNL     1      33.874 -15.132 -24.807  0.00  0.00    +0.153 C 
ATOM      4  C   UNL     1      34.455 -15.045 -22.348  0.00  0.00    +0.157 C 
ATOM      5  C   UNL     1      34.123 -16.644 -24.746  0.00  0.00    +0.175 C 
ATOM      6  C   UNL     1      35.052 -16.996 -23.583  0.00  0.00    +0.188 C 
ENDROOT
BRANCH   2   7
ATOM      7  S   UNL     1      33.381 -12.748 -23.529  0.00  0.00    -0.164 S 
ATOM      8  H   UNL     1      34.081 -12.316 -24.612  0.00  0.00    +0.102 HD
ENDBRANCH   2   7
BRANCH   6   9
ATOM      9  S   UNL     1      35.244 -18.812 -23.449  0.00  0.00    -0.137 S 
ATOM     10  H   UNL     1      34.052 -19.368 -23.103  0.00  0.00    +0.105 HD
ENDBRANCH   6   9
BRANCH   3  11
ATOM     11  O   UNL     1      32.824 -14.910 -25.752  0.00  0.00    -0.381 OA
ATOM     12  H   UNL     1      32.236 -15.681 -25.767  0.00  0.00    +0.210 HD
ENDBRANCH   3  11
BRANCH   5  13
ATOM     13  O   UNL     1      34.722 -17.053 -25.977  0.00  0.00    -0.379 OA
ATOM     14  H   UNL     1      35.340 -17.782 -25.809  0.00  0.00    +0.211 HD
ENDBRANCH   5  13
BRANCH   4  15
ATOM     15  C   UNL     1      34.030 -14.662 -20.932  0.00  0.00    +0.168 C 
BRANCH  15  16
ATOM     16  O   UNL     1      34.833 -15.377 -20.012  0.00  0.00    -0.379 OA
ATOM     17  H   UNL     1      35.730 -15.472 -20.370  0.00  0.00    +0.211 HD
ENDBRANCH  15  16
ENDBRANCH   4  15
TORSDOF 6
ENDMDL
MODEL 6
REMARK VINA RESULT:      -5.3     10.856     12.679
REMARK  Name = 445999
REMARK  6 active torsions:
REMARK  status: ('A' for Active; 'I' for Inactive)
REMARK    1  A    between atoms: C_2  and  S_7
REMARK    2  A    between atoms: C_3  and  O_11
REMARK    3  A    between atoms: C_4  and  C_15
REMARK    4  A    between atoms: C_5  and  O_13
REMARK    5  A    between atoms: C_6  and  S_9
REMARK    6  A    between atoms: C_15  and  O_16
REMARK                            x       y       z     vdW  Elec       q    Type
REMARK                         _______ _______ _______ _____ _____    ______ ____
ROOT
ATOM      1  O   UNL     1      38.239 -23.665 -15.624  0.00  0.00    -0.342 OA
ATOM      2  C   UNL     1      37.181 -25.296 -14.172  0.00  0.00    +0.103 C 
ATOM      3  C   UNL     1      35.963 -24.372 -14.028  0.00  0.00    +0.153 C 
ATOM      4  C   UNL     1      38.452 -24.480 -14.464  0.00  0.00    +0.157 C 
ATOM      5  C   UNL     1      35.866 -23.389 -15.202  0.00  0.00    +0.175 C 
ATOM      6  C   UNL     1      37.209 -22.696 -15.443  0.00  0.00    +0.188 C 
ENDROOT
BRANCH   2   7
ATOM      7  S   UNL     1      37.351 -26.306 -12.652  0.00  0.00    -0.164 S 
ATOM      8  H   UNL     1      37.459 -27.619 -12.990  0.00  0.00    +0.102 HD
ENDBRANCH   2   7
BRANCH   6   9
ATOM      9  S   UNL     1      37.111 -21.618 -16.919  0.00  0.00    -0.137 S 
ATOM     10  H   UNL     1      37.046 -20.317 -16.527  0.00  0.00    +0.105 HD
ENDBRANCH   6   9
BRANCH   3  11
ATOM     11  O   UNL     1      34.761 -25.144 -14.018  0.00  0.00    -0.381 OA
ATOM     12  H   UNL     1      34.807 -25.823 -14.709  0.00  0.00    +0.210 HD
ENDBRANCH   3  11
BRANCH   5  13
ATOM     13  O   UNL     1      34.873 -22.411 -14.891  0.00  0.00    -0.379 OA
ATOM     14  H   UNL     1      34.258 -22.773 -14.233  0.00  0.00    +0.211 HD
ENDBRANCH   5  13
BRANCH   4  15
ATOM     15  C   UNL     1      39.673 -25.342 -14.776  0.00  0.00    +0.168 C 
BRANCH  15  16
ATOM     16  O   UNL     1      40.816 -24.722 -14.216  0.00  0.00    -0.379 OA
ATOM     17  H   UNL     1      41.517 -25.382 -14.097  0.00  0.00    +0.211 HD
ENDBRANCH  15  16
ENDBRANCH   4  15
TORSDOF 6
ENDMDL
MODEL 7
REMARK VINA RESULT:      -5.3      1.886      3.545
REMARK  Name = 445999
REMARK  6 active torsions:
REMARK  status: ('A' for Active; 'I' for Inactive)
REMARK    1  A    between atoms: C_2  and  S_7
REMARK    2  A    between atoms: C_3  and  O_11
REMARK    3  A    between atoms: C_4  and  C_15
REMARK    4  A    between atoms: C_5  and  O_13
REMARK    5  A    between atoms: C_6  and  S_9
REMARK    6  A    between atoms: C_15  and  O_16
REMARK                            x       y       z     vdW  Elec       q    Type
REMARK                         _______ _______ _______ _____ _____    ______ ____
ROOT
ATOM      1  O   UNL     1      33.815 -14.928 -22.453  0.00  0.00    -0.342 OA
ATOM      2  C   UNL     1      33.258 -14.959 -24.814  0.00  0.00    +0.103 C 
ATOM      3  C   UNL     1      34.228 -16.132 -25.022  0.00  0.00    +0.153 C 
ATOM      4  C   UNL     1      33.695 -14.099 -23.616  0.00  0.00    +0.157 C 
ATOM      5  C   UNL     1      34.474 -16.892 -23.713  0.00  0.00    +0.175 C 
ATOM      6  C   UNL     1      34.825 -15.926 -22.580  0.00  0.00    +0.188 C 
ENDROOT
BRANCH   2   7
ATOM      7  S   UNL     1      33.160 -13.980 -26.360  0.00  0.00    -0.164 S 
ATOM      8  H   UNL     1      32.031 -13.222 -26.345  0.00  0.00    +0.102 HD
ENDBRANCH   2   7
BRANCH   6   9
ATOM      9  S   UNL     1      34.997 -16.834 -21.000  0.00  0.00    -0.137 S 
ATOM     10  H   UNL     1      34.278 -17.987 -21.060  0.00  0.00    +0.105 HD
ENDBRANCH   6   9
BRANCH   3  11
ATOM     11  O   UNL     1      33.679 -17.061 -25.959  0.00  0.00    -0.381 OA
ATOM     12  H   UNL     1      33.574 -16.628 -26.820  0.00  0.00    +0.210 HD
ENDBRANCH   3  11
BRANCH   5  13
ATOM     13  O   UNL     1      35.555 -17.803 -23.916  0.00  0.00    -0.379 OA
ATOM     14  H   UNL     1      36.068 -17.884 -23.097  0.00  0.00    +0.211 HD
ENDBRANCH   5  13
BRANCH   4  15
ATOM     15  C   UNL     1      32.692 -13.006 -23.251  0.00  0.00    +0.168 C 
BRANCH  15  16
ATOM     16  O   UNL     1      31.898 -13.466 -22.173  0.00  0.00    -0.379 OA
ATOM     17  H   UNL     1      32.334 -13.251 -21.334  0.00  0.00    +0.211 HD
ENDBRANCH  15  16
ENDBRANCH   4  15
TORSDOF 6
ENDMDL
MODEL 8
REMARK VINA RESULT:      -5.3      9.696     11.297
REMARK  Name = 445999
REMARK  6 active torsions:
REMARK  status: ('A' for Active; 'I' for Inactive)
REMARK    1  A    between atoms: C_2  and  S_7
REMARK    2  A    between atoms: C_3  and  O_11
REMARK    3  A    between atoms: C_4  and  C_15
REMARK    4  A    between atoms: C_5  and  O_13
REMARK    5  A    between atoms: C_6  and  S_9
REMARK    6  A    between atoms: C_15  and  O_16
REMARK                            x       y       z     vdW  Elec       q    Type
REMARK                         _______ _______ _______ _____ _____    ______ ____
ROOT
ATOM      1  O   UNL     1      31.671 -22.749 -17.076  0.00  0.00    -0.342 OA
ATOM      2  C   UNL     1      31.756 -23.370 -14.732  0.00  0.00    +0.103 C 
ATOM      3  C   UNL     1      33.207 -23.838 -14.913  0.00  0.00    +0.153 C 
ATOM      4  C   UNL     1      30.979 -23.480 -16.055  0.00  0.00    +0.157 C 
ATOM      5  C   UNL     1      33.863 -23.167 -16.127  0.00  0.00    +0.175 C 
ATOM      6  C   UNL     1      32.965 -23.275 -17.360  0.00  0.00    +0.188 C 
ENDROOT
BRANCH   2   7
ATOM      7  S   UNL     1      30.972 -24.348 -13.395  0.00  0.00    -0.164 S 
ATOM      8  H   UNL     1      29.624 -24.182 -13.443  0.00  0.00    +0.102 HD
ENDBRANCH   2   7
BRANCH   6   9
ATOM      9  S   UNL     1      33.704 -22.367 -18.767  0.00  0.00    -0.137 S 
ATOM     10  H   UNL     1      33.343 -21.057 -18.700  0.00  0.00    +0.105 HD
ENDBRANCH   6   9
BRANCH   3  11
ATOM     11  O   UNL     1      33.981 -23.491 -13.763  0.00  0.00    -0.381 OA
ATOM     12  H   UNL     1      34.386 -22.620 -13.897  0.00  0.00    +0.210 HD
ENDBRANCH   3  11
BRANCH   5  13
ATOM     13  O   UNL     1      35.109 -23.816 -16.384  0.00  0.00    -0.379 OA
ATOM     14  H   UNL     1      35.247 -23.883 -17.342  0.00  0.00    +0.211 HD
ENDBRANCH   5  13
BRANCH   4  15
ATOM     15  C   UNL     1      29.575 -22.885 -15.991  0.00  0.00    +0.168 C 
BRANCH  15  16
ATOM     16  O   UNL     1      29.268 -22.319 -17.251  0.00  0.00    -0.379 OA
ATOM     17  H   UNL     1      28.694 -21.546 -17.128  0.00  0.00    +0.211 HD
ENDBRANCH  15  16
ENDBRANCH   4  15
TORSDOF 6
ENDMDL
MODEL 9
REMARK VINA RESULT:      -5.3     11.402     13.028
REMARK  Name = 445999
REMARK  6 active torsions:
REMARK  status: ('A' for Active; 'I' for Inactive)
REMARK    1  A    between atoms: C_2  and  S_7
REMARK    2  A    between atoms: C_3  and  O_11
REMARK    3  A    between atoms: C_4  and  C_15
REMARK    4  A    between atoms: C_5  and  O_13
REMARK    5  A    between atoms: C_6  and  S_9
REMARK    6  A    between atoms: C_15  and  O_16
REMARK                            x       y       z     vdW  Elec       q    Type
REMARK                         _______ _______ _______ _____ _____    ______ ____
ROOT
ATOM      1  O   UNL     1      35.860 -23.899 -15.492  0.00  0.00    -0.342 OA
ATOM      2  C   UNL     1      36.593 -24.545 -13.272  0.00  0.00    +0.103 C 
ATOM      3  C   UNL     1      35.244 -24.086 -12.697  0.00  0.00    +0.153 C 
ATOM      4  C   UNL     1      36.933 -23.764 -14.551  0.00  0.00    +0.157 C 
ATOM      5  C   UNL     1      34.154 -24.072 -13.776  0.00  0.00    +0.175 C 
ATOM      6  C   UNL     1      34.636 -23.333 -15.027  0.00  0.00    +0.188 C 
ENDROOT
BRANCH   2   7
ATOM      7  S   UNL     1      37.887 -24.354 -11.988  0.00  0.00    -0.164 S 
ATOM      8  H   UNL     1      38.143 -23.032 -11.797  0.00  0.00    +0.102 HD
ENDBRANCH   2   7
BRANCH   6   9
ATOM      9  S   UNL     1      33.372 -23.428 -16.348  0.00  0.00    -0.137 S 
ATOM     10  H   UNL     1      33.163 -24.730 -16.682  0.00  0.00    +0.105 HD
ENDBRANCH   6   9
BRANCH   3  11
ATOM     11  O   UNL     1      34.817 -24.985 -11.672  0.00  0.00    -0.381 OA
ATOM     12  H   UNL     1      33.858 -24.905 -11.551  0.00  0.00    +0.210 HD
ENDBRANCH   3  11
BRANCH   5  13
ATOM     13  O   UNL     1      33.003 -23.413 -13.247  0.00  0.00    -0.379 OA
ATOM     14  H   UNL     1      32.247 -23.557 -13.837  0.00  0.00    +0.211 HD
ENDBRANCH   5  13
BRANCH   4  15
ATOM     15  C   UNL     1      38.183 -24.275 -15.265  0.00  0.00    +0.168 C 
BRANCH  15  16
ATOM     16  O   UNL     1      38.093 -25.682 -15.378  0.00  0.00    -0.379 OA
ATOM     17  H   UNL     1      37.457 -26.020 -14.727  0.00  0.00    +0.211 HD
ENDBRANCH  15  16
ENDBRANCH   4  15
TORSDOF 6
ENDMDL
