MODEL 1
REMARK VINA RESULT:     -10.7      0.000      0.000
REMARK  Name = 444406
REMARK  9 active torsions:
REMARK  status: ('A' for Active; 'I' for Inactive)
REMARK    1  A    between atoms: C_1  and  C_2
REMARK    2  A    between atoms: C_1  and  C_14
REMARK    3  A    between atoms: C_1  and  C_28
REMARK    4  A    between atoms: C_5  and  C_10
REMARK    5  A    between atoms: C_14  and  C_15
REMARK    6  A    between atoms: C_15  and  C_16
REMARK    7  A    between atoms: C_21  and  C_24
REMARK    8  A    between atoms: C_28  and  C_30
REMARK    9  A    between atoms: C_30  and  O_31
REMARK                            x       y       z     vdW  Elec       q    Type
REMARK                         _______ _______ _______ _____ _____    ______ ____
ROOT
ATOM      1  C   UNL     1      33.741 -23.341 -16.910  0.00  0.00    +0.034 C 
ENDROOT
BRANCH   1   2
ATOM      2  C   UNL     1      32.485 -23.258 -16.054  0.00  0.00    -0.022 C 
ATOM      3  C   UNL     1      31.255 -23.200 -16.676  0.00  0.00    -0.002 C 
ATOM      4  C   UNL     1      32.615 -23.242 -14.679  0.00  0.00    -0.004 C 
ATOM      5  C   UNL     1      30.105 -23.125 -15.891  0.00  0.00    +0.030 C 
ATOM      6  C   UNL     1      31.464 -23.165 -13.894  0.00  0.00    -0.000 C 
ATOM      7  C   UNL     1      30.209 -23.107 -14.501  0.00  0.00    +0.003 C 
BRANCH   5  10
ATOM      8  N   UNL     1      28.149 -24.216 -16.962  0.00  0.00    -0.343 N 
ATOM      9  N   UNL     1      28.201 -21.896 -16.693  0.00  0.00    -0.285 NA
ATOM     10  C   UNL     1      28.796 -23.063 -16.522  0.00  0.00    +0.117 C 
ATOM     11  H   UNL     1      27.263 -24.153 -17.387  0.00  0.00    +0.144 HD
ATOM     12  H   UNL     1      28.577 -25.096 -16.847  0.00  0.00    +0.144 HD
ATOM     13  H   UNL     1      27.316 -21.853 -17.120  0.00  0.00    +0.188 HD
ENDBRANCH   5  10
ENDBRANCH   1   2
BRANCH   1  14
ATOM     14  C   UNL     1      33.582 -22.614 -18.270  0.00  0.00    +0.010 C 
BRANCH  14  15
ATOM     15  C   UNL     1      34.885 -22.443 -19.069  0.00  0.00    +0.027 C 
BRANCH  15  16
ATOM     16  C   UNL     1      34.984 -21.140 -19.822  0.00  0.00    -0.022 C 
ATOM     17  C   UNL     1      33.825 -20.511 -20.248  0.00  0.00    -0.004 C 
ATOM     18  C   UNL     1      36.233 -20.593 -20.074  0.00  0.00    -0.004 C 
ATOM     19  C   UNL     1      33.916 -19.305 -20.943  0.00  0.00    +0.002 C 
ATOM     20  C   UNL     1      36.324 -19.387 -20.769  0.00  0.00    +0.002 C 
ATOM     21  C   UNL     1      35.166 -18.743 -21.204  0.00  0.00    +0.031 C 
BRANCH  21  24
ATOM     22  N   UNL     1      35.732 -17.442 -23.241  0.00  0.00    -0.343 N 
ATOM     23  N   UNL     1      34.904 -16.359 -21.344  0.00  0.00    -0.285 NA
ATOM     24  C   UNL     1      35.262 -17.487 -21.930  0.00  0.00    +0.117 C 
ATOM     25  H   UNL     1      35.790 -16.581 -23.715  0.00  0.00    +0.144 HD
ATOM     26  H   UNL     1      36.007 -18.273 -23.694  0.00  0.00    +0.144 HD
ATOM     27  H   UNL     1      34.968 -15.507 -21.834  0.00  0.00    +0.188 HD
ENDBRANCH  21  24
ENDBRANCH  15  16
ENDBRANCH  14  15
ENDBRANCH   1  14
BRANCH   1  28
ATOM     28  C   UNL     1      34.944 -22.779 -16.121  0.00  0.00    +0.114 C 
BRANCH  28  30
ATOM     29  O   UNL     1      35.715 -25.022 -15.571  0.00  0.00    -0.250 OA
ATOM     30  C   UNL     1      35.964 -23.839 -15.758  0.00  0.00    +0.317 C 
BRANCH  30  31
ATOM     31  O   UNL     1      37.192 -23.253 -15.641  0.00  0.00    -0.444 OA
ATOM     32  C   UNL     1      37.355 -22.019 -16.347  0.00  0.00    +0.256 C 
ENDBRANCH  30  31
ENDBRANCH  28  30
ENDBRANCH   1  28
TORSDOF 9
ENDMDL
MODEL 2
REMARK VINA RESULT:     -10.7      3.322      5.137
REMARK  Name = 444406
REMARK  9 active torsions:
REMARK  status: ('A' for Active; 'I' for Inactive)
REMARK    1  A    between atoms: C_1  and  C_2
REMARK    2  A    between atoms: C_1  and  C_14
REMARK    3  A    between atoms: C_1  and  C_28
REMARK    4  A    between atoms: C_5  and  C_10
REMARK    5  A    between atoms: C_14  and  C_15
REMARK    6  A    between atoms: C_15  and  C_16
REMARK    7  A    between atoms: C_21  and  C_24
REMARK    8  A    between atoms: C_28  and  C_30
REMARK    9  A    between atoms: C_30  and  O_31
REMARK                            x       y       z     vdW  Elec       q    Type
REMARK                         _______ _______ _______ _____ _____    ______ ____
ROOT
ATOM      1  C   UNL     1      33.106 -23.203 -15.481  0.00  0.00    +0.034 C 
ENDROOT
BRANCH   1   2
ATOM      2  C   UNL     1      34.594 -23.515 -15.392  0.00  0.00    -0.022 C 
ATOM      3  C   UNL     1      34.993 -24.828 -15.250  0.00  0.00    -0.002 C 
ATOM      4  C   UNL     1      35.498 -22.473 -15.454  0.00  0.00    -0.004 C 
ATOM      5  C   UNL     1      36.357 -25.112 -15.169  0.00  0.00    +0.030 C 
ATOM      6  C   UNL     1      36.861 -22.759 -15.372  0.00  0.00    -0.000 C 
ATOM      7  C   UNL     1      37.290 -24.079 -15.229  0.00  0.00    +0.003 C 
BRANCH   5  10
ATOM      8  N   UNL     1      37.148 -27.007 -13.773  0.00  0.00    -0.343 N 
ATOM      9  N   UNL     1      36.895 -27.270 -16.080  0.00  0.00    -0.285 NA
ATOM     10  C   UNL     1      36.804 -26.488 -15.020  0.00  0.00    +0.117 C 
ATOM     11  H   UNL     1      37.448 -27.942 -13.694  0.00  0.00    +0.144 HD
ATOM     12  H   UNL     1      37.090 -26.440 -12.970  0.00  0.00    +0.144 HD
ATOM     13  H   UNL     1      37.198 -28.201 -15.981  0.00  0.00    +0.188 HD
ENDBRANCH   5  10
ENDBRANCH   1   2
BRANCH   1  14
ATOM     14  C   UNL     1      32.604 -23.116 -16.945  0.00  0.00    +0.010 C 
BRANCH  14  15
ATOM     15  C   UNL     1      33.664 -23.433 -18.013  0.00  0.00    +0.027 C 
BRANCH  15  16
ATOM     16  C   UNL     1      34.027 -22.264 -18.894  0.00  0.00    -0.022 C 
ATOM     17  C   UNL     1      35.360 -22.016 -19.180  0.00  0.00    -0.004 C 
ATOM     18  C   UNL     1      33.020 -21.458 -19.404  0.00  0.00    -0.004 C 
ATOM     19  C   UNL     1      35.696 -20.936 -19.996  0.00  0.00    +0.002 C 
ATOM     20  C   UNL     1      33.356 -20.378 -20.220  0.00  0.00    +0.002 C 
ATOM     21  C   UNL     1      34.694 -20.117 -20.517  0.00  0.00    +0.031 C 
BRANCH  21  24
ATOM     22  N   UNL     1      34.981 -19.081 -22.755  0.00  0.00    -0.343 N 
ATOM     23  N   UNL     1      35.431 -17.850 -20.820  0.00  0.00    -0.285 NA
ATOM     24  C   UNL     1      35.042 -18.989 -21.365  0.00  0.00    +0.117 C 
ATOM     25  H   UNL     1      35.222 -18.305 -23.312  0.00  0.00    +0.144 HD
ATOM     26  H   UNL     1      34.697 -19.923 -23.180  0.00  0.00    +0.144 HD
ATOM     27  H   UNL     1      35.668 -17.085 -21.394  0.00  0.00    +0.188 HD
ENDBRANCH  21  24
ENDBRANCH  15  16
ENDBRANCH  14  15
ENDBRANCH   1  14
BRANCH   1  28
ATOM     28  C   UNL     1      32.306 -24.256 -14.685  0.00  0.00    +0.114 C 
BRANCH  28  30
ATOM     29  O   UNL     1      31.718 -23.070 -12.641  0.00  0.00    -0.250 OA
ATOM     30  C   UNL     1      31.369 -23.644 -13.664  0.00  0.00    +0.317 C 
BRANCH  30  31
ATOM     31  O   UNL     1      30.079 -23.868 -14.054  0.00  0.00    -0.444 OA
ATOM     32  C   UNL     1      29.854 -25.089 -14.764  0.00  0.00    +0.256 C 
ENDBRANCH  30  31
ENDBRANCH  28  30
ENDBRANCH   1  28
TORSDOF 9
ENDMDL
MODEL 3
REMARK VINA RESULT:     -10.4      4.731      7.529
REMARK  Name = 444406
REMARK  9 active torsions:
REMARK  status: ('A' for Active; 'I' for Inactive)
REMARK    1  A    between atoms: C_1  and  C_2
REMARK    2  A    between atoms: C_1  and  C_14
REMARK    3  A    between atoms: C_1  and  C_28
REMARK    4  A    between atoms: C_5  and  C_10
REMARK    5  A    between atoms: C_14  and  C_15
REMARK    6  A    between atoms: C_15  and  C_16
REMARK    7  A    between atoms: C_21  and  C_24
REMARK    8  A    between atoms: C_28  and  C_30
REMARK    9  A    between atoms: C_30  and  O_31
REMARK                            x       y       z     vdW  Elec       q    Type
REMARK                         _______ _______ _______ _____ _____    ______ ____
ROOT
ATOM      1  C   UNL     1      34.349 -18.622 -21.861  0.00  0.00    +0.034 C 
ENDROOT
BRANCH   1   2
ATOM      2  C   UNL     1      34.881 -19.705 -20.931  0.00  0.00    -0.022 C 
ATOM      3  C   UNL     1      33.991 -20.592 -20.362  0.00  0.00    -0.002 C 
ATOM      4  C   UNL     1      36.238 -19.764 -20.685  0.00  0.00    -0.004 C 
ATOM      5  C   UNL     1      34.480 -21.584 -19.511  0.00  0.00    +0.030 C 
ATOM      6  C   UNL     1      36.726 -20.755 -19.833  0.00  0.00    -0.000 C 
ATOM      7  C   UNL     1      35.846 -21.665 -19.246  0.00  0.00    +0.003 C 
BRANCH   5  10
ATOM      8  N   UNL     1      32.387 -22.108 -18.282  0.00  0.00    -0.343 N 
ATOM      9  N   UNL     1      33.842 -23.823 -18.914  0.00  0.00    -0.285 NA
ATOM     10  C   UNL     1      33.563 -22.532 -18.898  0.00  0.00    +0.117 C 
ATOM     11  H   UNL     1      31.779 -22.767 -17.873  0.00  0.00    +0.144 HD
ATOM     12  H   UNL     1      32.162 -21.150 -18.257  0.00  0.00    +0.144 HD
ATOM     13  H   UNL     1      33.223 -24.466 -18.500  0.00  0.00    +0.188 HD
ENDBRANCH   5  10
ENDBRANCH   1   2
BRANCH   1  14
ATOM     14  C   UNL     1      34.112 -17.276 -21.130  0.00  0.00    +0.010 C 
BRANCH  14  15
ATOM     15  C   UNL     1      34.777 -16.056 -21.789  0.00  0.00    +0.027 C 
BRANCH  15  16
ATOM     16  C   UNL     1      33.901 -14.829 -21.846  0.00  0.00    -0.022 C 
ATOM     17  C   UNL     1      33.106 -14.509 -20.756  0.00  0.00    -0.004 C 
ATOM     18  C   UNL     1      33.908 -14.041 -22.986  0.00  0.00    -0.004 C 
ATOM     19  C   UNL     1      32.298 -13.374 -20.808  0.00  0.00    +0.002 C 
ATOM     20  C   UNL     1      33.100 -12.905 -23.038  0.00  0.00    +0.002 C 
ATOM     21  C   UNL     1      32.295 -12.571 -21.949  0.00  0.00    +0.031 C 
BRANCH  21  24
ATOM     22  N   UNL     1      31.840 -10.253 -22.713  0.00  0.00    -0.343 N 
ATOM     23  N   UNL     1      30.291 -11.377 -21.372  0.00  0.00    -0.285 NA
ATOM     24  C   UNL     1      31.451 -11.389 -22.005  0.00  0.00    +0.117 C 
ATOM     25  H   UNL     1      31.253  -9.462 -22.738  0.00  0.00    +0.144 HD
ATOM     26  H   UNL     1      32.702 -10.242 -23.189  0.00  0.00    +0.144 HD
ATOM     27  H   UNL     1      29.718 -10.577 -21.408  0.00  0.00    +0.188 HD
ENDBRANCH  21  24
ENDBRANCH  15  16
ENDBRANCH  14  15
ENDBRANCH   1  14
BRANCH   1  28
ATOM     28  C   UNL     1      35.315 -18.441 -23.052  0.00  0.00    +0.114 C 
BRANCH  28  30
ATOM     29  O   UNL     1      34.977 -20.156 -24.748  0.00  0.00    -0.250 OA
ATOM     30  C   UNL     1      34.777 -19.018 -24.346  0.00  0.00    +0.317 C 
BRANCH  30  31
ATOM     31  O   UNL     1      34.065 -18.053 -25.000  0.00  0.00    -0.444 OA
ATOM     32  C   UNL     1      34.776 -16.841 -25.271  0.00  0.00    +0.256 C 
ENDBRANCH  30  31
ENDBRANCH  28  30
ENDBRANCH   1  28
TORSDOF 9
ENDMDL
MODEL 4
REMARK VINA RESULT:     -10.3      4.836      9.501
REMARK  Name = 444406
REMARK  9 active torsions:
REMARK  status: ('A' for Active; 'I' for Inactive)
REMARK    1  A    between atoms: C_1  and  C_2
REMARK    2  A    between atoms: C_1  and  C_14
REMARK    3  A    between atoms: C_1  and  C_28
REMARK    4  A    between atoms: C_5  and  C_10
REMARK    5  A    between atoms: C_14  and  C_15
REMARK    6  A    between atoms: C_15  and  C_16
REMARK    7  A    between atoms: C_21  and  C_24
REMARK    8  A    between atoms: C_28  and  C_30
REMARK    9  A    between atoms: C_30  and  O_31
REMARK                            x       y       z     vdW  Elec       q    Type
REMARK                         _______ _______ _______ _____ _____    ______ ____
ROOT
ATOM      1  C   UNL     1      35.068 -16.237 -23.036  0.00  0.00    +0.034 C 
ENDROOT
BRANCH   1   2
ATOM      2  C   UNL     1      34.073 -15.422 -22.222  0.00  0.00    -0.022 C 
ATOM      3  C   UNL     1      33.624 -14.219 -22.726  0.00  0.00    -0.002 C 
ATOM      4  C   UNL     1      33.651 -15.911 -21.001  0.00  0.00    -0.004 C 
ATOM      5  C   UNL     1      32.712 -13.473 -21.979  0.00  0.00    +0.030 C 
ATOM      6  C   UNL     1      32.740 -15.164 -20.254  0.00  0.00    -0.000 C 
ATOM      7  C   UNL     1      32.270 -13.945 -20.744  0.00  0.00    +0.003 C 
BRANCH   5  10
ATOM      8  N   UNL     1      32.965 -11.451 -23.398  0.00  0.00    -0.343 N 
ATOM      9  N   UNL     1      31.053 -11.737 -22.086  0.00  0.00    -0.285 NA
ATOM     10  C   UNL     1      32.222 -12.202 -22.489  0.00  0.00    +0.117 C 
ATOM     11  H   UNL     1      32.615 -10.593 -23.731  0.00  0.00    +0.144 HD
ATOM     12  H   UNL     1      33.840 -11.779 -23.708  0.00  0.00    +0.144 HD
ATOM     13  H   UNL     1      30.721 -10.876 -22.430  0.00  0.00    +0.188 HD
ENDBRANCH   5  10
ENDBRANCH   1   2
BRANCH   1  14
ATOM     14  C   UNL     1      34.867 -17.764 -22.863  0.00  0.00    +0.010 C 
BRANCH  14  15
ATOM     15  C   UNL     1      35.806 -18.430 -21.843  0.00  0.00    +0.027 C 
BRANCH  15  16
ATOM     16  C   UNL     1      35.163 -19.525 -21.030  0.00  0.00    -0.022 C 
ATOM     17  C   UNL     1      35.966 -20.428 -20.350  0.00  0.00    -0.004 C 
ATOM     18  C   UNL     1      33.781 -19.609 -20.974  0.00  0.00    -0.004 C 
ATOM     19  C   UNL     1      35.371 -21.440 -19.596  0.00  0.00    +0.002 C 
ATOM     20  C   UNL     1      33.186 -20.621 -20.221  0.00  0.00    +0.002 C 
ATOM     21  C   UNL     1      33.981 -21.536 -19.531  0.00  0.00    +0.031 C 
BRANCH  21  24
ATOM     22  N   UNL     1      32.276 -22.333 -17.912  0.00  0.00    -0.343 N 
ATOM     23  N   UNL     1      33.828 -23.825 -18.817  0.00  0.00    -0.285 NA
ATOM     24  C   UNL     1      33.360 -22.592 -18.748  0.00  0.00    +0.117 C 
ATOM     25  H   UNL     1      31.870 -23.062 -17.389  0.00  0.00    +0.144 HD
ATOM     26  H   UNL     1      31.914 -21.419 -17.844  0.00  0.00    +0.144 HD
ATOM     27  H   UNL     1      33.410 -24.542 -18.288  0.00  0.00    +0.188 HD
ENDBRANCH  21  24
ENDBRANCH  15  16
ENDBRANCH  14  15
ENDBRANCH   1  14
BRANCH   1  28
ATOM     28  C   UNL     1      34.976 -15.833 -24.523  0.00  0.00    +0.114 C 
BRANCH  28  30
ATOM     29  O   UNL     1      34.733 -18.014 -25.578  0.00  0.00    -0.250 OA
ATOM     30  C   UNL     1      34.306 -16.884 -25.384  0.00  0.00    +0.317 C 
BRANCH  30  31
ATOM     31  O   UNL     1      33.173 -16.354 -25.932  0.00  0.00    -0.444 OA
ATOM     32  C   UNL     1      33.235 -14.959 -26.244  0.00  0.00    +0.256 C 
ENDBRANCH  30  31
ENDBRANCH  28  30
ENDBRANCH   1  28
TORSDOF 9
ENDMDL
MODEL 5
REMARK VINA RESULT:     -10.3      5.128     10.144
REMARK  Name = 444406
REMARK  9 active torsions:
REMARK  status: ('A' for Active; 'I' for Inactive)
REMARK    1  A    between atoms: C_1  and  C_2
REMARK    2  A    between atoms: C_1  and  C_14
REMARK    3  A    between atoms: C_1  and  C_28
REMARK    4  A    between atoms: C_5  and  C_10
REMARK    5  A    between atoms: C_14  and  C_15
REMARK    6  A    between atoms: C_15  and  C_16
REMARK    7  A    between atoms: C_21  and  C_24
REMARK    8  A    between atoms: C_28  and  C_30
REMARK    9  A    between atoms: C_30  and  O_31
REMARK                            x       y       z     vdW  Elec       q    Type
REMARK                         _______ _______ _______ _____ _____    ______ ____
ROOT
ATOM      1  C   UNL     1      34.773 -16.164 -22.909  0.00  0.00    +0.034 C 
ENDROOT
BRANCH   1   2
ATOM      2  C   UNL     1      33.906 -14.933 -22.686  0.00  0.00    -0.022 C 
ATOM      3  C   UNL     1      34.114 -13.818 -23.471  0.00  0.00    -0.002 C 
ATOM      4  C   UNL     1      32.937 -14.969 -21.702  0.00  0.00    -0.004 C 
ATOM      5  C   UNL     1      33.319 -12.690 -23.265  0.00  0.00    +0.030 C 
ATOM      6  C   UNL     1      32.143 -13.841 -21.496  0.00  0.00    -0.000 C 
ATOM      7  C   UNL     1      32.335 -12.701 -22.278  0.00  0.00    +0.003 C 
BRANCH   5  10
ATOM      8  N   UNL     1      34.016 -11.589 -25.379  0.00  0.00    -0.343 N 
ATOM      9  N   UNL     1      33.231 -10.310 -23.588  0.00  0.00    -0.285 NA
ATOM     10  C   UNL     1      33.519 -11.502 -24.079  0.00  0.00    +0.117 C 
ATOM     11  H   UNL     1      34.144 -10.772 -25.913  0.00  0.00    +0.144 HD
ATOM     12  H   UNL     1      34.239 -12.468 -25.763  0.00  0.00    +0.144 HD
ATOM     13  H   UNL     1      33.366  -9.505 -24.138  0.00  0.00    +0.188 HD
ENDBRANCH   5  10
ENDBRANCH   1   2
BRANCH   1  14
ATOM     14  C   UNL     1      35.120 -16.893 -21.586  0.00  0.00    +0.010 C 
BRANCH  14  15
ATOM     15  C   UNL     1      35.852 -18.235 -21.759  0.00  0.00    +0.027 C 
BRANCH  15  16
ATOM     16  C   UNL     1      35.225 -19.385 -21.011  0.00  0.00    -0.022 C 
ATOM     17  C   UNL     1      36.039 -20.291 -20.350  0.00  0.00    -0.004 C 
ATOM     18  C   UNL     1      33.845 -19.514 -20.996  0.00  0.00    -0.004 C 
ATOM     19  C   UNL     1      35.459 -21.354 -19.658  0.00  0.00    +0.002 C 
ATOM     20  C   UNL     1      33.265 -20.577 -20.304  0.00  0.00    +0.002 C 
ATOM     21  C   UNL     1      34.072 -21.497 -19.634  0.00  0.00    +0.031 C 
BRANCH  21  24
ATOM     22  N   UNL     1      32.456 -22.397 -17.977  0.00  0.00    -0.343 N 
ATOM     23  N   UNL     1      33.877 -23.840 -19.141  0.00  0.00    -0.285 NA
ATOM     24  C   UNL     1      33.466 -22.606 -18.914  0.00  0.00    +0.117 C 
ATOM     25  H   UNL     1      32.060 -23.161 -17.500  0.00  0.00    +0.144 HD
ATOM     26  H   UNL     1      32.138 -21.483 -17.792  0.00  0.00    +0.144 HD
ATOM     27  H   UNL     1      33.469 -24.593 -18.654  0.00  0.00    +0.188 HD
ENDBRANCH  21  24
ENDBRANCH  15  16
ENDBRANCH  14  15
ENDBRANCH   1  14
BRANCH   1  28
ATOM     28  C   UNL     1      34.071 -17.120 -23.898  0.00  0.00    +0.114 C 
BRANCH  28  30
ATOM     29  O   UNL     1      35.385 -16.664 -25.898  0.00  0.00    -0.250 OA
ATOM     30  C   UNL     1      34.294 -16.742 -25.349  0.00  0.00    +0.317 C 
BRANCH  30  31
ATOM     31  O   UNL     1      33.087 -16.471 -25.928  0.00  0.00    -0.444 OA
ATOM     32  C   UNL     1      32.898 -15.118 -26.353  0.00  0.00    +0.256 C 
ENDBRANCH  30  31
ENDBRANCH  28  30
ENDBRANCH   1  28
TORSDOF 9
ENDMDL
MODEL 6
REMARK VINA RESULT:     -10.2      5.296     10.663
REMARK  Name = 444406
REMARK  9 active torsions:
REMARK  status: ('A' for Active; 'I' for Inactive)
REMARK    1  A    between atoms: C_1  and  C_2
REMARK    2  A    between atoms: C_1  and  C_14
REMARK    3  A    between atoms: C_1  and  C_28
REMARK    4  A    between atoms: C_5  and  C_10
REMARK    5  A    between atoms: C_14  and  C_15
REMARK    6  A    between atoms: C_15  and  C_16
REMARK    7  A    between atoms: C_21  and  C_24
REMARK    8  A    between atoms: C_28  and  C_30
REMARK    9  A    between atoms: C_30  and  O_31
REMARK                            x       y       z     vdW  Elec       q    Type
REMARK                         _______ _______ _______ _____ _____    ______ ____
ROOT
ATOM      1  C   UNL     1      33.533 -15.554 -23.249  0.00  0.00    +0.034 C 
ENDROOT
BRANCH   1   2
ATOM      2  C   UNL     1      33.529 -14.498 -24.345  0.00  0.00    -0.022 C 
ATOM      3  C   UNL     1      33.884 -13.204 -24.027  0.00  0.00    -0.002 C 
ATOM      4  C   UNL     1      33.168 -14.867 -25.626  0.00  0.00    -0.004 C 
ATOM      5  C   UNL     1      33.881 -12.236 -25.032  0.00  0.00    +0.030 C 
ATOM      6  C   UNL     1      33.164 -13.900 -26.631  0.00  0.00    -0.000 C 
ATOM      7  C   UNL     1      33.520 -12.584 -26.333  0.00  0.00    +0.003 C 
BRANCH   5  10
ATOM      8  N   UNL     1      33.424 -10.045 -23.958  0.00  0.00    -0.343 N 
ATOM      9  N   UNL     1      35.392 -10.373 -25.172  0.00  0.00    -0.285 NA
ATOM     10  C   UNL     1      34.252 -10.865 -24.722  0.00  0.00    +0.117 C 
ATOM     11  H   UNL     1      33.693  -9.119 -23.760  0.00  0.00    +0.144 HD
ATOM     12  H   UNL     1      32.568 -10.391 -23.615  0.00  0.00    +0.144 HD
ATOM     13  H   UNL     1      35.644  -9.444 -24.964  0.00  0.00    +0.188 HD
ENDBRANCH   5  10
ENDBRANCH   1   2
BRANCH   1  14
ATOM     14  C   UNL     1      34.488 -16.734 -23.564  0.00  0.00    +0.010 C 
BRANCH  14  15
ATOM     15  C   UNL     1      35.526 -17.036 -22.471  0.00  0.00    +0.027 C 
BRANCH  15  16
ATOM     16  C   UNL     1      35.237 -18.279 -21.667  0.00  0.00    -0.022 C 
ATOM     17  C   UNL     1      33.925 -18.701 -21.516  0.00  0.00    -0.004 C 
ATOM     18  C   UNL     1      36.288 -18.980 -21.096  0.00  0.00    -0.004 C 
ATOM     19  C   UNL     1      33.657 -19.852 -20.774  0.00  0.00    +0.002 C 
ATOM     20  C   UNL     1      36.020 -20.130 -20.355  0.00  0.00    +0.002 C 
ATOM     21  C   UNL     1      34.705 -20.567 -20.194  0.00  0.00    +0.031 C 
BRANCH  21  24
ATOM     22  N   UNL     1      33.150 -22.325 -19.382  0.00  0.00    -0.343 N 
ATOM     23  N   UNL     1      35.393 -22.341 -18.728  0.00  0.00    -0.285 NA
ATOM     24  C   UNL     1      34.426 -21.765 -19.419  0.00  0.00    +0.117 C 
ATOM     25  H   UNL     1      32.983 -23.137 -18.851  0.00  0.00    +0.144 HD
ATOM     26  H   UNL     1      32.415 -21.908 -19.889  0.00  0.00    +0.144 HD
ATOM     27  H   UNL     1      35.207 -23.153 -18.202  0.00  0.00    +0.188 HD
ENDBRANCH  21  24
ENDBRANCH  15  16
ENDBRANCH  14  15
ENDBRANCH   1  14
BRANCH   1  28
ATOM     28  C   UNL     1      33.891 -14.899 -21.898  0.00  0.00    +0.114 C 
BRANCH  28  30
ATOM     29  O   UNL     1      32.107 -15.968 -20.632  0.00  0.00    -0.250 OA
ATOM     30  C   UNL     1      32.766 -14.969 -20.886  0.00  0.00    +0.317 C 
BRANCH  30  31
ATOM     31  O   UNL     1      32.587 -13.733 -20.334  0.00  0.00    -0.444 OA
ATOM     32  C   UNL     1      31.972 -12.761 -21.185  0.00  0.00    +0.256 C 
ENDBRANCH  30  31
ENDBRANCH  28  30
ENDBRANCH   1  28
TORSDOF 9
ENDMDL
MODEL 7
REMARK VINA RESULT:     -10.1      2.716      6.747
REMARK  Name = 444406
REMARK  9 active torsions:
REMARK  status: ('A' for Active; 'I' for Inactive)
REMARK    1  A    between atoms: C_1  and  C_2
REMARK    2  A    between atoms: C_1  and  C_14
REMARK    3  A    between atoms: C_1  and  C_28
REMARK    4  A    between atoms: C_5  and  C_10
REMARK    5  A    between atoms: C_14  and  C_15
REMARK    6  A    between atoms: C_15  and  C_16
REMARK    7  A    between atoms: C_21  and  C_24
REMARK    8  A    between atoms: C_28  and  C_30
REMARK    9  A    between atoms: C_30  and  O_31
REMARK                            x       y       z     vdW  Elec       q    Type
REMARK                         _______ _______ _______ _____ _____    ______ ____
ROOT
ATOM      1  C   UNL     1      35.402 -23.897 -14.549  0.00  0.00    +0.034 C 
ENDROOT
BRANCH   1   2
ATOM      2  C   UNL     1      35.652 -23.115 -15.831  0.00  0.00    -0.022 C 
ATOM      3  C   UNL     1      34.712 -23.166 -16.839  0.00  0.00    -0.002 C 
ATOM      4  C   UNL     1      36.816 -22.380 -15.947  0.00  0.00    -0.004 C 
ATOM      5  C   UNL     1      34.943 -22.450 -18.014  0.00  0.00    +0.030 C 
ATOM      6  C   UNL     1      37.046 -21.665 -17.122  0.00  0.00    -0.000 C 
ATOM      7  C   UNL     1      36.109 -21.700 -18.156  0.00  0.00    +0.003 C 
BRANCH   5  10
ATOM      8  N   UNL     1      33.120 -21.408 -19.339  0.00  0.00    -0.343 N 
ATOM      9  N   UNL     1      33.868 -23.561 -19.854  0.00  0.00    -0.285 NA
ATOM     10  C   UNL     1      33.967 -22.487 -19.091  0.00  0.00    +0.117 C 
ATOM     11  H   UNL     1      32.466 -21.453 -20.074  0.00  0.00    +0.144 HD
ATOM     12  H   UNL     1      33.176 -20.599 -18.780  0.00  0.00    +0.144 HD
ATOM     13  H   UNL     1      33.207 -23.587 -20.584  0.00  0.00    +0.188 HD
ENDBRANCH   5  10
ENDBRANCH   1   2
BRANCH   1  14
ATOM     14  C   UNL     1      34.046 -23.537 -13.890  0.00  0.00    +0.010 C 
BRANCH  14  15
ATOM     15  C   UNL     1      32.986 -24.651 -13.939  0.00  0.00    +0.027 C 
BRANCH  15  16
ATOM     16  C   UNL     1      31.696 -24.250 -14.609  0.00  0.00    -0.022 C 
ATOM     17  C   UNL     1      30.557 -25.013 -14.402  0.00  0.00    -0.004 C 
ATOM     18  C   UNL     1      31.670 -23.125 -15.419  0.00  0.00    -0.004 C 
ATOM     19  C   UNL     1      29.363 -24.642 -15.020  0.00  0.00    +0.002 C 
ATOM     20  C   UNL     1      30.476 -22.754 -16.037  0.00  0.00    +0.002 C 
ATOM     21  C   UNL     1      29.322 -23.512 -15.837  0.00  0.00    +0.031 C 
BRANCH  21  24
ATOM     22  N   UNL     1      27.124 -22.356 -15.820  0.00  0.00    -0.343 N 
ATOM     23  N   UNL     1      27.834 -23.510 -17.724  0.00  0.00    -0.285 NA
ATOM     24  C   UNL     1      28.078 -23.126 -16.484  0.00  0.00    +0.117 C 
ATOM     25  H   UNL     1      26.288 -22.106 -16.276  0.00  0.00    +0.144 HD
ATOM     26  H   UNL     1      27.287 -22.063 -14.893  0.00  0.00    +0.144 HD
ATOM     27  H   UNL     1      26.992 -23.249 -18.163  0.00  0.00    +0.188 HD
ENDBRANCH  21  24
ENDBRANCH  15  16
ENDBRANCH  14  15
ENDBRANCH   1  14
BRANCH   1  28
ATOM     28  C   UNL     1      35.491 -25.411 -14.838  0.00  0.00    +0.114 C 
BRANCH  28  30
ATOM     29  O   UNL     1      37.345 -26.868 -15.446  0.00  0.00    -0.250 OA
ATOM     30  C   UNL     1      36.907 -25.946 -14.771  0.00  0.00    +0.317 C 
BRANCH  30  31
ATOM     31  O   UNL     1      37.598 -25.257 -13.815  0.00  0.00    -0.444 OA
ATOM     32  C   UNL     1      37.744 -25.925 -12.559  0.00  0.00    +0.256 C 
ENDBRANCH  30  31
ENDBRANCH  28  30
ENDBRANCH   1  28
TORSDOF 9
ENDMDL
MODEL 8
REMARK VINA RESULT:     -10.0      3.607      5.040
REMARK  Name = 444406
REMARK  9 active torsions:
REMARK  status: ('A' for Active; 'I' for Inactive)
REMARK    1  A    between atoms: C_1  and  C_2
REMARK    2  A    between atoms: C_1  and  C_14
REMARK    3  A    between atoms: C_1  and  C_28
REMARK    4  A    between atoms: C_5  and  C_10
REMARK    5  A    between atoms: C_14  and  C_15
REMARK    6  A    between atoms: C_15  and  C_16
REMARK    7  A    between atoms: C_21  and  C_24
REMARK    8  A    between atoms: C_28  and  C_30
REMARK    9  A    between atoms: C_30  and  O_31
REMARK                            x       y       z     vdW  Elec       q    Type
REMARK                         _______ _______ _______ _____ _____    ______ ____
ROOT
ATOM      1  C   UNL     1      34.080 -23.205 -15.652  0.00  0.00    +0.034 C 
ENDROOT
BRANCH   1   2
ATOM      2  C   UNL     1      35.006 -24.055 -14.794  0.00  0.00    -0.022 C 
ATOM      3  C   UNL     1      35.097 -23.789 -13.444  0.00  0.00    -0.002 C 
ATOM      4  C   UNL     1      35.729 -25.067 -15.395  0.00  0.00    -0.004 C 
ATOM      5  C   UNL     1      35.946 -24.569 -12.658  0.00  0.00    +0.030 C 
ATOM      6  C   UNL     1      36.578 -25.846 -14.609  0.00  0.00    -0.000 C 
ATOM      7  C   UNL     1      36.687 -25.597 -13.241  0.00  0.00    +0.003 C 
BRANCH   5  10
ATOM      8  N   UNL     1      36.956 -23.363 -10.737  0.00  0.00    -0.343 N 
ATOM      9  N   UNL     1      35.308 -24.980 -10.378  0.00  0.00    -0.285 NA
ATOM     10  C   UNL     1      36.060 -24.309 -11.232  0.00  0.00    +0.117 C 
ATOM     11  H   UNL     1      37.017 -23.203  -9.767  0.00  0.00    +0.144 HD
ATOM     12  H   UNL     1      37.528 -22.854 -11.357  0.00  0.00    +0.144 HD
ATOM     13  H   UNL     1      35.384 -24.805  -9.412  0.00  0.00    +0.188 HD
ENDBRANCH   5  10
ENDBRANCH   1   2
BRANCH   1  14
ATOM     14  C   UNL     1      34.712 -22.831 -17.017  0.00  0.00    +0.010 C 
BRANCH  14  15
ATOM     15  C   UNL     1      33.724 -22.768 -18.194  0.00  0.00    +0.027 C 
BRANCH  15  16
ATOM     16  C   UNL     1      34.037 -21.701 -19.212  0.00  0.00    -0.022 C 
ATOM     17  C   UNL     1      33.004 -20.946 -19.746  0.00  0.00    -0.004 C 
ATOM     18  C   UNL     1      35.353 -21.491 -19.594  0.00  0.00    -0.004 C 
ATOM     19  C   UNL     1      33.294 -19.958 -20.686  0.00  0.00    +0.002 C 
ATOM     20  C   UNL     1      35.643 -20.502 -20.534  0.00  0.00    +0.002 C 
ATOM     21  C   UNL     1      34.613 -19.735 -21.081  0.00  0.00    +0.031 C 
BRANCH  21  24
ATOM     22  N   UNL     1      34.785 -18.947 -23.429  0.00  0.00    -0.343 N 
ATOM     23  N   UNL     1      35.328 -17.517 -21.663  0.00  0.00    -0.285 NA
ATOM     24  C   UNL     1      34.916 -18.706 -22.063  0.00  0.00    +0.117 C 
ATOM     25  H   UNL     1      34.996 -18.237 -24.077  0.00  0.00    +0.144 HD
ATOM     26  H   UNL     1      34.482 -19.830 -23.746  0.00  0.00    +0.144 HD
ATOM     27  H   UNL     1      35.533 -16.819 -22.327  0.00  0.00    +0.188 HD
ENDBRANCH  21  24
ENDBRANCH  15  16
ENDBRANCH  14  15
ENDBRANCH   1  14
BRANCH   1  28
ATOM     28  C   UNL     1      32.736 -23.938 -15.849  0.00  0.00    +0.114 C 
BRANCH  28  30
ATOM     29  O   UNL     1      31.707 -22.509 -14.167  0.00  0.00    -0.250 OA
ATOM     30  C   UNL     1      31.588 -23.286 -15.104  0.00  0.00    +0.317 C 
BRANCH  30  31
ATOM     31  O   UNL     1      30.408 -23.732 -15.628  0.00  0.00    -0.444 OA
ATOM     32  C   UNL     1      29.972 -25.011 -15.159  0.00  0.00    +0.256 C 
ENDBRANCH  30  31
ENDBRANCH  28  30
ENDBRANCH   1  28
TORSDOF 9
ENDMDL
MODEL 9
REMARK VINA RESULT:     -10.0      4.063      6.125
REMARK  Name = 444406
REMARK  9 active torsions:
REMARK  status: ('A' for Active; 'I' for Inactive)
REMARK    1  A    between atoms: C_1  and  C_2
REMARK    2  A    between atoms: C_1  and  C_14
REMARK    3  A    between atoms: C_1  and  C_28
REMARK    4  A    between atoms: C_5  and  C_10
REMARK    5  A    between atoms: C_14  and  C_15
REMARK    6  A    between atoms: C_15  and  C_16
REMARK    7  A    between atoms: C_21  and  C_24
REMARK    8  A    between atoms: C_28  and  C_30
REMARK    9  A    between atoms: C_30  and  O_31
REMARK                            x       y       z     vdW  Elec       q    Type
REMARK                         _______ _______ _______ _____ _____    ______ ____
ROOT
ATOM      1  C   UNL     1      32.774 -23.036 -16.187  0.00  0.00    +0.034 C 
ENDROOT
BRANCH   1   2
ATOM      2  C   UNL     1      31.408 -23.618 -15.852  0.00  0.00    -0.022 C 
ATOM      3  C   UNL     1      30.281 -23.027 -16.385  0.00  0.00    -0.002 C 
ATOM      4  C   UNL     1      31.338 -24.719 -15.021  0.00  0.00    -0.004 C 
ATOM      5  C   UNL     1      29.030 -23.561 -16.076  0.00  0.00    +0.030 C 
ATOM      6  C   UNL     1      30.087 -25.252 -14.713  0.00  0.00    -0.000 C 
ATOM      7  C   UNL     1      28.932 -24.672 -15.241  0.00  0.00    +0.003 C 
BRANCH   5  10
ATOM      8  N   UNL     1      26.978 -22.184 -15.835  0.00  0.00    -0.343 N 
ATOM      9  N   UNL     1      27.518 -23.140 -17.897  0.00  0.00    -0.285 NA
ATOM     10  C   UNL     1      27.826 -22.957 -16.626  0.00  0.00    +0.117 C 
ATOM     11  H   UNL     1      26.167 -21.784 -16.227  0.00  0.00    +0.144 HD
ATOM     12  H   UNL     1      27.188 -22.037 -14.884  0.00  0.00    +0.144 HD
ATOM     13  H   UNL     1      26.704 -22.733 -18.270  0.00  0.00    +0.188 HD
ENDBRANCH   5  10
ENDBRANCH   1   2
BRANCH   1  14
ATOM     14  C   UNL     1      33.808 -23.255 -15.053  0.00  0.00    +0.010 C 
BRANCH  14  15
ATOM     15  C   UNL     1      35.129 -22.486 -15.222  0.00  0.00    +0.027 C 
BRANCH  15  16
ATOM     16  C   UNL     1      36.364 -23.346 -15.129  0.00  0.00    -0.022 C 
ATOM     17  C   UNL     1      37.525 -22.940 -15.767  0.00  0.00    -0.004 C 
ATOM     18  C   UNL     1      36.317 -24.528 -14.406  0.00  0.00    -0.004 C 
ATOM     19  C   UNL     1      38.668 -23.734 -15.680  0.00  0.00    +0.002 C 
ATOM     20  C   UNL     1      37.460 -25.323 -14.319  0.00  0.00    +0.002 C 
ATOM     21  C   UNL     1      38.636 -24.926 -14.956  0.00  0.00    +0.031 C 
BRANCH  21  24
ATOM     22  N   UNL     1      40.215 -26.339 -13.661  0.00  0.00    -0.343 N 
ATOM     23  N   UNL     1      40.565 -25.965 -15.940  0.00  0.00    -0.285 NA
ATOM     24  C   UNL     1      39.826 -25.756 -14.866  0.00  0.00    +0.117 C 
ATOM     25  H   UNL     1      41.025 -26.897 -13.622  0.00  0.00    +0.144 HD
ATOM     26  H   UNL     1      39.678 -26.192 -12.848  0.00  0.00    +0.144 HD
ATOM     27  H   UNL     1      41.372 -26.527 -15.882  0.00  0.00    +0.188 HD
ENDBRANCH  21  24
ENDBRANCH  15  16
ENDBRANCH  14  15
ENDBRANCH   1  14
BRANCH   1  28
ATOM     28  C   UNL     1      33.280 -23.633 -17.518  0.00  0.00    +0.114 C 
BRANCH  28  30
ATOM     29  O   UNL     1      32.655 -21.753 -18.934  0.00  0.00    -0.250 OA
ATOM     30  C   UNL     1      33.482 -22.590 -18.599  0.00  0.00    +0.317 C 
BRANCH  30  31
ATOM     31  O   UNL     1      34.718 -22.760 -19.155  0.00  0.00    -0.444 OA
ATOM     32  C   UNL     1      35.671 -21.734 -18.864  0.00  0.00    +0.256 C 
ENDBRANCH  30  31
ENDBRANCH  28  30
ENDBRANCH   1  28
TORSDOF 9
ENDMDL
