MODEL 1
REMARK VINA RESULT:      -9.1      0.000      0.000
REMARK  Name = 588963
REMARK  4 active torsions:
REMARK  status: ('A' for Active; 'I' for Inactive)
REMARK    1  A    between atoms: C_2  and  C_12
REMARK    2  A    between atoms: C_12  and  C_13
REMARK    3  A    between atoms: C_13  and  N_15
REMARK    4  A    between atoms: C_16  and  C_19
REMARK                            x       y       z     vdW  Elec       q    Type
REMARK                         _______ _______ _______ _____ _____    ______ ____
ROOT
ATOM      1  N   UNL     1      33.231 -21.425 -19.517  0.00  0.00    -0.357 N 
ATOM      2  C   UNL     1      35.390 -21.593 -19.032  0.00  0.00    -0.008 A 
ATOM      3  C   UNL     1      35.232 -20.573 -20.011  0.00  0.00    +0.013 A 
ATOM      4  C   UNL     1      34.142 -22.099 -18.750  0.00  0.00    +0.030 A 
ATOM      5  C   UNL     1      33.868 -20.486 -20.297  0.00  0.00    +0.056 A 
ATOM      6  C   UNL     1      36.121 -19.710 -20.682  0.00  0.00    +0.001 C 
ATOM      7  C   UNL     1      33.715 -23.163 -17.820  0.00  0.00    +0.049 C 
ATOM      8  C   UNL     1      33.347 -19.578 -21.226  0.00  0.00    +0.017 C 
ATOM      9  C   UNL     1      35.614 -18.796 -21.613  0.00  0.00    +0.000 C 
ATOM     10  C   UNL     1      34.248 -18.733 -21.879  0.00  0.00    +0.001 C 
ATOM     11  H   UNL     1      32.260 -21.589 -19.513  0.00  0.00    +0.166 HD
ENDROOT
BRANCH   2  12
ATOM     12  C   UNL     1      36.665 -22.034 -18.428  0.00  0.00    +0.049 C 
BRANCH  12  13
ATOM     13  C   UNL     1      36.906 -21.495 -17.009  0.00  0.00    +0.094 C 
BRANCH  13  15
ATOM     14  O   UNL     1      35.537 -22.769 -14.898  0.00  0.00    -0.270 OA
ATOM     15  N   UNL     1      37.456 -22.494 -16.132  0.00  0.00    -0.300 N 
ATOM     16  C   UNL     1      36.711 -23.080 -15.106  0.00  0.00    +0.252 C 
ATOM     17  H   UNL     1      38.391 -22.775 -16.259  0.00  0.00    +0.150 HD
BRANCH  16  19
ATOM     18  S   UNL     1      36.690 -24.598 -12.860  0.00  0.00    -0.082 S 
ATOM     19  C   UNL     1      37.402 -24.109 -14.316  0.00  0.00    +0.083 C 
ATOM     20  C   UNL     1      38.564 -24.730 -14.613  0.00  0.00    +0.012 C 
ATOM     21  C   UNL     1      38.907 -25.667 -13.596  0.00  0.00    +0.008 C 
ATOM     22  C   UNL     1      37.974 -25.697 -12.584  0.00  0.00    +0.036 C 
ENDBRANCH  16  19
ENDBRANCH  13  15
ENDBRANCH  12  13
ENDBRANCH   2  12
TORSDOF 4
ENDMDL
MODEL 2
REMARK VINA RESULT:      -9.1      5.431      8.294
REMARK  Name = 588963
REMARK  4 active torsions:
REMARK  status: ('A' for Active; 'I' for Inactive)
REMARK    1  A    between atoms: C_2  and  C_12
REMARK    2  A    between atoms: C_12  and  C_13
REMARK    3  A    between atoms: C_13  and  N_15
REMARK    4  A    between atoms: C_16  and  C_19
REMARK                            x       y       z     vdW  Elec       q    Type
REMARK                         _______ _______ _______ _____ _____    ______ ____
ROOT
ATOM      1  N   UNL     1      32.590 -14.060 -24.156  0.00  0.00    -0.357 N 
ATOM      2  C   UNL     1      34.149 -15.639 -24.134  0.00  0.00    -0.008 A 
ATOM      3  C   UNL     1      33.858 -15.282 -22.788  0.00  0.00    +0.013 A 
ATOM      4  C   UNL     1      33.354 -14.870 -24.952  0.00  0.00    +0.030 A 
ATOM      5  C   UNL     1      32.877 -14.290 -22.829  0.00  0.00    +0.056 A 
ATOM      6  C   UNL     1      34.337 -15.709 -21.534  0.00  0.00    +0.001 C 
ATOM      7  C   UNL     1      33.238 -14.820 -26.423  0.00  0.00    +0.049 C 
ATOM      8  C   UNL     1      32.348 -13.701 -21.675  0.00  0.00    +0.017 C 
ATOM      9  C   UNL     1      33.817 -15.130 -20.370  0.00  0.00    +0.000 C 
ATOM     10  C   UNL     1      32.838 -14.141 -20.442  0.00  0.00    +0.001 C 
ATOM     11  H   UNL     1      31.931 -13.406 -24.485  0.00  0.00    +0.166 HD
ENDROOT
BRANCH   2  12
ATOM     12  C   UNL     1      35.130 -16.652 -24.577  0.00  0.00    +0.049 C 
BRANCH  12  13
ATOM     13  C   UNL     1      34.514 -18.019 -24.909  0.00  0.00    +0.094 C 
BRANCH  13  15
ATOM     14  O   UNL     1      36.212 -18.470 -22.704  0.00  0.00    -0.270 OA
ATOM     15  N   UNL     1      34.176 -18.768 -23.728  0.00  0.00    -0.300 N 
ATOM     16  C   UNL     1      35.076 -18.947 -22.674  0.00  0.00    +0.252 C 
ATOM     17  H   UNL     1      33.280 -19.168 -23.660  0.00  0.00    +0.150 HD
BRANCH  16  19
ATOM     18  S   UNL     1      35.695 -20.575 -20.598  0.00  0.00    -0.082 S 
ATOM     19  C   UNL     1      34.573 -19.708 -21.522  0.00  0.00    +0.083 C 
ATOM     20  C   UNL     1      33.295 -19.805 -21.096  0.00  0.00    +0.012 C 
ATOM     21  C   UNL     1      33.212 -20.637 -19.942  0.00  0.00    +0.008 C 
ATOM     22  C   UNL     1      34.444 -21.122 -19.564  0.00  0.00    +0.036 C 
ENDBRANCH  16  19
ENDBRANCH  13  15
ENDBRANCH  12  13
ENDBRANCH   2  12
TORSDOF 4
ENDMDL
MODEL 3
REMARK VINA RESULT:      -9.0      8.494     12.664
REMARK  Name = 588963
REMARK  4 active torsions:
REMARK  status: ('A' for Active; 'I' for Inactive)
REMARK    1  A    between atoms: C_2  and  C_12
REMARK    2  A    between atoms: C_12  and  C_13
REMARK    3  A    between atoms: C_13  and  N_15
REMARK    4  A    between atoms: C_16  and  C_19
REMARK                            x       y       z     vdW  Elec       q    Type
REMARK                         _______ _______ _______ _____ _____    ______ ____
ROOT
ATOM      1  N   UNL     1      34.091 -17.153 -25.128  0.00  0.00    -0.357 N 
ATOM      2  C   UNL     1      34.230 -15.478 -23.677  0.00  0.00    -0.008 A 
ATOM      3  C   UNL     1      34.601 -16.678 -23.009  0.00  0.00    +0.013 A 
ATOM      4  C   UNL     1      33.921 -15.803 -24.978  0.00  0.00    +0.030 A 
ATOM      5  C   UNL     1      34.506 -17.714 -23.941  0.00  0.00    +0.056 A 
ATOM      6  C   UNL     1      35.011 -16.984 -21.696  0.00  0.00    +0.001 C 
ATOM      7  C   UNL     1      33.479 -14.962 -26.108  0.00  0.00    +0.049 C 
ATOM      8  C   UNL     1      34.800 -19.045 -23.624  0.00  0.00    +0.017 C 
ATOM      9  C   UNL     1      35.309 -18.311 -21.365  0.00  0.00    +0.000 C 
ATOM     10  C   UNL     1      35.205 -19.324 -22.316  0.00  0.00    +0.001 C 
ATOM     11  H   UNL     1      33.937 -17.651 -25.963  0.00  0.00    +0.166 HD
ENDROOT
BRANCH   2  12
ATOM     12  C   UNL     1      34.182 -14.126 -23.083  0.00  0.00    +0.049 C 
BRANCH  12  13
ATOM     13  C   UNL     1      32.941 -13.311 -23.478  0.00  0.00    +0.094 C 
BRANCH  13  15
ATOM     14  O   UNL     1      34.153 -11.501 -25.269  0.00  0.00    -0.270 OA
ATOM     15  N   UNL     1      33.121 -11.901 -23.255  0.00  0.00    -0.300 N 
ATOM     16  C   UNL     1      33.733 -11.067 -24.195  0.00  0.00    +0.252 C 
ATOM     17  H   UNL     1      32.801 -11.509 -22.411  0.00  0.00    +0.150 HD
BRANCH  16  19
ATOM     18  S   UNL     1      32.492  -8.956 -23.033  0.00  0.00    -0.082 S 
ATOM     19  C   UNL     1      33.814  -9.645 -23.836  0.00  0.00    +0.083 C 
ATOM     20  C   UNL     1      34.837  -8.795 -24.072  0.00  0.00    +0.012 C 
ATOM     21  C   UNL     1      34.536  -7.495 -23.570  0.00  0.00    +0.008 C 
ATOM     22  C   UNL     1      33.293  -7.443 -22.981  0.00  0.00    +0.036 C 
ENDBRANCH  16  19
ENDBRANCH  13  15
ENDBRANCH  12  13
ENDBRANCH   2  12
TORSDOF 4
ENDMDL
MODEL 4
REMARK VINA RESULT:      -8.9      9.316     12.827
REMARK  Name = 588963
REMARK  4 active torsions:
REMARK  status: ('A' for Active; 'I' for Inactive)
REMARK    1  A    between atoms: C_2  and  C_12
REMARK    2  A    between atoms: C_12  and  C_13
REMARK    3  A    between atoms: C_13  and  N_15
REMARK    4  A    between atoms: C_16  and  C_19
REMARK                            x       y       z     vdW  Elec       q    Type
REMARK                         _______ _______ _______ _____ _____    ______ ____
ROOT
ATOM      1  N   UNL     1      33.059  -8.034 -21.431  0.00  0.00    -0.357 N 
ATOM      2  C   UNL     1      32.788  -9.517 -23.059  0.00  0.00    -0.008 A 
ATOM      3  C   UNL     1      32.158 -10.023 -21.888  0.00  0.00    +0.013 A 
ATOM      4  C   UNL     1      33.334  -8.294 -22.747  0.00  0.00    +0.030 A 
ATOM      5  C   UNL     1      32.342  -9.073 -20.881  0.00  0.00    +0.056 A 
ATOM      6  C   UNL     1      31.446 -11.200 -21.586  0.00  0.00    +0.001 C 
ATOM      7  C   UNL     1      34.094  -7.333 -23.569  0.00  0.00    +0.049 C 
ATOM      8  C   UNL     1      31.849  -9.243 -19.582  0.00  0.00    +0.017 C 
ATOM      9  C   UNL     1      30.946 -11.384 -20.292  0.00  0.00    +0.000 C 
ATOM     10  C   UNL     1      31.146 -10.419 -19.307  0.00  0.00    +0.001 C 
ATOM     11  H   UNL     1      33.336  -7.222 -20.947  0.00  0.00    +0.166 HD
ENDROOT
BRANCH   2  12
ATOM     12  C   UNL     1      32.849 -10.186 -24.376  0.00  0.00    +0.049 C 
BRANCH  12  13
ATOM     13  C   UNL     1      34.127 -11.008 -24.604  0.00  0.00    +0.094 C 
BRANCH  13  15
ATOM     14  O   UNL     1      33.266 -13.668 -24.977  0.00  0.00    -0.270 OA
ATOM     15  N   UNL     1      34.264 -12.078 -23.651  0.00  0.00    -0.300 N 
ATOM     16  C   UNL     1      33.811 -13.374 -23.911  0.00  0.00    +0.252 C 
ATOM     17  H   UNL     1      34.692 -11.890 -22.785  0.00  0.00    +0.150 HD
BRANCH  16  19
ATOM     18  S   UNL     1      34.762 -15.836 -23.296  0.00  0.00    -0.082 S 
ATOM     19  C   UNL     1      34.053 -14.364 -22.853  0.00  0.00    +0.083 C 
ATOM     20  C   UNL     1      33.774 -14.245 -21.536  0.00  0.00    +0.012 C 
ATOM     21  C   UNL     1      34.159 -15.423 -20.833  0.00  0.00    +0.008 C 
ATOM     22  C   UNL     1      34.710 -16.368 -21.668  0.00  0.00    +0.036 C 
ENDBRANCH  16  19
ENDBRANCH  13  15
ENDBRANCH  12  13
ENDBRANCH   2  12
TORSDOF 4
ENDMDL
MODEL 5
REMARK VINA RESULT:      -8.9      8.926     13.189
REMARK  Name = 588963
REMARK  4 active torsions:
REMARK  status: ('A' for Active; 'I' for Inactive)
REMARK    1  A    between atoms: C_2  and  C_12
REMARK    2  A    between atoms: C_12  and  C_13
REMARK    3  A    between atoms: C_13  and  N_15
REMARK    4  A    between atoms: C_16  and  C_19
REMARK                            x       y       z     vdW  Elec       q    Type
REMARK                         _______ _______ _______ _____ _____    ______ ____
ROOT
ATOM      1  N   UNL     1      34.184 -16.683 -25.134  0.00  0.00    -0.357 N 
ATOM      2  C   UNL     1      33.611 -14.935 -23.893  0.00  0.00    -0.008 A 
ATOM      3  C   UNL     1      34.211 -15.905 -23.044  0.00  0.00    +0.013 A 
ATOM      4  C   UNL     1      33.608 -15.442 -25.172  0.00  0.00    +0.030 A 
ATOM      5  C   UNL     1      34.563 -16.992 -23.847  0.00  0.00    +0.056 A 
ATOM      6  C   UNL     1      34.492 -15.964 -21.665  0.00  0.00    +0.001 C 
ATOM      7  C   UNL     1      33.113 -14.871 -26.440  0.00  0.00    +0.049 C 
ATOM      8  C   UNL     1      35.182 -18.140 -23.338  0.00  0.00    +0.017 C 
ATOM      9  C   UNL     1      35.111 -17.104 -21.141  0.00  0.00    +0.000 C 
ATOM     10  C   UNL     1      35.450 -18.174 -21.967  0.00  0.00    +0.001 C 
ATOM     11  H   UNL     1      34.309 -17.271 -25.915  0.00  0.00    +0.166 HD
ENDROOT
BRANCH   2  12
ATOM     12  C   UNL     1      33.083 -13.618 -23.478  0.00  0.00    +0.049 C 
BRANCH  12  13
ATOM     13  C   UNL     1      33.835 -12.422 -24.082  0.00  0.00    +0.094 C 
BRANCH  13  15
ATOM     14  O   UNL     1      35.149  -9.927 -24.136  0.00  0.00    -0.270 OA
ATOM     15  N   UNL     1      33.263 -11.162 -23.688  0.00  0.00    -0.300 N 
ATOM     16  C   UNL     1      33.981  -9.965 -23.744  0.00  0.00    +0.252 C 
ATOM     17  H   UNL     1      32.333 -11.143 -23.366  0.00  0.00    +0.150 HD
BRANCH  16  19
ATOM     18  S   UNL     1      31.567  -8.865 -23.187  0.00  0.00    -0.082 S 
ATOM     19  C   UNL     1      33.250  -8.756 -23.339  0.00  0.00    +0.083 C 
ATOM     20  C   UNL     1      33.764  -7.537 -23.064  0.00  0.00    +0.012 C 
ATOM     21  C   UNL     1      32.730  -6.625 -22.706  0.00  0.00    +0.008 C 
ATOM     22  C   UNL     1      31.486  -7.216 -22.731  0.00  0.00    +0.036 C 
ENDBRANCH  16  19
ENDBRANCH  13  15
ENDBRANCH  12  13
ENDBRANCH   2  12
TORSDOF 4
ENDMDL
MODEL 6
REMARK VINA RESULT:      -8.9      8.571     12.402
REMARK  Name = 588963
REMARK  4 active torsions:
REMARK  status: ('A' for Active; 'I' for Inactive)
REMARK    1  A    between atoms: C_2  and  C_12
REMARK    2  A    between atoms: C_12  and  C_13
REMARK    3  A    between atoms: C_13  and  N_15
REMARK    4  A    between atoms: C_16  and  C_19
REMARK                            x       y       z     vdW  Elec       q    Type
REMARK                         _______ _______ _______ _____ _____    ______ ____
ROOT
ATOM      1  N   UNL     1      34.760 -16.876 -21.401  0.00  0.00    -0.357 N 
ATOM      2  C   UNL     1      34.455 -15.448 -23.073  0.00  0.00    -0.008 A 
ATOM      3  C   UNL     1      34.546 -16.759 -23.618  0.00  0.00    +0.013 A 
ATOM      4  C   UNL     1      34.591 -15.553 -21.708  0.00  0.00    +0.030 A 
ATOM      5  C   UNL     1      34.737 -17.636 -22.549  0.00  0.00    +0.056 A 
ATOM      6  C   UNL     1      34.483 -17.285 -24.924  0.00  0.00    +0.001 C 
ATOM      7  C   UNL     1      34.576 -14.523 -20.650  0.00  0.00    +0.049 C 
ATOM      8  C   UNL     1      34.870 -19.019 -22.720  0.00  0.00    +0.017 C 
ATOM      9  C   UNL     1      34.614 -18.666 -25.111  0.00  0.00    +0.000 C 
ATOM     10  C   UNL     1      34.804 -19.518 -24.024  0.00  0.00    +0.001 C 
ATOM     11  H   UNL     1      34.882 -17.233 -20.491  0.00  0.00    +0.166 HD
ENDROOT
BRANCH   2  12
ATOM     12  C   UNL     1      34.252 -14.197 -23.833  0.00  0.00    +0.049 C 
BRANCH  12  13
ATOM     13  C   UNL     1      32.954 -13.454 -23.485  0.00  0.00    +0.094 C 
BRANCH  13  15
ATOM     14  O   UNL     1      33.937 -11.545 -25.312  0.00  0.00    -0.270 OA
ATOM     15  N   UNL     1      33.180 -12.061 -23.204  0.00  0.00    -0.300 N 
ATOM     16  C   UNL     1      33.671 -11.175 -24.167  0.00  0.00    +0.252 C 
ATOM     17  H   UNL     1      32.982 -11.720 -22.303  0.00  0.00    +0.150 HD
BRANCH  16  19
ATOM     18  S   UNL     1      32.681  -9.162 -22.646  0.00  0.00    -0.082 S 
ATOM     19  C   UNL     1      33.818  -9.777 -23.738  0.00  0.00    +0.083 C 
ATOM     20  C   UNL     1      34.773  -8.898 -24.115  0.00  0.00    +0.012 C 
ATOM     21  C   UNL     1      34.574  -7.639 -23.480  0.00  0.00    +0.008 C 
ATOM     22  C   UNL     1      33.473  -7.643 -22.654  0.00  0.00    +0.036 C 
ENDBRANCH  16  19
ENDBRANCH  13  15
ENDBRANCH  12  13
ENDBRANCH   2  12
TORSDOF 4
ENDMDL
MODEL 7
REMARK VINA RESULT:      -8.8      8.477     11.427
REMARK  Name = 588963
REMARK  4 active torsions:
REMARK  status: ('A' for Active; 'I' for Inactive)
REMARK    1  A    between atoms: C_2  and  C_12
REMARK    2  A    between atoms: C_12  and  C_13
REMARK    3  A    between atoms: C_13  and  N_15
REMARK    4  A    between atoms: C_16  and  C_19
REMARK                            x       y       z     vdW  Elec       q    Type
REMARK                         _______ _______ _______ _____ _____    ______ ____
ROOT
ATOM      1  N   UNL     1      34.824 -16.917 -21.412  0.00  0.00    -0.357 N 
ATOM      2  C   UNL     1      34.338 -15.452 -23.007  0.00  0.00    -0.008 A 
ATOM      3  C   UNL     1      34.465 -16.737 -23.606  0.00  0.00    +0.013 A 
ATOM      4  C   UNL     1      34.564 -15.596 -21.658  0.00  0.00    +0.030 A 
ATOM      5  C   UNL     1      34.770 -17.638 -22.584  0.00  0.00    +0.056 A 
ATOM      6  C   UNL     1      34.350 -17.221 -24.924  0.00  0.00    +0.001 C 
ATOM      7  C   UNL     1      34.560 -14.605 -20.564  0.00  0.00    +0.049 C 
ATOM      8  C   UNL     1      34.966 -19.004 -22.814  0.00  0.00    +0.017 C 
ATOM      9  C   UNL     1      34.543 -18.585 -25.170  0.00  0.00    +0.000 C 
ATOM     10  C   UNL     1      34.847 -19.462 -24.130  0.00  0.00    +0.001 C 
ATOM     11  H   UNL     1      35.021 -17.297 -20.525  0.00  0.00    +0.166 HD
ENDROOT
BRANCH   2  12
ATOM     12  C   UNL     1      34.021 -14.190 -23.707  0.00  0.00    +0.049 C 
BRANCH  12  13
ATOM     13  C   UNL     1      32.534 -13.805 -23.664  0.00  0.00    +0.094 C 
BRANCH  13  15
ATOM     14  O   UNL     1      32.740 -11.002 -23.436  0.00  0.00    -0.270 OA
ATOM     15  N   UNL     1      32.204 -13.030 -22.498  0.00  0.00    -0.300 N 
ATOM     16  C   UNL     1      32.334 -11.639 -22.463  0.00  0.00    +0.252 C 
ATOM     17  H   UNL     1      31.876 -13.496 -21.695  0.00  0.00    +0.150 HD
BRANCH  16  19
ATOM     18  S   UNL     1      32.053  -9.301 -21.122  0.00  0.00    -0.082 S 
ATOM     19  C   UNL     1      31.927 -10.986 -21.211  0.00  0.00    +0.083 C 
ATOM     20  C   UNL     1      31.450 -11.577 -20.093  0.00  0.00    +0.012 C 
ATOM     21  C   UNL     1      31.167 -10.604 -19.093  0.00  0.00    +0.008 C 
ATOM     22  C   UNL     1      31.448  -9.325 -19.519  0.00  0.00    +0.036 C 
ENDBRANCH  16  19
ENDBRANCH  13  15
ENDBRANCH  12  13
ENDBRANCH   2  12
TORSDOF 4
ENDMDL
MODEL 8
REMARK VINA RESULT:      -8.7      4.317      7.006
REMARK  Name = 588963
REMARK  4 active torsions:
REMARK  status: ('A' for Active; 'I' for Inactive)
REMARK    1  A    between atoms: C_2  and  C_12
REMARK    2  A    between atoms: C_12  and  C_13
REMARK    3  A    between atoms: C_13  and  N_15
REMARK    4  A    between atoms: C_16  and  C_19
REMARK                            x       y       z     vdW  Elec       q    Type
REMARK                         _______ _______ _______ _____ _____    ______ ____
ROOT
ATOM      1  N   UNL     1      33.511 -14.515 -22.204  0.00  0.00    -0.357 N 
ATOM      2  C   UNL     1      34.656 -16.325 -22.791  0.00  0.00    -0.008 A 
ATOM      3  C   UNL     1      34.094 -15.753 -23.966  0.00  0.00    +0.013 A 
ATOM      4  C   UNL     1      34.279 -15.542 -21.724  0.00  0.00    +0.030 A 
ATOM      5  C   UNL     1      33.382 -14.619 -23.571  0.00  0.00    +0.056 A 
ATOM      6  C   UNL     1      34.124 -16.091 -25.333  0.00  0.00    +0.001 C 
ATOM      7  C   UNL     1      34.573 -15.662 -20.282  0.00  0.00    +0.049 C 
ATOM      8  C   UNL     1      32.694 -13.804 -24.478  0.00  0.00    +0.017 C 
ATOM      9  C   UNL     1      33.442 -15.286 -26.252  0.00  0.00    +0.000 C 
ATOM     10  C   UNL     1      32.738 -14.160 -25.829  0.00  0.00    +0.001 C 
ATOM     11  H   UNL     1      33.109 -13.806 -21.652  0.00  0.00    +0.166 HD
ENDROOT
BRANCH   2  12
ATOM     12  C   UNL     1      35.491 -17.541 -22.725  0.00  0.00    +0.049 C 
BRANCH  12  13
ATOM     13  C   UNL     1      34.727 -18.844 -23.008  0.00  0.00    +0.094 C 
BRANCH  13  15
ATOM     14  O   UNL     1      32.861 -19.160 -20.918  0.00  0.00    -0.270 OA
ATOM     15  N   UNL     1      34.830 -19.785 -21.925  0.00  0.00    -0.300 N 
ATOM     16  C   UNL     1      33.860 -19.881 -20.924  0.00  0.00    +0.252 C 
ATOM     17  H   UNL     1      35.612 -20.381 -21.887  0.00  0.00    +0.150 HD
BRANCH  16  19
ATOM     18  S   UNL     1      35.692 -21.282 -19.500  0.00  0.00    -0.082 S 
ATOM     19  C   UNL     1      34.090 -20.912 -19.903  0.00  0.00    +0.083 C 
ATOM     20  C   UNL     1      33.160 -21.621 -19.226  0.00  0.00    +0.012 C 
ATOM     21  C   UNL     1      33.781 -22.527 -18.318  0.00  0.00    +0.008 C 
ATOM     22  C   UNL     1      35.154 -22.447 -18.365  0.00  0.00    +0.036 C 
ENDBRANCH  16  19
ENDBRANCH  13  15
ENDBRANCH  12  13
ENDBRANCH   2  12
TORSDOF 4
ENDMDL
MODEL 9
REMARK VINA RESULT:      -8.7      3.172      7.432
REMARK  Name = 588963
REMARK  4 active torsions:
REMARK  status: ('A' for Active; 'I' for Inactive)
REMARK    1  A    between atoms: C_2  and  C_12
REMARK    2  A    between atoms: C_12  and  C_13
REMARK    3  A    between atoms: C_13  and  N_15
REMARK    4  A    between atoms: C_16  and  C_19
REMARK                            x       y       z     vdW  Elec       q    Type
REMARK                         _______ _______ _______ _____ _____    ______ ____
ROOT
ATOM      1  N   UNL     1      33.685 -24.715 -13.245  0.00  0.00    -0.357 N 
ATOM      2  C   UNL     1      33.106 -23.634 -15.095  0.00  0.00    -0.008 A 
ATOM      3  C   UNL     1      34.507 -23.470 -14.904  0.00  0.00    +0.013 A 
ATOM      4  C   UNL     1      32.630 -24.403 -14.059  0.00  0.00    +0.030 A 
ATOM      5  C   UNL     1      34.845 -24.159 -13.737  0.00  0.00    +0.056 A 
ATOM      6  C   UNL     1      35.523 -22.801 -15.614  0.00  0.00    +0.001 C 
ATOM      7  C   UNL     1      31.267 -24.881 -13.754  0.00  0.00    +0.049 C 
ATOM      8  C   UNL     1      36.153 -24.211 -13.243  0.00  0.00    +0.017 C 
ATOM      9  C   UNL     1      36.836 -22.845 -15.132  0.00  0.00    +0.000 C 
ATOM     10  C   UNL     1      37.144 -23.540 -13.964  0.00  0.00    +0.001 C 
ATOM     11  H   UNL     1      33.625 -25.258 -12.426  0.00  0.00    +0.166 HD
ENDROOT
BRANCH   2  12
ATOM     12  C   UNL     1      32.305 -23.076 -16.205  0.00  0.00    +0.049 C 
BRANCH  12  13
ATOM     13  C   UNL     1      32.804 -23.477 -17.602  0.00  0.00    +0.094 C 
BRANCH  13  15
ATOM     14  O   UNL     1      35.151 -22.693 -18.955  0.00  0.00    -0.270 OA
ATOM     15  N   UNL     1      32.929 -22.346 -18.482  0.00  0.00    -0.300 N 
ATOM     16  C   UNL     1      34.131 -22.022 -19.117  0.00  0.00    +0.252 C 
ATOM     17  H   UNL     1      32.140 -21.780 -18.642  0.00  0.00    +0.150 HD
BRANCH  16  19
ATOM     18  S   UNL     1      35.555 -20.312 -20.664  0.00  0.00    -0.082 S 
ATOM     19  C   UNL     1      34.091 -20.857 -20.012  0.00  0.00    +0.083 C 
ATOM     20  C   UNL     1      33.005 -20.148 -20.391  0.00  0.00    +0.012 C 
ATOM     21  C   UNL     1      33.378 -19.090 -21.269  0.00  0.00    +0.008 C 
ATOM     22  C   UNL     1      34.734 -19.064 -21.502  0.00  0.00    +0.036 C 
ENDBRANCH  16  19
ENDBRANCH  13  15
ENDBRANCH  12  13
ENDBRANCH   2  12
TORSDOF 4
ENDMDL
