MODEL 1
REMARK VINA RESULT:     -10.5      0.000      0.000
REMARK  Name = 11509180
REMARK  11 active torsions:
REMARK  status: ('A' for Active; 'I' for Inactive)
REMARK    1  A    between atoms: N_2  and  C_7
REMARK    2  A    between atoms: N_2  and  O_19
REMARK    3  A    between atoms: C_3  and  O_15
REMARK    4  A    between atoms: C_4  and  O_17
REMARK    5  A    between atoms: C_5  and  N_9
REMARK    6  A    between atoms: C_6  and  C_30
REMARK    7  A    between atoms: C_10  and  C_12
REMARK    8  A    between atoms: C_12  and  C_13
REMARK    9  A    between atoms: O_19  and  C_22
REMARK   10  A    between atoms: N_21  and  C_24
REMARK   11  A    between atoms: C_30  and  O_31
REMARK                            x       y       z     vdW  Elec       q    Type
REMARK                         _______ _______ _______ _____ _____    ______ ____
ROOT
ATOM      1  O   UNL     1      37.462 -23.217 -13.778  0.00  0.00    -0.333 OA
ATOM      2  C   UNL     1      36.264 -25.645 -14.847  0.00  0.00    +0.161 C 
ATOM      3  C   UNL     1      37.241 -25.624 -13.671  0.00  0.00    +0.169 C 
ATOM      4  C   UNL     1      36.033 -24.270 -15.477  0.00  0.00    +0.149 C 
ATOM      5  C   UNL     1      37.109 -24.311 -12.905  0.00  0.00    +0.175 C 
ATOM      6  C   UNL     1      37.013 -23.215 -15.048  0.00  0.00    +0.251 C 
ENDROOT
BRANCH   4   8
ATOM      7  O   UNL     1      33.857 -23.728 -17.270  0.00  0.00    -0.275 OA
ATOM      8  N   UNL     1      34.743 -23.726 -15.125  0.00  0.00    -0.300 N 
ATOM      9  C   UNL     1      33.752 -23.498 -16.068  0.00  0.00    +0.223 C 
ATOM     10  H   UNL     1      34.560 -23.509 -14.182  0.00  0.00    +0.150 HD
BRANCH   9  11
ATOM     11  C   UNL     1      32.496 -22.926 -15.435  0.00  0.00    +0.085 C 
BRANCH  11  12
ATOM     12  C   UNL     1      31.256 -23.152 -16.294  0.00  0.00    +0.010 C 
ATOM     13  C   UNL     1      29.980 -22.899 -15.508  0.00  0.00    +0.001 C 
ENDBRANCH  11  12
ENDBRANCH   9  11
ENDBRANCH   4   8
BRANCH   2  14
ATOM     14  O   UNL     1      36.798 -26.534 -15.833  0.00  0.00    -0.380 OA
ATOM     15  H   UNL     1      36.860 -27.429 -15.462  0.00  0.00    +0.211 HD
ENDBRANCH   2  14
BRANCH   3  16
ATOM     16  O   UNL     1      36.954 -26.741 -12.836  0.00  0.00    -0.379 OA
ATOM     17  H   UNL     1      36.006 -26.756 -12.631  0.00  0.00    +0.211 HD
ENDBRANCH   3  16
BRANCH   6  18
ATOM     18  N   UNL     1      37.405 -22.291 -15.860  0.00  0.00    +0.008 NA
BRANCH  18  19
ATOM     19  O   UNL     1      37.065 -22.675 -17.164  0.00  0.00    -0.330 OA
BRANCH  19  22
ATOM     20  O   UNL     1      37.177 -20.453 -17.720  0.00  0.00    -0.224 OA
ATOM     21  N   UNL     1      35.682 -21.927 -18.751  0.00  0.00    -0.249 N 
ATOM     22  C   UNL     1      36.684 -21.565 -17.871  0.00  0.00    +0.425 C 
ATOM     23  H   UNL     1      35.413 -22.874 -18.732  0.00  0.00    +0.158 HD
BRANCH  21  24
ATOM     24  C   UNL     1      34.994 -21.108 -19.675  0.00  0.00    +0.053 C 
ATOM     25  C   UNL     1      35.709 -20.346 -20.600  0.00  0.00    +0.015 C 
ATOM     26  C   UNL     1      33.600 -21.061 -19.663  0.00  0.00    +0.015 C 
ATOM     27  C   UNL     1      35.031 -19.539 -21.512  0.00  0.00    +0.001 C 
ATOM     28  C   UNL     1      32.921 -20.253 -20.576  0.00  0.00    +0.001 C 
ATOM     29  C   UNL     1      33.637 -19.492 -21.500  0.00  0.00    +0.000 C 
ENDBRANCH  21  24
ENDBRANCH  19  22
ENDBRANCH  18  19
ENDBRANCH   6  18
BRANCH   5  30
ATOM     30  C   UNL     1      38.043 -24.233 -11.701  0.00  0.00    +0.169 C 
BRANCH  30  31
ATOM     31  O   UNL     1      38.622 -22.941 -11.661  0.00  0.00    -0.379 OA
ATOM     32  H   UNL     1      38.927 -22.751 -10.760  0.00  0.00    +0.211 HD
ENDBRANCH  30  31
ENDBRANCH   5  30
TORSDOF 11
ENDMDL
MODEL 2
REMARK VINA RESULT:      -9.4      7.747     12.652
REMARK  Name = 11509180
REMARK  11 active torsions:
REMARK  status: ('A' for Active; 'I' for Inactive)
REMARK    1  A    between atoms: N_2  and  C_7
REMARK    2  A    between atoms: N_2  and  O_19
REMARK    3  A    between atoms: C_3  and  O_15
REMARK    4  A    between atoms: C_4  and  O_17
REMARK    5  A    between atoms: C_5  and  N_9
REMARK    6  A    between atoms: C_6  and  C_30
REMARK    7  A    between atoms: C_10  and  C_12
REMARK    8  A    between atoms: C_12  and  C_13
REMARK    9  A    between atoms: O_19  and  C_22
REMARK   10  A    between atoms: N_21  and  C_24
REMARK   11  A    between atoms: C_30  and  O_31
REMARK                            x       y       z     vdW  Elec       q    Type
REMARK                         _______ _______ _______ _____ _____    ______ ____
ROOT
ATOM      1  O   UNL     1      33.507 -14.715 -24.312  0.00  0.00    -0.333 OA
ATOM      2  C   UNL     1      33.782 -11.897 -24.987  0.00  0.00    +0.161 C 
ATOM      3  C   UNL     1      33.687 -13.016 -26.025  0.00  0.00    +0.169 C 
ATOM      4  C   UNL     1      33.807 -12.401 -23.543  0.00  0.00    +0.149 C 
ATOM      5  C   UNL     1      32.851 -14.169 -25.476  0.00  0.00    +0.175 C 
ATOM      6  C   UNL     1      34.042 -13.879 -23.402  0.00  0.00    +0.251 C 
ENDROOT
BRANCH   4   8
ATOM      7  O   UNL     1      32.749  -9.864 -22.714  0.00  0.00    -0.275 OA
ATOM      8  N   UNL     1      32.551 -12.171 -22.871  0.00  0.00    -0.300 N 
ATOM      9  C   UNL     1      32.125 -10.902 -22.509  0.00  0.00    +0.223 C 
ATOM     10  H   UNL     1      31.976 -12.943 -22.662  0.00  0.00    +0.150 HD
BRANCH   9  11
ATOM     11  C   UNL     1      30.772 -10.939 -21.820  0.00  0.00    +0.085 C 
BRANCH  11  12
ATOM     12  C   UNL     1      30.870 -11.404 -20.371  0.00  0.00    +0.010 C 
ATOM     13  C   UNL     1      31.462 -10.326 -19.478  0.00  0.00    +0.001 C 
ENDBRANCH  11  12
ENDBRANCH   9  11
ENDBRANCH   4   8
BRANCH   2  14
ATOM     14  O   UNL     1      34.983 -11.165 -25.255  0.00  0.00    -0.380 OA
ATOM     15  H   UNL     1      34.865 -10.632 -26.057  0.00  0.00    +0.211 HD
ENDBRANCH   2  14
BRANCH   3  16
ATOM     16  O   UNL     1      33.108 -12.475 -27.208  0.00  0.00    -0.379 OA
ATOM     17  H   UNL     1      33.321 -11.531 -27.270  0.00  0.00    +0.211 HD
ENDBRANCH   3  16
BRANCH   6  18
ATOM     18  N   UNL     1      34.714 -14.362 -22.411  0.00  0.00    +0.008 NA
BRANCH  18  19
ATOM     19  O   UNL     1      35.111 -15.665 -22.740  0.00  0.00    -0.330 OA
BRANCH  19  22
ATOM     20  O   UNL     1      34.944 -16.059 -20.486  0.00  0.00    -0.224 OA
ATOM     21  N   UNL     1      34.810 -17.775 -22.070  0.00  0.00    -0.249 N 
ATOM     22  C   UNL     1      34.953 -16.470 -21.641  0.00  0.00    +0.425 C 
ATOM     23  H   UNL     1      34.843 -17.915 -23.045  0.00  0.00    +0.158 HD
BRANCH  21  24
ATOM     24  C   UNL     1      34.621 -18.936 -21.286  0.00  0.00    +0.053 C 
ATOM     25  C   UNL     1      33.332 -19.349 -20.950  0.00  0.00    +0.015 C 
ATOM     26  C   UNL     1      35.725 -19.667 -20.847  0.00  0.00    +0.015 C 
ATOM     27  C   UNL     1      33.146 -20.495 -20.177  0.00  0.00    +0.001 C 
ATOM     28  C   UNL     1      35.538 -20.813 -20.073  0.00  0.00    +0.001 C 
ATOM     29  C   UNL     1      34.250 -21.226 -19.738  0.00  0.00    +0.000 C 
ENDBRANCH  21  24
ENDBRANCH  19  22
ENDBRANCH  18  19
ENDBRANCH   6  18
BRANCH   5  30
ATOM     30  C   UNL     1      32.696 -15.313 -26.473  0.00  0.00    +0.169 C 
BRANCH  30  31
ATOM     31  O   UNL     1      33.675 -16.297 -26.188  0.00  0.00    -0.379 OA
ATOM     32  H   UNL     1      34.257 -16.406 -26.955  0.00  0.00    +0.211 HD
ENDBRANCH  30  31
ENDBRANCH   5  30
TORSDOF 11
ENDMDL
MODEL 3
REMARK VINA RESULT:      -8.9      1.239      1.740
REMARK  Name = 11509180
REMARK  11 active torsions:
REMARK  status: ('A' for Active; 'I' for Inactive)
REMARK    1  A    between atoms: N_2  and  C_7
REMARK    2  A    between atoms: N_2  and  O_19
REMARK    3  A    between atoms: C_3  and  O_15
REMARK    4  A    between atoms: C_4  and  O_17
REMARK    5  A    between atoms: C_5  and  N_9
REMARK    6  A    between atoms: C_6  and  C_30
REMARK    7  A    between atoms: C_10  and  C_12
REMARK    8  A    between atoms: C_12  and  C_13
REMARK    9  A    between atoms: O_19  and  C_22
REMARK   10  A    between atoms: N_21  and  C_24
REMARK   11  A    between atoms: C_30  and  O_31
REMARK                            x       y       z     vdW  Elec       q    Type
REMARK                         _______ _______ _______ _____ _____    ______ ____
ROOT
ATOM      1  O   UNL     1      36.815 -22.819 -14.044  0.00  0.00    -0.333 OA
ATOM      2  C   UNL     1      35.507 -25.323 -14.744  0.00  0.00    +0.161 C 
ATOM      3  C   UNL     1      36.736 -25.228 -13.838  0.00  0.00    +0.169 C 
ATOM      4  C   UNL     1      35.070 -23.978 -15.327  0.00  0.00    +0.149 C 
ATOM      5  C   UNL     1      36.732 -23.898 -13.089  0.00  0.00    +0.175 C 
ATOM      6  C   UNL     1      36.076 -22.873 -15.168  0.00  0.00    +0.251 C 
ENDROOT
BRANCH   4   8
ATOM      7  O   UNL     1      32.516 -23.545 -16.564  0.00  0.00    -0.275 OA
ATOM      8  N   UNL     1      33.879 -23.474 -14.687  0.00  0.00    -0.300 N 
ATOM      9  C   UNL     1      32.686 -23.299 -15.373  0.00  0.00    +0.223 C 
ATOM     10  H   UNL     1      33.914 -23.248 -13.729  0.00  0.00    +0.150 HD
BRANCH   9  11
ATOM     11  C   UNL     1      31.593 -22.761 -14.467  0.00  0.00    +0.085 C 
BRANCH  11  12
ATOM     12  C   UNL     1      31.022 -23.832 -13.544  0.00  0.00    +0.010 C 
ATOM     13  C   UNL     1      30.380 -24.963 -14.332  0.00  0.00    +0.001 C 
ENDBRANCH  11  12
ENDBRANCH   9  11
ENDBRANCH   4   8
BRANCH   2  14
ATOM     14  O   UNL     1      35.830 -26.221 -15.811  0.00  0.00    -0.380 OA
ATOM     15  H   UNL     1      35.544 -27.118 -15.577  0.00  0.00    +0.211 HD
ENDBRANCH   2  14
BRANCH   3  16
ATOM     16  O   UNL     1      36.707 -26.330 -12.936  0.00  0.00    -0.379 OA
ATOM     17  H   UNL     1      37.051 -27.120 -13.380  0.00  0.00    +0.211 HD
ENDBRANCH   3  16
BRANCH   6  18
ATOM     18  N   UNL     1      36.220 -21.959 -16.069  0.00  0.00    +0.008 NA
BRANCH  18  19
ATOM     19  O   UNL     1      36.638 -22.574 -17.258  0.00  0.00    -0.330 OA
BRANCH  19  22
ATOM     20  O   UNL     1      34.775 -22.687 -18.592  0.00  0.00    -0.224 OA
ATOM     21  N   UNL     1      36.421 -21.050 -18.877  0.00  0.00    -0.249 N 
ATOM     22  C   UNL     1      35.834 -22.151 -18.284  0.00  0.00    +0.425 C 
ATOM     23  H   UNL     1      37.279 -20.758 -18.491  0.00  0.00    +0.158 HD
BRANCH  21  24
ATOM     24  C   UNL     1      35.945 -20.289 -19.969  0.00  0.00    +0.053 C 
ATOM     25  C   UNL     1      34.605 -20.375 -20.348  0.00  0.00    +0.015 C 
ATOM     26  C   UNL     1      36.815 -19.451 -20.667  0.00  0.00    +0.015 C 
ATOM     27  C   UNL     1      34.135 -19.623 -21.425  0.00  0.00    +0.001 C 
ATOM     28  C   UNL     1      36.345 -18.699 -21.744  0.00  0.00    +0.001 C 
ATOM     29  C   UNL     1      35.006 -18.786 -22.123  0.00  0.00    +0.000 C 
ENDBRANCH  21  24
ENDBRANCH  19  22
ENDBRANCH  18  19
ENDBRANCH   6  18
BRANCH   5  30
ATOM     30  C   UNL     1      37.921 -23.747 -12.147  0.00  0.00    +0.169 C 
BRANCH  30  31
ATOM     31  O   UNL     1      39.054 -24.345 -12.751  0.00  0.00    -0.379 OA
ATOM     32  H   UNL     1      39.801 -24.321 -12.133  0.00  0.00    +0.211 HD
ENDBRANCH  30  31
ENDBRANCH   5  30
TORSDOF 11
ENDMDL
MODEL 4
REMARK VINA RESULT:      -8.7      2.455      5.216
REMARK  Name = 11509180
REMARK  11 active torsions:
REMARK  status: ('A' for Active; 'I' for Inactive)
REMARK    1  A    between atoms: N_2  and  C_7
REMARK    2  A    between atoms: N_2  and  O_19
REMARK    3  A    between atoms: C_3  and  O_15
REMARK    4  A    between atoms: C_4  and  O_17
REMARK    5  A    between atoms: C_5  and  N_9
REMARK    6  A    between atoms: C_6  and  C_30
REMARK    7  A    between atoms: C_10  and  C_12
REMARK    8  A    between atoms: C_12  and  C_13
REMARK    9  A    between atoms: O_19  and  C_22
REMARK   10  A    between atoms: N_21  and  C_24
REMARK   11  A    between atoms: C_30  and  O_31
REMARK                            x       y       z     vdW  Elec       q    Type
REMARK                         _______ _______ _______ _____ _____    ______ ____
ROOT
ATOM      1  O   UNL     1      31.147 -24.346 -15.937  0.00  0.00    -0.333 OA
ATOM      2  C   UNL     1      32.260 -23.796 -13.305  0.00  0.00    +0.161 C 
ATOM      3  C   UNL     1      30.798 -24.169 -13.550  0.00  0.00    +0.169 C 
ATOM      4  C   UNL     1      33.079 -23.651 -14.589  0.00  0.00    +0.149 C 
ATOM      5  C   UNL     1      30.686 -25.070 -14.776  0.00  0.00    +0.175 C 
ATOM      6  C   UNL     1      32.260 -23.594 -15.848  0.00  0.00    +0.251 C 
ENDROOT
BRANCH   4   8
ATOM      7  O   UNL     1      35.948 -23.561 -14.669  0.00  0.00    -0.275 OA
ATOM      8  N   UNL     1      33.969 -24.769 -14.790  0.00  0.00    -0.300 N 
ATOM      9  C   UNL     1      35.348 -24.623 -14.813  0.00  0.00    +0.223 C 
ATOM     10  H   UNL     1      33.584 -25.667 -14.914  0.00  0.00    +0.150 HD
BRANCH   9  11
ATOM     11  C   UNL     1      36.048 -25.952 -15.037  0.00  0.00    +0.085 C 
BRANCH  11  12
ATOM     12  C   UNL     1      37.424 -26.003 -14.381  0.00  0.00    +0.010 C 
ATOM     13  C   UNL     1      37.323 -26.295 -12.893  0.00  0.00    +0.001 C 
ENDBRANCH  11  12
ENDBRANCH   9  11
ENDBRANCH   4   8
BRANCH   2  14
ATOM     14  O   UNL     1      32.272 -22.555 -12.592  0.00  0.00    -0.380 OA
ATOM     15  H   UNL     1      32.345 -22.730 -11.640  0.00  0.00    +0.211 HD
ENDBRANCH   2  14
BRANCH   3  16
ATOM     16  O   UNL     1      30.306 -24.821 -12.383  0.00  0.00    -0.379 OA
ATOM     17  H   UNL     1      29.606 -24.282 -11.982  0.00  0.00    +0.211 HD
ENDBRANCH   3  16
BRANCH   6  18
ATOM     18  N   UNL     1      32.620 -22.868 -16.853  0.00  0.00    +0.008 NA
BRANCH  18  19
ATOM     19  O   UNL     1      33.645 -23.537 -17.536  0.00  0.00    -0.330 OA
BRANCH  19  22
ATOM     20  O   UNL     1      35.654 -22.449 -17.732  0.00  0.00    -0.224 OA
ATOM     21  N   UNL     1      33.813 -21.929 -19.078  0.00  0.00    -0.249 N 
ATOM     22  C   UNL     1      34.492 -22.611 -18.087  0.00  0.00    +0.425 C 
ATOM     23  H   UNL     1      32.877 -22.200 -19.224  0.00  0.00    +0.158 HD
BRANCH  21  24
ATOM     24  C   UNL     1      34.293 -20.892 -19.909  0.00  0.00    +0.053 C 
ATOM     25  C   UNL     1      33.395 -20.054 -20.570  0.00  0.00    +0.015 C 
ATOM     26  C   UNL     1      35.667 -20.705 -20.067  0.00  0.00    +0.015 C 
ATOM     27  C   UNL     1      33.869 -19.030 -21.389  0.00  0.00    +0.001 C 
ATOM     28  C   UNL     1      36.141 -19.680 -20.887  0.00  0.00    +0.001 C 
ATOM     29  C   UNL     1      35.242 -18.843 -21.547  0.00  0.00    +0.000 C 
ENDBRANCH  21  24
ENDBRANCH  19  22
ENDBRANCH  18  19
ENDBRANCH   6  18
BRANCH   5  30
ATOM     30  C   UNL     1      29.251 -25.500 -15.064  0.00  0.00    +0.169 C 
BRANCH  30  31
ATOM     31  O   UNL     1      28.492 -24.350 -15.391  0.00  0.00    -0.379 OA
ATOM     32  H   UNL     1      29.089 -23.603 -15.553  0.00  0.00    +0.211 HD
ENDBRANCH  30  31
ENDBRANCH   5  30
TORSDOF 11
ENDMDL
MODEL 5
REMARK VINA RESULT:      -8.3      1.941      3.123
REMARK  Name = 11509180
REMARK  11 active torsions:
REMARK  status: ('A' for Active; 'I' for Inactive)
REMARK    1  A    between atoms: N_2  and  C_7
REMARK    2  A    between atoms: N_2  and  O_19
REMARK    3  A    between atoms: C_3  and  O_15
REMARK    4  A    between atoms: C_4  and  O_17
REMARK    5  A    between atoms: C_5  and  N_9
REMARK    6  A    between atoms: C_6  and  C_30
REMARK    7  A    between atoms: C_10  and  C_12
REMARK    8  A    between atoms: C_12  and  C_13
REMARK    9  A    between atoms: O_19  and  C_22
REMARK   10  A    between atoms: N_21  and  C_24
REMARK   11  A    between atoms: C_30  and  O_31
REMARK                            x       y       z     vdW  Elec       q    Type
REMARK                         _______ _______ _______ _____ _____    ______ ____
ROOT
ATOM      1  O   UNL     1      35.226 -22.692 -16.974  0.00  0.00    -0.333 OA
ATOM      2  C   UNL     1      35.348 -24.780 -14.950  0.00  0.00    +0.161 C 
ATOM      3  C   UNL     1      36.558 -23.961 -15.404  0.00  0.00    +0.169 C 
ATOM      4  C   UNL     1      34.068 -24.461 -15.724  0.00  0.00    +0.149 C 
ATOM      5  C   UNL     1      36.113 -22.569 -15.842  0.00  0.00    +0.175 C 
ATOM      6  C   UNL     1      34.278 -23.648 -16.970  0.00  0.00    +0.251 C 
ENDROOT
BRANCH   4   8
ATOM      7  O   UNL     1      31.937 -25.471 -14.086  0.00  0.00    -0.275 OA
ATOM      8  N   UNL     1      33.144 -23.680 -14.937  0.00  0.00    -0.300 N 
ATOM      9  C   UNL     1      32.142 -24.264 -14.175  0.00  0.00    +0.223 C 
ATOM     10  H   UNL     1      33.227 -22.699 -14.942  0.00  0.00    +0.150 HD
BRANCH   9  11
ATOM     11  C   UNL     1      31.314 -23.221 -13.445  0.00  0.00    +0.085 C 
BRANCH  11  12
ATOM     12  C   UNL     1      30.402 -22.439 -14.385  0.00  0.00    +0.010 C 
ATOM     13  C   UNL     1      29.524 -23.367 -15.209  0.00  0.00    +0.001 C 
ENDBRANCH  11  12
ENDBRANCH   9  11
ENDBRANCH   4   8
BRANCH   2  14
ATOM     14  O   UNL     1      35.677 -26.162 -15.125  0.00  0.00    -0.380 OA
ATOM     15  H   UNL     1      34.926 -26.711 -14.848  0.00  0.00    +0.211 HD
ENDBRANCH   2  14
BRANCH   3  16
ATOM     16  O   UNL     1      37.478 -23.893 -14.319  0.00  0.00    -0.379 OA
ATOM     17  H   UNL     1      37.773 -22.976 -14.202  0.00  0.00    +0.211 HD
ENDBRANCH   3  16
BRANCH   6  18
ATOM     18  N   UNL     1      33.548 -23.824 -18.020  0.00  0.00    +0.008 NA
BRANCH  18  19
ATOM     19  O   UNL     1      34.314 -23.505 -19.149  0.00  0.00    -0.330 OA
BRANCH  19  22
ATOM     20  O   UNL     1      32.746 -21.923 -19.697  0.00  0.00    -0.224 OA
ATOM     21  N   UNL     1      35.039 -21.569 -19.995  0.00  0.00    -0.249 N 
ATOM     22  C   UNL     1      33.916 -22.283 -19.627  0.00  0.00    +0.425 C 
ATOM     23  H   UNL     1      35.902 -22.025 -19.865  0.00  0.00    +0.158 HD
BRANCH  21  24
ATOM     24  C   UNL     1      35.105 -20.264 -20.536  0.00  0.00    +0.053 C 
ATOM     25  C   UNL     1      36.344 -19.679 -20.799  0.00  0.00    +0.015 C 
ATOM     26  C   UNL     1      33.931 -19.562 -20.806  0.00  0.00    +0.015 C 
ATOM     27  C   UNL     1      36.409 -18.393 -21.332  0.00  0.00    +0.001 C 
ATOM     28  C   UNL     1      33.996 -18.275 -21.340  0.00  0.00    +0.001 C 
ATOM     29  C   UNL     1      35.234 -17.691 -21.603  0.00  0.00    +0.000 C 
ENDBRANCH  21  24
ENDBRANCH  19  22
ENDBRANCH  18  19
ENDBRANCH   6  18
BRANCH   5  30
ATOM     30  C   UNL     1      37.277 -21.689 -16.285  0.00  0.00    +0.169 C 
BRANCH  30  31
ATOM     31  O   UNL     1      36.936 -21.076 -17.516  0.00  0.00    -0.379 OA
ATOM     32  H   UNL     1      36.331 -20.336 -17.353  0.00  0.00    +0.211 HD
ENDBRANCH  30  31
ENDBRANCH   5  30
TORSDOF 11
ENDMDL
MODEL 6
REMARK VINA RESULT:      -8.2      2.014      5.590
REMARK  Name = 11509180
REMARK  11 active torsions:
REMARK  status: ('A' for Active; 'I' for Inactive)
REMARK    1  A    between atoms: N_2  and  C_7
REMARK    2  A    between atoms: N_2  and  O_19
REMARK    3  A    between atoms: C_3  and  O_15
REMARK    4  A    between atoms: C_4  and  O_17
REMARK    5  A    between atoms: C_5  and  N_9
REMARK    6  A    between atoms: C_6  and  C_30
REMARK    7  A    between atoms: C_10  and  C_12
REMARK    8  A    between atoms: C_12  and  C_13
REMARK    9  A    between atoms: O_19  and  C_22
REMARK   10  A    between atoms: N_21  and  C_24
REMARK   11  A    between atoms: C_30  and  O_31
REMARK                            x       y       z     vdW  Elec       q    Type
REMARK                         _______ _______ _______ _____ _____    ______ ____
ROOT
ATOM      1  O   UNL     1      35.138 -25.084 -15.167  0.00  0.00    -0.333 OA
ATOM      2  C   UNL     1      37.337 -23.178 -15.169  0.00  0.00    +0.161 C 
ATOM      3  C   UNL     1      37.491 -24.655 -14.805  0.00  0.00    +0.169 C 
ATOM      4  C   UNL     1      35.893 -22.763 -15.452  0.00  0.00    +0.149 C 
ATOM      5  C   UNL     1      36.464 -25.491 -15.565  0.00  0.00    +0.175 C 
ATOM      6  C   UNL     1      34.860 -23.773 -15.034  0.00  0.00    +0.251 C 
ENDROOT
BRANCH   4   8
ATOM      7  O   UNL     1      37.213 -20.877 -17.167  0.00  0.00    -0.275 OA
ATOM      8  N   UNL     1      35.655 -22.570 -16.863  0.00  0.00    -0.300 N 
ATOM      9  C   UNL     1      36.347 -21.628 -17.608  0.00  0.00    +0.223 C 
ATOM     10  H   UNL     1      34.977 -23.126 -17.311  0.00  0.00    +0.150 HD
BRANCH   9  11
ATOM     11  C   UNL     1      35.908 -21.631 -19.062  0.00  0.00    +0.085 C 
BRANCH  11  12
ATOM     12  C   UNL     1      34.473 -22.116 -19.236  0.00  0.00    +0.010 C 
ATOM     13  C   UNL     1      33.584 -21.030 -19.820  0.00  0.00    +0.001 C 
ENDBRANCH  11  12
ENDBRANCH   9  11
ENDBRANCH   4   8
BRANCH   2  14
ATOM     14  O   UNL     1      37.844 -22.411 -14.071  0.00  0.00    -0.380 OA
ATOM     15  H   UNL     1      38.676 -21.985 -14.331  0.00  0.00    +0.211 HD
ENDBRANCH   2  14
BRANCH   3  16
ATOM     16  O   UNL     1      38.820 -25.054 -15.124  0.00  0.00    -0.379 OA
ATOM     17  H   UNL     1      38.998 -25.925 -14.736  0.00  0.00    +0.211 HD
ENDBRANCH   3  16
BRANCH   6  18
ATOM     18  N   UNL     1      33.706 -23.408 -14.585  0.00  0.00    +0.008 NA
BRANCH  18  19
ATOM     19  O   UNL     1      33.217 -24.423 -13.751  0.00  0.00    -0.330 OA
BRANCH  19  22
ATOM     20  O   UNL     1      31.121 -25.041 -13.052  0.00  0.00    -0.224 OA
ATOM     21  N   UNL     1      31.469 -23.739 -14.964  0.00  0.00    -0.249 N 
ATOM     22  C   UNL     1      31.850 -24.458 -13.847  0.00  0.00    +0.425 C 
ATOM     23  H   UNL     1      32.201 -23.337 -15.487  0.00  0.00    +0.158 HD
BRANCH  21  24
ATOM     24  C   UNL     1      30.162 -23.508 -15.449  0.00  0.00    +0.053 C 
ATOM     25  C   UNL     1      29.554 -24.442 -16.289  0.00  0.00    +0.015 C 
ATOM     26  C   UNL     1      29.480 -22.346 -15.088  0.00  0.00    +0.015 C 
ATOM     27  C   UNL     1      28.264 -24.214 -16.767  0.00  0.00    +0.001 C 
ATOM     28  C   UNL     1      28.189 -22.118 -15.567  0.00  0.00    +0.001 C 
ATOM     29  C   UNL     1      27.582 -23.052 -16.406  0.00  0.00    +0.000 C 
ENDBRANCH  21  24
ENDBRANCH  19  22
ENDBRANCH  18  19
ENDBRANCH   6  18
BRANCH   5  30
ATOM     30  C   UNL     1      36.578 -26.982 -15.265  0.00  0.00    +0.169 C 
BRANCH  30  31
ATOM     31  O   UNL     1      36.922 -27.657 -16.462  0.00  0.00    -0.379 OA
ATOM     32  H   UNL     1      36.490 -28.525 -16.479  0.00  0.00    +0.211 HD
ENDBRANCH  30  31
ENDBRANCH   5  30
TORSDOF 11
ENDMDL
MODEL 7
REMARK VINA RESULT:      -8.2     13.041     16.588
REMARK  Name = 11509180
REMARK  11 active torsions:
REMARK  status: ('A' for Active; 'I' for Inactive)
REMARK    1  A    between atoms: N_2  and  C_7
REMARK    2  A    between atoms: N_2  and  O_19
REMARK    3  A    between atoms: C_3  and  O_15
REMARK    4  A    between atoms: C_4  and  O_17
REMARK    5  A    between atoms: C_5  and  N_9
REMARK    6  A    between atoms: C_6  and  C_30
REMARK    7  A    between atoms: C_10  and  C_12
REMARK    8  A    between atoms: C_12  and  C_13
REMARK    9  A    between atoms: O_19  and  C_22
REMARK   10  A    between atoms: N_21  and  C_24
REMARK   11  A    between atoms: C_30  and  O_31
REMARK                            x       y       z     vdW  Elec       q    Type
REMARK                         _______ _______ _______ _____ _____    ______ ____
ROOT
ATOM      1  O   UNL     1      32.510  -6.668 -24.114  0.00  0.00    -0.333 OA
ATOM      2  C   UNL     1      32.005  -6.347 -21.266  0.00  0.00    +0.161 C 
ATOM      3  C   UNL     1      31.490  -5.383 -22.336  0.00  0.00    +0.169 C 
ATOM      4  C   UNL     1      32.893  -7.462 -21.821  0.00  0.00    +0.149 C 
ATOM      5  C   UNL     1      31.255  -6.132 -23.645  0.00  0.00    +0.175 C 
ATOM      6  C   UNL     1      33.350  -7.249 -23.237  0.00  0.00    +0.251 C 
ENDROOT
BRANCH   4   8
ATOM      7  O   UNL     1      32.392  -9.194 -19.586  0.00  0.00    -0.275 OA
ATOM      8  N   UNL     1      32.206  -8.731 -21.853  0.00  0.00    -0.300 N 
ATOM      9  C   UNL     1      32.013  -9.499 -20.714  0.00  0.00    +0.223 C 
ATOM     10  H   UNL     1      31.862  -9.064 -22.714  0.00  0.00    +0.150 HD
BRANCH   9  11
ATOM     11  C   UNL     1      31.262 -10.782 -21.023  0.00  0.00    +0.085 C 
BRANCH  11  12
ATOM     12  C   UNL     1      31.617 -11.911 -20.061  0.00  0.00    +0.010 C 
ATOM     13  C   UNL     1      32.263 -13.080 -20.786  0.00  0.00    +0.001 C 
ENDBRANCH  11  12
ENDBRANCH   9  11
ENDBRANCH   4   8
BRANCH   2  14
ATOM     14  O   UNL     1      32.750  -5.576 -20.317  0.00  0.00    -0.380 OA
ATOM     15  H   UNL     1      32.138  -5.137 -19.705  0.00  0.00    +0.211 HD
ENDBRANCH   2  14
BRANCH   3  16
ATOM     16  O   UNL     1      30.288  -4.790 -21.856  0.00  0.00    -0.379 OA
ATOM     17  H   UNL     1      29.888  -4.257 -22.560  0.00  0.00    +0.211 HD
ENDBRANCH   3  16
BRANCH   6  18
ATOM     18  N   UNL     1      34.514  -7.641 -23.634  0.00  0.00    +0.008 NA
BRANCH  18  19
ATOM     19  O   UNL     1      34.718  -8.950 -23.179  0.00  0.00    -0.330 OA
BRANCH  19  22
ATOM     20  O   UNL     1      35.264  -9.560 -25.321  0.00  0.00    -0.224 OA
ATOM     21  N   UNL     1      34.001 -10.936 -23.912  0.00  0.00    -0.249 N 
ATOM     22  C   UNL     1      34.714  -9.802 -24.253  0.00  0.00    +0.425 C 
ATOM     23  H   UNL     1      33.628 -10.952 -23.001  0.00  0.00    +0.158 HD
BRANCH  21  24
ATOM     24  C   UNL     1      33.741 -12.075 -24.708  0.00  0.00    +0.053 C 
ATOM     25  C   UNL     1      33.583 -13.324 -24.108  0.00  0.00    +0.015 C 
ATOM     26  C   UNL     1      33.642 -11.949 -26.094  0.00  0.00    +0.015 C 
ATOM     27  C   UNL     1      33.326 -14.447 -24.893  0.00  0.00    +0.001 C 
ATOM     28  C   UNL     1      33.385 -13.073 -26.879  0.00  0.00    +0.001 C 
ATOM     29  C   UNL     1      33.227 -14.321 -26.278  0.00  0.00    +0.000 C 
ENDBRANCH  21  24
ENDBRANCH  19  22
ENDBRANCH  18  19
ENDBRANCH   6  18
BRANCH   5  30
ATOM     30  C   UNL     1      30.717  -5.232 -24.752  0.00  0.00    +0.169 C 
BRANCH  30  31
ATOM     31  O   UNL     1      30.831  -3.883 -24.332  0.00  0.00    -0.379 OA
ATOM     32  H   UNL     1      31.509  -3.815 -23.643  0.00  0.00    +0.211 HD
ENDBRANCH  30  31
ENDBRANCH   5  30
TORSDOF 11
ENDMDL
MODEL 8
REMARK VINA RESULT:      -8.1      9.863     14.204
REMARK  Name = 11509180
REMARK  11 active torsions:
REMARK  status: ('A' for Active; 'I' for Inactive)
REMARK    1  A    between atoms: N_2  and  C_7
REMARK    2  A    between atoms: N_2  and  O_19
REMARK    3  A    between atoms: C_3  and  O_15
REMARK    4  A    between atoms: C_4  and  O_17
REMARK    5  A    between atoms: C_5  and  N_9
REMARK    6  A    between atoms: C_6  and  C_30
REMARK    7  A    between atoms: C_10  and  C_12
REMARK    8  A    between atoms: C_12  and  C_13
REMARK    9  A    between atoms: O_19  and  C_22
REMARK   10  A    between atoms: N_21  and  C_24
REMARK   11  A    between atoms: C_30  and  O_31
REMARK                            x       y       z     vdW  Elec       q    Type
REMARK                         _______ _______ _______ _____ _____    ______ ____
ROOT
ATOM      1  O   UNL     1      33.478 -12.177 -23.877  0.00  0.00    -0.333 OA
ATOM      2  C   UNL     1      33.077 -14.084 -26.039  0.00  0.00    +0.161 C 
ATOM      3  C   UNL     1      33.488 -12.627 -26.254  0.00  0.00    +0.169 C 
ATOM      4  C   UNL     1      32.808 -14.435 -24.575  0.00  0.00    +0.149 C 
ATOM      5  C   UNL     1      34.301 -12.131 -25.062  0.00  0.00    +0.175 C 
ATOM      6  C   UNL     1      32.693 -13.249 -23.660  0.00  0.00    +0.251 C 
ENDROOT
BRANCH   4   8
ATOM      7  O   UNL     1      33.772 -16.960 -25.545  0.00  0.00    -0.275 OA
ATOM      8  N   UNL     1      33.874 -15.225 -24.006  0.00  0.00    -0.300 N 
ATOM      9  C   UNL     1      34.269 -16.438 -24.550  0.00  0.00    +0.223 C 
ATOM     10  H   UNL     1      34.337 -14.891 -23.204  0.00  0.00    +0.150 HD
BRANCH   9  11
ATOM     11  C   UNL     1      35.410 -17.060 -23.764  0.00  0.00    +0.085 C 
BRANCH  11  12
ATOM     12  C   UNL     1      35.318 -18.582 -23.709  0.00  0.00    +0.010 C 
ATOM     13  C   UNL     1      34.637 -19.054 -22.435  0.00  0.00    +0.001 C 
ENDBRANCH  11  12
ENDBRANCH   9  11
ENDBRANCH   4   8
BRANCH   2  14
ATOM     14  O   UNL     1      31.891 -14.313 -26.807  0.00  0.00    -0.380 OA
ATOM     15  H   UNL     1      31.134 -14.420 -26.210  0.00  0.00    +0.211 HD
ENDBRANCH   2  14
BRANCH   3  16
ATOM     16  O   UNL     1      34.240 -12.552 -27.461  0.00  0.00    -0.379 OA
ATOM     17  H   UNL     1      34.235 -13.417 -27.899  0.00  0.00    +0.211 HD
ENDBRANCH   3  16
BRANCH   6  18
ATOM     18  N   UNL     1      31.883 -13.251 -22.654  0.00  0.00    +0.008 NA
BRANCH  18  19
ATOM     19  O   UNL     1      32.396 -12.394 -21.672  0.00  0.00    -0.330 OA
BRANCH  19  22
ATOM     20  O   UNL     1      30.454 -11.257 -21.230  0.00  0.00    -0.224 OA
ATOM     21  N   UNL     1      32.369 -10.191 -22.048  0.00  0.00    -0.249 N 
ATOM     22  C   UNL     1      31.618 -11.267 -21.613  0.00  0.00    +0.425 C 
ATOM     23  H   UNL     1      33.294 -10.393 -22.318  0.00  0.00    +0.158 HD
BRANCH  21  24
ATOM     24  C   UNL     1      31.975  -8.838 -22.153  0.00  0.00    +0.053 C 
ATOM     25  C   UNL     1      31.307  -8.392 -23.293  0.00  0.00    +0.015 C 
ATOM     26  C   UNL     1      32.254  -7.948 -21.115  0.00  0.00    +0.015 C 
ATOM     27  C   UNL     1      30.917  -7.057 -23.396  0.00  0.00    +0.001 C 
ATOM     28  C   UNL     1      31.864  -6.612 -21.218  0.00  0.00    +0.001 C 
ATOM     29  C   UNL     1      31.196  -6.167 -22.359  0.00  0.00    +0.000 C 
ENDBRANCH  21  24
ENDBRANCH  19  22
ENDBRANCH  18  19
ENDBRANCH   6  18
BRANCH   5  30
ATOM     30  C   UNL     1      34.765 -10.687 -25.222  0.00  0.00    +0.169 C 
BRANCH  30  31
ATOM     31  O   UNL     1      35.006 -10.145 -23.936  0.00  0.00    -0.379 OA
ATOM     32  H   UNL     1      35.958 -10.007 -23.816  0.00  0.00    +0.211 HD
ENDBRANCH  30  31
ENDBRANCH   5  30
TORSDOF 11
ENDMDL
MODEL 9
REMARK VINA RESULT:      -8.0      1.818      4.507
REMARK  Name = 11509180
REMARK  11 active torsions:
REMARK  status: ('A' for Active; 'I' for Inactive)
REMARK    1  A    between atoms: N_2  and  C_7
REMARK    2  A    between atoms: N_2  and  O_19
REMARK    3  A    between atoms: C_3  and  O_15
REMARK    4  A    between atoms: C_4  and  O_17
REMARK    5  A    between atoms: C_5  and  N_9
REMARK    6  A    between atoms: C_6  and  C_30
REMARK    7  A    between atoms: C_10  and  C_12
REMARK    8  A    between atoms: C_12  and  C_13
REMARK    9  A    between atoms: O_19  and  C_22
REMARK   10  A    between atoms: N_21  and  C_24
REMARK   11  A    between atoms: C_30  and  O_31
REMARK                            x       y       z     vdW  Elec       q    Type
REMARK                         _______ _______ _______ _____ _____    ______ ____
ROOT
ATOM      1  O   UNL     1      34.236 -23.200 -15.880  0.00  0.00    -0.333 OA
ATOM      2  C   UNL     1      34.154 -24.052 -13.097  0.00  0.00    +0.161 C 
ATOM      3  C   UNL     1      32.914 -23.678 -13.911  0.00  0.00    +0.169 C 
ATOM      4  C   UNL     1      35.467 -23.855 -13.857  0.00  0.00    +0.149 C 
ATOM      5  C   UNL     1      33.139 -23.998 -15.386  0.00  0.00    +0.175 C 
ATOM      6  C   UNL     1      35.341 -23.057 -15.124  0.00  0.00    +0.251 C 
ENDROOT
BRANCH   4   8
ATOM      7  O   UNL     1      37.158 -25.574 -12.299  0.00  0.00    -0.275 OA
ATOM      8  N   UNL     1      36.039 -25.111 -14.279  0.00  0.00    -0.300 N 
ATOM      9  C   UNL     1      36.848 -25.873 -13.449  0.00  0.00    +0.223 C 
ATOM     10  H   UNL     1      35.848 -25.439 -15.188  0.00  0.00    +0.150 HD
BRANCH   9  11
ATOM     11  C   UNL     1      37.313 -27.146 -14.135  0.00  0.00    +0.085 C 
BRANCH  11  12
ATOM     12  C   UNL     1      38.393 -26.882 -15.179  0.00  0.00    +0.010 C 
ATOM     13  C   UNL     1      39.496 -25.993 -14.629  0.00  0.00    +0.001 C 
ENDBRANCH  11  12
ENDBRANCH   9  11
ENDBRANCH   4   8
BRANCH   2  14
ATOM     14  O   UNL     1      34.158 -23.234 -11.922  0.00  0.00    -0.380 OA
ATOM     15  H   UNL     1      35.014 -22.783 -11.845  0.00  0.00    +0.211 HD
ENDBRANCH   2  14
BRANCH   3  16
ATOM     16  O   UNL     1      31.806 -24.403 -13.387  0.00  0.00    -0.379 OA
ATOM     17  H   UNL     1      31.644 -25.186 -13.935  0.00  0.00    +0.211 HD
ENDBRANCH   3  16
BRANCH   6  18
ATOM     18  N   UNL     1      36.283 -22.266 -15.517  0.00  0.00    +0.008 NA
BRANCH  18  19
ATOM     19  O   UNL     1      36.679 -22.657 -16.804  0.00  0.00    -0.330 OA
BRANCH  19  22
ATOM     20  O   UNL     1      37.180 -20.584 -17.650  0.00  0.00    -0.224 OA
ATOM     21  N   UNL     1      35.454 -21.905 -18.515  0.00  0.00    -0.249 N 
ATOM     22  C   UNL     1      36.501 -21.604 -17.664  0.00  0.00    +0.425 C 
ATOM     23  H   UNL     1      35.024 -22.780 -18.376  0.00  0.00    +0.158 HD
BRANCH  21  24
ATOM     24  C   UNL     1      34.924 -21.114 -19.559  0.00  0.00    +0.053 C 
ATOM     25  C   UNL     1      35.782 -20.453 -20.438  0.00  0.00    +0.015 C 
ATOM     26  C   UNL     1      33.542 -20.995 -19.711  0.00  0.00    +0.015 C 
ATOM     27  C   UNL     1      35.258 -19.673 -21.469  0.00  0.00    +0.001 C 
ATOM     28  C   UNL     1      33.019 -20.215 -20.742  0.00  0.00    +0.001 C 
ATOM     29  C   UNL     1      33.877 -19.554 -21.621  0.00  0.00    +0.000 C 
ENDBRANCH  21  24
ENDBRANCH  19  22
ENDBRANCH  18  19
ENDBRANCH   6  18
BRANCH   5  30
ATOM     30  C   UNL     1      31.929 -23.670 -16.253  0.00  0.00    +0.169 C 
BRANCH  30  31
ATOM     31  O   UNL     1      31.082 -22.791 -15.534  0.00  0.00    -0.379 OA
ATOM     32  H   UNL     1      30.205 -23.193 -15.437  0.00  0.00    +0.211 HD
ENDBRANCH  30  31
ENDBRANCH   5  30
TORSDOF 11
ENDMDL
