MODEL 1
REMARK VINA RESULT:      -7.4      0.000      0.000
REMARK  Name = 4380
REMARK  7 active torsions:
REMARK  status: ('A' for Active; 'I' for Inactive)
REMARK    1  A    between atoms: O_1  and  C_4
REMARK    2  A    between atoms: O_1  and  C_10
REMARK    3  A    between atoms: C_10  and  C_11
REMARK    4  A    between atoms: C_11  and  C_12
REMARK    5  A    between atoms: C_12  and  N_13
REMARK    6  A    between atoms: N_13  and  C_16
REMARK    7  A    between atoms: C_16  and  C_17
REMARK                            x       y       z     vdW  Elec       q    Type
REMARK                         _______ _______ _______ _____ _____    ______ ____
ROOT
ATOM      1  O   UNL     1      34.692 -18.381 -22.231  0.00  0.00    -0.475 OA
ENDROOT
BRANCH   1   4
ATOM      2 CL   UNL     1      37.201 -19.428 -20.951  0.00  0.00    -0.079 Cl
ATOM      3 CL   UNL     1      33.800 -22.675 -18.324  0.00  0.00    -0.082 Cl
ATOM      4  C   UNL     1      34.506 -19.384 -21.315  0.00  0.00    +0.149 C 
ATOM      5  C   UNL     1      35.586 -19.955 -20.651  0.00  0.00    +0.092 C 
ATOM      6  C   UNL     1      33.209 -19.820 -21.062  0.00  0.00    +0.039 C 
ATOM      7  C   UNL     1      35.367 -20.975 -19.723  0.00  0.00    +0.026 C 
ATOM      8  C   UNL     1      32.992 -20.840 -20.135  0.00  0.00    +0.015 C 
ATOM      9  C   UNL     1      34.070 -21.416 -19.467  0.00  0.00    +0.059 C 
ENDBRANCH   1   4
BRANCH   1  10
ATOM     10  C   UNL     1      34.879 -18.775 -23.584  0.00  0.00    +0.203 C 
BRANCH  10  11
ATOM     11  C   UNL     1      34.775 -17.545 -24.475  0.00  0.00    +0.025 C 
BRANCH  11  12
ATOM     12  C   UNL     1      35.119 -16.270 -23.710  0.00  0.00    -0.072 C 
BRANCH  12  13
ATOM     13  N   UNL     1      33.911 -15.497 -23.447  0.00  0.00    +0.394 N 
ATOM     14  C   UNL     1      33.436 -14.849 -24.672  0.00  0.00    -0.099 C 
ATOM     15  H   UNL     1      33.188 -16.139 -23.118  0.00  0.00    -0.078 HD
BRANCH  13  16
ATOM     16  C   UNL     1      34.155 -14.498 -22.405  0.00  0.00    +0.003 C 
BRANCH  16  17
ATOM     17  C   UNL     1      33.350 -14.778 -21.212  0.00  0.00    -0.101 C 
ATOM     18  C   UNL     1      32.695 -15.006 -20.232  0.00  0.00    -0.016 C 
ENDBRANCH  16  17
ENDBRANCH  13  16
ENDBRANCH  12  13
ENDBRANCH  11  12
ENDBRANCH  10  11
ENDBRANCH   1  10
TORSDOF 7
ENDMDL
MODEL 2
REMARK VINA RESULT:      -7.3      3.258      6.410
REMARK  Name = 4380
REMARK  7 active torsions:
REMARK  status: ('A' for Active; 'I' for Inactive)
REMARK    1  A    between atoms: O_1  and  C_4
REMARK    2  A    between atoms: O_1  and  C_10
REMARK    3  A    between atoms: C_10  and  C_11
REMARK    4  A    between atoms: C_11  and  C_12
REMARK    5  A    between atoms: C_12  and  N_13
REMARK    6  A    between atoms: N_13  and  C_16
REMARK    7  A    between atoms: C_16  and  C_17
REMARK                            x       y       z     vdW  Elec       q    Type
REMARK                         _______ _______ _______ _____ _____    ______ ____
ROOT
ATOM      1  O   UNL     1      35.537 -17.556 -21.655  0.00  0.00    -0.475 OA
ENDROOT
BRANCH   1   4
ATOM      2 CL   UNL     1      34.473 -14.790 -21.159  0.00  0.00    -0.079 Cl
ATOM      3 CL   UNL     1      33.165 -14.999 -26.380  0.00  0.00    -0.082 Cl
ATOM      4  C   UNL     1      34.980 -16.940 -22.745  0.00  0.00    +0.149 C 
ATOM      5  C   UNL     1      34.451 -15.658 -22.649  0.00  0.00    +0.092 C 
ATOM      6  C   UNL     1      34.955 -17.628 -23.955  0.00  0.00    +0.039 C 
ATOM      7  C   UNL     1      33.889 -15.056 -23.776  0.00  0.00    +0.026 C 
ATOM      8  C   UNL     1      34.392 -17.026 -25.080  0.00  0.00    +0.015 C 
ATOM      9  C   UNL     1      33.860 -15.740 -24.991  0.00  0.00    +0.059 C 
ENDBRANCH   1   4
BRANCH   1  10
ATOM     10  C   UNL     1      36.065 -18.861 -21.855  0.00  0.00    +0.203 C 
BRANCH  10  11
ATOM     11  C   UNL     1      36.759 -19.313 -20.578  0.00  0.00    +0.025 C 
BRANCH  11  12
ATOM     12  C   UNL     1      36.550 -20.803 -20.326  0.00  0.00    -0.072 C 
BRANCH  12  13
ATOM     13  N   UNL     1      35.776 -21.006 -19.107  0.00  0.00    +0.394 N 
ATOM     14  C   UNL     1      36.555 -21.760 -18.122  0.00  0.00    -0.099 C 
ATOM     15  H   UNL     1      35.556 -20.090 -18.714  0.00  0.00    -0.078 HD
BRANCH  13  16
ATOM     16  C   UNL     1      34.522 -21.700 -19.402  0.00  0.00    +0.003 C 
BRANCH  16  17
ATOM     17  C   UNL     1      33.556 -20.792 -20.028  0.00  0.00    -0.101 C 
ATOM     18  C   UNL     1      32.763 -20.053 -20.545  0.00  0.00    -0.016 C 
ENDBRANCH  16  17
ENDBRANCH  13  16
ENDBRANCH  12  13
ENDBRANCH  11  12
ENDBRANCH  10  11
ENDBRANCH   1  10
TORSDOF 7
ENDMDL
MODEL 3
REMARK VINA RESULT:      -7.2      3.063      6.058
REMARK  Name = 4380
REMARK  7 active torsions:
REMARK  status: ('A' for Active; 'I' for Inactive)
REMARK    1  A    between atoms: O_1  and  C_4
REMARK    2  A    between atoms: O_1  and  C_10
REMARK    3  A    between atoms: C_10  and  C_11
REMARK    4  A    between atoms: C_11  and  C_12
REMARK    5  A    between atoms: C_12  and  N_13
REMARK    6  A    between atoms: N_13  and  C_16
REMARK    7  A    between atoms: C_16  and  C_17
REMARK                            x       y       z     vdW  Elec       q    Type
REMARK                         _______ _______ _______ _____ _____    ______ ____
ROOT
ATOM      1  O   UNL     1      35.153 -15.636 -23.164  0.00  0.00    -0.475 OA
ENDROOT
BRANCH   1   4
ATOM      2 CL   UNL     1      34.575 -15.741 -20.216  0.00  0.00    -0.079 Cl
ATOM      3 CL   UNL     1      31.073 -11.814 -21.366  0.00  0.00    -0.082 Cl
ATOM      4  C   UNL     1      34.204 -14.751 -22.722  0.00  0.00    +0.149 C 
ATOM      5  C   UNL     1      33.844 -14.698 -21.380  0.00  0.00    +0.092 C 
ATOM      6  C   UNL     1      33.606 -13.903 -23.649  0.00  0.00    +0.039 C 
ATOM      7  C   UNL     1      32.874 -13.787 -20.960  0.00  0.00    +0.026 C 
ATOM      8  C   UNL     1      32.635 -12.994 -23.228  0.00  0.00    +0.015 C 
ATOM      9  C   UNL     1      32.270 -12.936 -21.884  0.00  0.00    +0.059 C 
ENDBRANCH   1   4
BRANCH   1  10
ATOM     10  C   UNL     1      34.815 -16.430 -24.294  0.00  0.00    +0.203 C 
BRANCH  10  11
ATOM     11  C   UNL     1      35.087 -17.892 -23.969  0.00  0.00    +0.025 C 
BRANCH  11  12
ATOM     12  C   UNL     1      36.050 -18.034 -22.794  0.00  0.00    -0.072 C 
BRANCH  12  13
ATOM     13  N   UNL     1      35.358 -18.592 -21.638  0.00  0.00    +0.394 N 
ATOM     14  C   UNL     1      36.284 -19.365 -20.807  0.00  0.00    -0.099 C 
ATOM     15  H   UNL     1      34.992 -17.819 -21.083  0.00  0.00    -0.078 HD
BRANCH  13  16
ATOM     16  C   UNL     1      34.236 -19.431 -22.065  0.00  0.00    +0.003 C 
BRANCH  16  17
ATOM     17  C   UNL     1      33.536 -19.997 -20.907  0.00  0.00    -0.101 C 
ATOM     18  C   UNL     1      32.960 -20.464 -19.963  0.00  0.00    -0.016 C 
ENDBRANCH  16  17
ENDBRANCH  13  16
ENDBRANCH  12  13
ENDBRANCH  11  12
ENDBRANCH  10  11
ENDBRANCH   1  10
TORSDOF 7
ENDMDL
MODEL 4
REMARK VINA RESULT:      -7.2      5.695      9.330
REMARK  Name = 4380
REMARK  7 active torsions:
REMARK  status: ('A' for Active; 'I' for Inactive)
REMARK    1  A    between atoms: O_1  and  C_4
REMARK    2  A    between atoms: O_1  and  C_10
REMARK    3  A    between atoms: C_10  and  C_11
REMARK    4  A    between atoms: C_11  and  C_12
REMARK    5  A    between atoms: C_12  and  N_13
REMARK    6  A    between atoms: N_13  and  C_16
REMARK    7  A    between atoms: C_16  and  C_17
REMARK                            x       y       z     vdW  Elec       q    Type
REMARK                         _______ _______ _______ _____ _____    ______ ____
ROOT
ATOM      1  O   UNL     1      36.081 -22.450 -17.717  0.00  0.00    -0.475 OA
ENDROOT
BRANCH   1   4
ATOM      2 CL   UNL     1      33.112 -22.587 -18.163  0.00  0.00    -0.079 Cl
ATOM      3 CL   UNL     1      34.156 -19.173 -22.195  0.00  0.00    -0.082 Cl
ATOM      4  C   UNL     1      35.610 -21.691 -18.758  0.00  0.00    +0.149 C 
ATOM      5  C   UNL     1      34.255 -21.667 -19.069  0.00  0.00    +0.092 C 
ATOM      6  C   UNL     1      36.520 -20.943 -19.498  0.00  0.00    +0.039 C 
ATOM      7  C   UNL     1      33.804 -20.886 -20.135  0.00  0.00    +0.026 C 
ATOM      8  C   UNL     1      36.069 -20.163 -20.563  0.00  0.00    +0.015 C 
ATOM      9  C   UNL     1      34.712 -20.135 -20.881  0.00  0.00    +0.059 C 
ENDBRANCH   1   4
BRANCH   1  10
ATOM     10  C   UNL     1      36.928 -21.798 -16.781  0.00  0.00    +0.203 C 
BRANCH  10  11
ATOM     11  C   UNL     1      37.675 -22.852 -15.975  0.00  0.00    +0.025 C 
BRANCH  11  12
ATOM     12  C   UNL     1      36.718 -23.860 -15.348  0.00  0.00    -0.072 C 
BRANCH  12  13
ATOM     13  N   UNL     1      37.384 -25.145 -15.166  0.00  0.00    +0.394 N 
ATOM     14  C   UNL     1      36.410 -26.239 -15.198  0.00  0.00    -0.099 C 
ATOM     15  H   UNL     1      38.041 -25.273 -15.936  0.00  0.00    -0.078 HD
BRANCH  13  16
ATOM     16  C   UNL     1      38.130 -25.165 -13.907  0.00  0.00    +0.003 C 
BRANCH  16  17
ATOM     17  C   UNL     1      39.506 -25.622 -14.122  0.00  0.00    -0.101 C 
ATOM     18  C   UNL     1      40.633 -25.999 -14.293  0.00  0.00    -0.016 C 
ENDBRANCH  16  17
ENDBRANCH  13  16
ENDBRANCH  12  13
ENDBRANCH  11  12
ENDBRANCH  10  11
ENDBRANCH   1  10
TORSDOF 7
ENDMDL
MODEL 5
REMARK VINA RESULT:      -7.1      2.869      4.339
REMARK  Name = 4380
REMARK  7 active torsions:
REMARK  status: ('A' for Active; 'I' for Inactive)
REMARK    1  A    between atoms: O_1  and  C_4
REMARK    2  A    between atoms: O_1  and  C_10
REMARK    3  A    between atoms: C_10  and  C_11
REMARK    4  A    between atoms: C_11  and  C_12
REMARK    5  A    between atoms: C_12  and  N_13
REMARK    6  A    between atoms: N_13  and  C_16
REMARK    7  A    between atoms: C_16  and  C_17
REMARK                            x       y       z     vdW  Elec       q    Type
REMARK                         _______ _______ _______ _____ _____    ______ ____
ROOT
ATOM      1  O   UNL     1      34.639 -15.341 -23.847  0.00  0.00    -0.475 OA
ENDROOT
BRANCH   1   4
ATOM      2 CL   UNL     1      34.634 -14.985 -20.862  0.00  0.00    -0.079 Cl
ATOM      3 CL   UNL     1      35.465 -20.307 -20.820  0.00  0.00    -0.082 Cl
ATOM      4  C   UNL     1      34.829 -16.488 -23.120  0.00  0.00    +0.149 C 
ATOM      5  C   UNL     1      34.848 -16.460 -21.730  0.00  0.00    +0.092 C 
ATOM      6  C   UNL     1      35.003 -17.686 -23.806  0.00  0.00    +0.039 C 
ATOM      7  C   UNL     1      35.045 -17.644 -21.017  0.00  0.00    +0.026 C 
ATOM      8  C   UNL     1      35.201 -18.869 -23.093  0.00  0.00    +0.015 C 
ATOM      9  C   UNL     1      35.221 -18.847 -21.699  0.00  0.00    +0.059 C 
ENDBRANCH   1   4
BRANCH   1  10
ATOM     10  C   UNL     1      33.802 -15.438 -24.991  0.00  0.00    +0.203 C 
BRANCH  10  11
ATOM     11  C   UNL     1      32.864 -14.240 -25.020  0.00  0.00    +0.025 C 
BRANCH  11  12
ATOM     12  C   UNL     1      33.629 -12.936 -25.231  0.00  0.00    -0.072 C 
BRANCH  12  13
ATOM     13  N   UNL     1      33.853 -12.270 -23.953  0.00  0.00    +0.394 N 
ATOM     14  C   UNL     1      32.763 -12.563 -23.020  0.00  0.00    -0.099 C 
ATOM     15  H   UNL     1      34.723 -12.626 -23.558  0.00  0.00    -0.078 HD
BRANCH  13  16
ATOM     16  C   UNL     1      33.985 -10.824 -24.143  0.00  0.00    +0.003 C 
BRANCH  16  17
ATOM     17  C   UNL     1      34.944 -10.521 -25.209  0.00  0.00    -0.101 C 
ATOM     18  C   UNL     1      35.725 -10.270 -26.086  0.00  0.00    -0.016 C 
ENDBRANCH  16  17
ENDBRANCH  13  16
ENDBRANCH  12  13
ENDBRANCH  11  12
ENDBRANCH  10  11
ENDBRANCH   1  10
TORSDOF 7
ENDMDL
MODEL 6
REMARK VINA RESULT:      -7.1      1.070      2.394
REMARK  Name = 4380
REMARK  7 active torsions:
REMARK  status: ('A' for Active; 'I' for Inactive)
REMARK    1  A    between atoms: O_1  and  C_4
REMARK    2  A    between atoms: O_1  and  C_10
REMARK    3  A    between atoms: C_10  and  C_11
REMARK    4  A    between atoms: C_11  and  C_12
REMARK    5  A    between atoms: C_12  and  N_13
REMARK    6  A    between atoms: N_13  and  C_16
REMARK    7  A    between atoms: C_16  and  C_17
REMARK                            x       y       z     vdW  Elec       q    Type
REMARK                         _______ _______ _______ _____ _____    ______ ____
ROOT
ATOM      1  O   UNL     1      34.197 -17.969 -21.768  0.00  0.00    -0.475 OA
ENDROOT
BRANCH   1   4
ATOM      2 CL   UNL     1      36.875 -19.129 -21.050  0.00  0.00    -0.079 Cl
ATOM      3 CL   UNL     1      33.920 -22.937 -18.647  0.00  0.00    -0.082 Cl
ATOM      4  C   UNL     1      34.156 -19.129 -21.038  0.00  0.00    +0.149 C 
ATOM      5  C   UNL     1      35.325 -19.767 -20.642  0.00  0.00    +0.092 C 
ATOM      6  C   UNL     1      32.913 -19.656 -20.701  0.00  0.00    +0.039 C 
ATOM      7  C   UNL     1      35.252 -20.947 -19.900  0.00  0.00    +0.026 C 
ATOM      8  C   UNL     1      32.841 -20.836 -19.960  0.00  0.00    +0.015 C 
ATOM      9  C   UNL     1      34.010 -21.481 -19.560  0.00  0.00    +0.059 C 
ENDBRANCH   1   4
BRANCH   1  10
ATOM     10  C   UNL     1      33.829 -16.773 -21.093  0.00  0.00    +0.203 C 
BRANCH  10  11
ATOM     11  C   UNL     1      34.453 -15.588 -21.815  0.00  0.00    +0.025 C 
BRANCH  11  12
ATOM     12  C   UNL     1      33.418 -14.822 -22.634  0.00  0.00    -0.072 C 
BRANCH  12  13
ATOM     13  N   UNL     1      34.002 -14.369 -23.890  0.00  0.00    +0.394 N 
ATOM     14  C   UNL     1      33.772 -12.935 -24.077  0.00  0.00    -0.099 C 
ATOM     15  H   UNL     1      35.008 -14.534 -23.851  0.00  0.00    -0.078 HD
BRANCH  13  16
ATOM     16  C   UNL     1      33.450 -15.123 -25.017  0.00  0.00    +0.003 C 
BRANCH  16  17
ATOM     17  C   UNL     1      34.105 -16.428 -25.144  0.00  0.00    -0.101 C 
ATOM     18  C   UNL     1      34.637 -17.500 -25.247  0.00  0.00    -0.016 C 
ENDBRANCH  16  17
ENDBRANCH  13  16
ENDBRANCH  12  13
ENDBRANCH  11  12
ENDBRANCH  10  11
ENDBRANCH   1  10
TORSDOF 7
ENDMDL
MODEL 7
REMARK VINA RESULT:      -7.1      4.016      6.594
REMARK  Name = 4380
REMARK  7 active torsions:
REMARK  status: ('A' for Active; 'I' for Inactive)
REMARK    1  A    between atoms: O_1  and  C_4
REMARK    2  A    between atoms: O_1  and  C_10
REMARK    3  A    between atoms: C_10  and  C_11
REMARK    4  A    between atoms: C_11  and  C_12
REMARK    5  A    between atoms: C_12  and  N_13
REMARK    6  A    between atoms: N_13  and  C_16
REMARK    7  A    between atoms: C_16  and  C_17
REMARK                            x       y       z     vdW  Elec       q    Type
REMARK                         _______ _______ _______ _____ _____    ______ ____
ROOT
ATOM      1  O   UNL     1      34.342 -14.748 -23.704  0.00  0.00    -0.475 OA
ENDROOT
BRANCH   1   4
ATOM      2 CL   UNL     1      33.894 -12.056 -24.963  0.00  0.00    -0.079 Cl
ATOM      3 CL   UNL     1      30.783 -11.215 -20.647  0.00  0.00    -0.082 Cl
ATOM      4  C   UNL     1      33.513 -13.907 -23.008  0.00  0.00    +0.149 C 
ATOM      5  C   UNL     1      33.225 -12.633 -23.482  0.00  0.00    +0.092 C 
ATOM      6  C   UNL     1      32.965 -14.358 -21.811  0.00  0.00    +0.039 C 
ATOM      7  C   UNL     1      32.378 -11.798 -22.751  0.00  0.00    +0.026 C 
ATOM      8  C   UNL     1      32.119 -13.523 -21.080  0.00  0.00    +0.015 C 
ATOM      9  C   UNL     1      31.826 -12.244 -21.550  0.00  0.00    +0.059 C 
ENDBRANCH   1   4
BRANCH   1  10
ATOM     10  C   UNL     1      33.726 -15.642 -24.622  0.00  0.00    +0.203 C 
BRANCH  10  11
ATOM     11  C   UNL     1      34.485 -16.961 -24.611  0.00  0.00    +0.025 C 
BRANCH  11  12
ATOM     12  C   UNL     1      35.353 -17.097 -23.364  0.00  0.00    -0.072 C 
BRANCH  12  13
ATOM     13  N   UNL     1      34.574 -17.653 -22.264  0.00  0.00    +0.394 N 
ATOM     14  C   UNL     1      35.056 -17.139 -20.980  0.00  0.00    -0.099 C 
ATOM     15  H   UNL     1      33.603 -17.365 -22.385  0.00  0.00    -0.078 HD
BRANCH  13  16
ATOM     16  C   UNL     1      34.632 -19.116 -22.279  0.00  0.00    +0.003 C 
BRANCH  16  17
ATOM     17  C   UNL     1      33.714 -19.686 -21.289  0.00  0.00    -0.101 C 
ATOM     18  C   UNL     1      32.963 -20.149 -20.474  0.00  0.00    -0.016 C 
ENDBRANCH  16  17
ENDBRANCH  13  16
ENDBRANCH  12  13
ENDBRANCH  11  12
ENDBRANCH  10  11
ENDBRANCH   1  10
TORSDOF 7
ENDMDL
MODEL 8
REMARK VINA RESULT:      -7.0      3.600      4.710
REMARK  Name = 4380
REMARK  7 active torsions:
REMARK  status: ('A' for Active; 'I' for Inactive)
REMARK    1  A    between atoms: O_1  and  C_4
REMARK    2  A    between atoms: O_1  and  C_10
REMARK    3  A    between atoms: C_10  and  C_11
REMARK    4  A    between atoms: C_11  and  C_12
REMARK    5  A    between atoms: C_12  and  N_13
REMARK    6  A    between atoms: N_13  and  C_16
REMARK    7  A    between atoms: C_16  and  C_17
REMARK                            x       y       z     vdW  Elec       q    Type
REMARK                         _______ _______ _______ _____ _____    ______ ____
ROOT
ATOM      1  O   UNL     1      35.004 -15.231 -23.635  0.00  0.00    -0.475 OA
ENDROOT
BRANCH   1   4
ATOM      2 CL   UNL     1      34.633 -15.011 -20.660  0.00  0.00    -0.079 Cl
ATOM      3 CL   UNL     1      34.709 -20.394 -20.850  0.00  0.00    -0.082 Cl
ATOM      4  C   UNL     1      34.931 -16.425 -22.965  0.00  0.00    +0.149 C 
ATOM      5  C   UNL     1      34.761 -16.462 -21.585  0.00  0.00    +0.092 C 
ATOM      6  C   UNL     1      35.033 -17.604 -23.697  0.00  0.00    +0.039 C 
ATOM      7  C   UNL     1      34.691 -17.692 -20.930  0.00  0.00    +0.026 C 
ATOM      8  C   UNL     1      34.964 -18.833 -23.041  0.00  0.00    +0.015 C 
ATOM      9  C   UNL     1      34.793 -18.877 -21.658  0.00  0.00    +0.059 C 
ENDBRANCH   1   4
BRANCH   1  10
ATOM     10  C   UNL     1      33.777 -14.671 -24.082  0.00  0.00    +0.203 C 
BRANCH  10  11
ATOM     11  C   UNL     1      33.613 -13.288 -23.466  0.00  0.00    +0.025 C 
BRANCH  11  12
ATOM     12  C   UNL     1      33.964 -12.187 -24.461  0.00  0.00    -0.072 C 
BRANCH  12  13
ATOM     13  N   UNL     1      34.079 -10.905 -23.777  0.00  0.00    +0.394 N 
ATOM     14  C   UNL     1      32.756 -10.401 -23.399  0.00  0.00    -0.099 C 
ATOM     15  H   UNL     1      34.627 -11.046 -22.928  0.00  0.00    -0.078 HD
BRANCH  13  16
ATOM     16  C   UNL     1      34.771  -9.930 -24.621  0.00  0.00    +0.003 C 
BRANCH  16  17
ATOM     17  C   UNL     1      34.814  -8.614 -23.975  0.00  0.00    -0.101 C 
ATOM     18  C   UNL     1      34.846  -7.539 -23.442  0.00  0.00    -0.016 C 
ENDBRANCH  16  17
ENDBRANCH  13  16
ENDBRANCH  12  13
ENDBRANCH  11  12
ENDBRANCH  10  11
ENDBRANCH   1  10
TORSDOF 7
ENDMDL
MODEL 9
REMARK VINA RESULT:      -7.0      1.299      1.662
REMARK  Name = 4380
REMARK  7 active torsions:
REMARK  status: ('A' for Active; 'I' for Inactive)
REMARK    1  A    between atoms: O_1  and  C_4
REMARK    2  A    between atoms: O_1  and  C_10
REMARK    3  A    between atoms: C_10  and  C_11
REMARK    4  A    between atoms: C_11  and  C_12
REMARK    5  A    between atoms: C_12  and  N_13
REMARK    6  A    between atoms: N_13  and  C_16
REMARK    7  A    between atoms: C_16  and  C_17
REMARK                            x       y       z     vdW  Elec       q    Type
REMARK                         _______ _______ _______ _____ _____    ______ ____
ROOT
ATOM      1  O   UNL     1      34.792 -18.013 -21.846  0.00  0.00    -0.475 OA
ENDROOT
BRANCH   1   4
ATOM      2 CL   UNL     1      37.265 -19.419 -20.875  0.00  0.00    -0.079 Cl
ATOM      3 CL   UNL     1      33.736 -22.845 -18.679  0.00  0.00    -0.082 Cl
ATOM      4  C   UNL     1      34.569 -19.143 -21.104  0.00  0.00    +0.149 C 
ATOM      5  C   UNL     1      35.628 -19.886 -20.595  0.00  0.00    +0.092 C 
ATOM      6  C   UNL     1      33.254 -19.533 -20.869  0.00  0.00    +0.039 C 
ATOM      7  C   UNL     1      35.370 -21.034 -19.843  0.00  0.00    +0.026 C 
ATOM      8  C   UNL     1      32.997 -20.680 -20.118  0.00  0.00    +0.015 C 
ATOM      9  C   UNL     1      34.054 -21.430 -19.605  0.00  0.00    +0.059 C 
ENDBRANCH   1   4
BRANCH   1  10
ATOM     10  C   UNL     1      34.922 -16.791 -21.132  0.00  0.00    +0.203 C 
BRANCH  10  11
ATOM     11  C   UNL     1      34.033 -15.742 -21.784  0.00  0.00    +0.025 C 
BRANCH  11  12
ATOM     12  C   UNL     1      34.524 -15.383 -23.183  0.00  0.00    -0.072 C 
BRANCH  12  13
ATOM     13  N   UNL     1      33.434 -14.826 -23.974  0.00  0.00    +0.394 N 
ATOM     14  C   UNL     1      33.489 -15.324 -25.350  0.00  0.00    -0.099 C 
ATOM     15  H   UNL     1      32.553 -15.124 -23.556  0.00  0.00    -0.078 HD
BRANCH  13  16
ATOM     16  C   UNL     1      33.482 -13.362 -23.961  0.00  0.00    +0.003 C 
BRANCH  16  17
ATOM     17  C   UNL     1      32.623 -12.819 -22.905  0.00  0.00    -0.101 C 
ATOM     18  C   UNL     1      31.919 -12.380 -22.038  0.00  0.00    -0.016 C 
ENDBRANCH  16  17
ENDBRANCH  13  16
ENDBRANCH  12  13
ENDBRANCH  11  12
ENDBRANCH  10  11
ENDBRANCH   1  10
TORSDOF 7
ENDMDL
