MODEL 1
REMARK VINA RESULT:      -9.7      0.000      0.000
REMARK  Name = 71353
REMARK  6 active torsions:
REMARK  status: ('A' for Active; 'I' for Inactive)
REMARK    1  A    between atoms: C_1  and  C_2
REMARK    2  A    between atoms: C_1  and  C_13
REMARK    3  A    between atoms: C_2  and  C_3
REMARK    4  A    between atoms: C_2  and  N_9
REMARK    5  A    between atoms: C_13  and  O_14
REMARK    6  A    between atoms: O_14  and  C_15
REMARK                            x       y       z     vdW  Elec       q    Type
REMARK                         _______ _______ _______ _____ _____    ______ ____
ROOT
ATOM      1  C   UNL     1      34.913 -23.476 -16.498  0.00  0.00    +0.031 C 
ENDROOT
BRANCH   1   2
ATOM      2  C   UNL     1      34.364 -23.228 -15.079  0.00  0.00    -0.031 C 
BRANCH   2   3
ATOM      3  C   UNL     1      32.851 -23.298 -15.001  0.00  0.00    -0.041 C 
ATOM      4  C   UNL     1      32.112 -23.215 -16.166  0.00  0.00    -0.006 C 
ATOM      5  C   UNL     1      32.249 -23.442 -13.764  0.00  0.00    -0.006 C 
ATOM      6  C   UNL     1      30.721 -23.278 -16.093  0.00  0.00    -0.000 C 
ATOM      7  C   UNL     1      30.857 -23.506 -13.692  0.00  0.00    -0.000 C 
ATOM      8  C   UNL     1      30.093 -23.423 -14.856  0.00  0.00    -0.000 C 
ENDBRANCH   2   3
BRANCH   2   9
ATOM      9  N   UNL     1      34.975 -24.194 -14.158  0.00  0.00    +0.388 N 
ATOM     10  C   UNL     1      35.870 -23.510 -13.228  0.00  0.00    -0.100 C 
ATOM     11  C   UNL     1      35.695 -25.220 -14.906  0.00  0.00    -0.100 C 
ATOM     12  H   UNL     1      34.238 -24.648 -13.619  0.00  0.00    -0.079 HD
ENDBRANCH   2   9
ENDBRANCH   1   2
BRANCH   1  13
ATOM     13  C   UNL     1      35.672 -22.278 -17.065  0.00  0.00    +0.204 C 
BRANCH  13  14
ATOM     14  O   UNL     1      35.748 -22.385 -18.483  0.00  0.00    -0.476 OA
BRANCH  14  15
ATOM     15  C   UNL     1      34.892 -21.606 -19.208  0.00  0.00    +0.138 C 
ATOM     16  C   UNL     1      35.366 -20.579 -20.041  0.00  0.00    +0.034 C 
ATOM     17  C   UNL     1      34.440 -19.797 -20.772  0.00  0.00    +0.003 C 
ATOM     18  C   UNL     1      33.524 -21.859 -19.098  0.00  0.00    +0.037 C 
ATOM     19  C   UNL     1      36.740 -20.310 -20.164  0.00  0.00    +0.003 C 
ATOM     20  C   UNL     1      33.067 -20.066 -20.649  0.00  0.00    +0.000 C 
ATOM     21  C   UNL     1      32.613 -21.090 -19.818  0.00  0.00    +0.003 C 
ATOM     22  C   UNL     1      34.914 -18.770 -21.604  0.00  0.00    +0.000 C 
ATOM     23  C   UNL     1      37.193 -19.286 -20.995  0.00  0.00    +0.000 C 
ATOM     24  C   UNL     1      36.282 -18.517 -21.714  0.00  0.00    +0.000 C 
ENDBRANCH  14  15
ENDBRANCH  13  14
ENDBRANCH   1  13
TORSDOF 6
ENDMDL
MODEL 2
REMARK VINA RESULT:      -9.6      8.816     12.720
REMARK  Name = 71353
REMARK  6 active torsions:
REMARK  status: ('A' for Active; 'I' for Inactive)
REMARK    1  A    between atoms: C_1  and  C_2
REMARK    2  A    between atoms: C_1  and  C_13
REMARK    3  A    between atoms: C_2  and  C_3
REMARK    4  A    between atoms: C_2  and  N_9
REMARK    5  A    between atoms: C_13  and  O_14
REMARK    6  A    between atoms: O_14  and  C_15
REMARK                            x       y       z     vdW  Elec       q    Type
REMARK                         _______ _______ _______ _____ _____    ______ ____
ROOT
ATOM      1  C   UNL     1      33.727  -9.852 -23.688  0.00  0.00    +0.031 C 
ENDROOT
BRANCH   1   2
ATOM      2  C   UNL     1      32.341  -9.314 -23.281  0.00  0.00    -0.031 C 
BRANCH   2   3
ATOM      3  C   UNL     1      31.914  -9.746 -21.891  0.00  0.00    -0.041 C 
ATOM      4  C   UNL     1      31.166 -10.899 -21.746  0.00  0.00    -0.006 C 
ATOM      5  C   UNL     1      32.282  -8.974 -20.805  0.00  0.00    -0.006 C 
ATOM      6  C   UNL     1      30.773 -11.295 -20.468  0.00  0.00    -0.000 C 
ATOM      7  C   UNL     1      31.889  -9.371 -19.527  0.00  0.00    -0.000 C 
ATOM      8  C   UNL     1      31.134 -10.531 -19.358  0.00  0.00    -0.000 C 
ENDBRANCH   2   3
BRANCH   2   9
ATOM      9  N   UNL     1      32.351  -7.849 -23.388  0.00  0.00    +0.388 N 
ATOM     10  C   UNL     1      31.219  -7.393 -24.189  0.00  0.00    -0.100 C 
ATOM     11  C   UNL     1      33.611  -7.394 -23.968  0.00  0.00    -0.100 C 
ATOM     12  H   UNL     1      32.266  -7.450 -22.453  0.00  0.00    -0.079 HD
ENDBRANCH   2   9
ENDBRANCH   1   2
BRANCH   1  13
ATOM     13  C   UNL     1      33.653 -11.130 -24.522  0.00  0.00    +0.204 C 
BRANCH  13  14
ATOM     14  O   UNL     1      33.362 -12.239 -23.676  0.00  0.00    -0.476 OA
BRANCH  14  15
ATOM     15  C   UNL     1      33.522 -13.484 -24.212  0.00  0.00    +0.138 C 
ATOM     16  C   UNL     1      33.978 -14.561 -23.436  0.00  0.00    +0.034 C 
ATOM     17  C   UNL     1      34.130 -15.834 -24.037  0.00  0.00    +0.003 C 
ATOM     18  C   UNL     1      33.218 -13.659 -25.563  0.00  0.00    +0.037 C 
ATOM     19  C   UNL     1      34.289 -14.404 -22.074  0.00  0.00    +0.003 C 
ATOM     20  C   UNL     1      33.819 -15.991 -25.397  0.00  0.00    +0.000 C 
ATOM     21  C   UNL     1      33.366 -14.910 -26.154  0.00  0.00    +0.003 C 
ATOM     22  C   UNL     1      34.586 -16.911 -23.260  0.00  0.00    +0.000 C 
ATOM     23  C   UNL     1      34.742 -15.485 -21.318  0.00  0.00    +0.000 C 
ATOM     24  C   UNL     1      34.890 -16.736 -21.910  0.00  0.00    +0.000 C 
ENDBRANCH  14  15
ENDBRANCH  13  14
ENDBRANCH   1  13
TORSDOF 6
ENDMDL
MODEL 3
REMARK VINA RESULT:      -9.5      8.721     12.771
REMARK  Name = 71353
REMARK  6 active torsions:
REMARK  status: ('A' for Active; 'I' for Inactive)
REMARK    1  A    between atoms: C_1  and  C_2
REMARK    2  A    between atoms: C_1  and  C_13
REMARK    3  A    between atoms: C_2  and  C_3
REMARK    4  A    between atoms: C_2  and  N_9
REMARK    5  A    between atoms: C_13  and  O_14
REMARK    6  A    between atoms: O_14  and  C_15
REMARK                            x       y       z     vdW  Elec       q    Type
REMARK                         _______ _______ _______ _____ _____    ______ ____
ROOT
ATOM      1  C   UNL     1      31.670 -10.898 -22.575  0.00  0.00    +0.031 C 
ENDROOT
BRANCH   1   2
ATOM      2  C   UNL     1      32.940 -10.030 -22.677  0.00  0.00    -0.031 C 
BRANCH   2   3
ATOM      3  C   UNL     1      33.756 -10.303 -23.926  0.00  0.00    -0.041 C 
ATOM      4  C   UNL     1      33.407 -11.366 -24.738  0.00  0.00    -0.006 C 
ATOM      5  C   UNL     1      34.828  -9.482 -24.220  0.00  0.00    -0.006 C 
ATOM      6  C   UNL     1      34.158 -11.618 -25.886  0.00  0.00    -0.000 C 
ATOM      7  C   UNL     1      35.579  -9.734 -25.369  0.00  0.00    -0.000 C 
ATOM      8  C   UNL     1      35.244 -10.802 -26.202  0.00  0.00    -0.000 C 
ENDBRANCH   2   3
BRANCH   2   9
ATOM      9  N   UNL     1      32.553  -8.615 -22.611  0.00  0.00    +0.388 N 
ATOM     10  C   UNL     1      32.485  -8.174 -21.220  0.00  0.00    -0.100 C 
ATOM     11  C   UNL     1      31.272  -8.409 -23.281  0.00  0.00    -0.100 C 
ATOM     12  H   UNL     1      33.260  -8.057 -23.090  0.00  0.00    -0.079 HD
ENDBRANCH   2   9
ENDBRANCH   1   2
BRANCH   1  13
ATOM     13  C   UNL     1      31.860 -12.137 -21.701  0.00  0.00    +0.204 C 
BRANCH  13  14
ATOM     14  O   UNL     1      31.940 -13.297 -22.523  0.00  0.00    -0.476 OA
BRANCH  14  15
ATOM     15  C   UNL     1      32.874 -14.233 -22.182  0.00  0.00    +0.138 C 
ATOM     16  C   UNL     1      33.486 -15.042 -23.153  0.00  0.00    +0.034 C 
ATOM     17  C   UNL     1      34.448 -15.999 -22.751  0.00  0.00    +0.003 C 
ATOM     18  C   UNL     1      33.206 -14.364 -20.834  0.00  0.00    +0.037 C 
ATOM     19  C   UNL     1      33.164 -14.924 -24.516  0.00  0.00    +0.003 C 
ATOM     20  C   UNL     1      34.771 -16.117 -21.389  0.00  0.00    +0.000 C 
ATOM     21  C   UNL     1      34.153 -15.305 -20.438  0.00  0.00    +0.003 C 
ATOM     22  C   UNL     1      35.060 -16.808 -23.721  0.00  0.00    +0.000 C 
ATOM     23  C   UNL     1      33.781 -15.736 -25.466  0.00  0.00    +0.000 C 
ATOM     24  C   UNL     1      34.728 -16.677 -25.070  0.00  0.00    +0.000 C 
ENDBRANCH  14  15
ENDBRANCH  13  14
ENDBRANCH   1  13
TORSDOF 6
ENDMDL
MODEL 4
REMARK VINA RESULT:      -9.3      9.210     13.551
REMARK  Name = 71353
REMARK  6 active torsions:
REMARK  status: ('A' for Active; 'I' for Inactive)
REMARK    1  A    between atoms: C_1  and  C_2
REMARK    2  A    between atoms: C_1  and  C_13
REMARK    3  A    between atoms: C_2  and  C_3
REMARK    4  A    between atoms: C_2  and  N_9
REMARK    5  A    between atoms: C_13  and  O_14
REMARK    6  A    between atoms: O_14  and  C_15
REMARK                            x       y       z     vdW  Elec       q    Type
REMARK                         _______ _______ _______ _____ _____    ______ ____
ROOT
ATOM      1  C   UNL     1      32.087 -10.392 -22.933  0.00  0.00    +0.031 C 
ENDROOT
BRANCH   1   2
ATOM      2  C   UNL     1      32.802  -9.174 -22.315  0.00  0.00    -0.031 C 
BRANCH   2   3
ATOM      3  C   UNL     1      33.010  -8.038 -23.299  0.00  0.00    -0.041 C 
ATOM      4  C   UNL     1      34.288  -7.765 -23.750  0.00  0.00    -0.006 C 
ATOM      5  C   UNL     1      31.916  -7.304 -23.718  0.00  0.00    -0.006 C 
ATOM      6  C   UNL     1      34.479  -6.720 -24.653  0.00  0.00    -0.000 C 
ATOM      7  C   UNL     1      32.108  -6.259 -24.622  0.00  0.00    -0.000 C 
ATOM      8  C   UNL     1      33.389  -5.966 -25.089  0.00  0.00    -0.000 C 
ENDBRANCH   2   3
BRANCH   2   9
ATOM      9  N   UNL     1      32.036  -8.715 -21.149  0.00  0.00    +0.388 N 
ATOM     10  C   UNL     1      32.814  -7.745 -20.384  0.00  0.00    -0.100 C 
ATOM     11  C   UNL     1      31.660  -9.852 -20.313  0.00  0.00    -0.100 C 
ATOM     12  H   UNL     1      31.183  -8.260 -21.474  0.00  0.00    -0.079 HD
ENDBRANCH   2   9
ENDBRANCH   1   2
BRANCH   1  13
ATOM     13  C   UNL     1      33.045 -11.518 -23.317  0.00  0.00    +0.204 C 
BRANCH  13  14
ATOM     14  O   UNL     1      32.474 -12.775 -22.968  0.00  0.00    -0.476 OA
BRANCH  14  15
ATOM     15  C   UNL     1      33.032 -13.886 -23.533  0.00  0.00    +0.138 C 
ATOM     16  C   UNL     1      33.697 -14.846 -22.754  0.00  0.00    +0.034 C 
ATOM     17  C   UNL     1      34.261 -15.981 -23.385  0.00  0.00    +0.003 C 
ATOM     18  C   UNL     1      32.922 -14.042 -24.915  0.00  0.00    +0.037 C 
ATOM     19  C   UNL     1      33.817 -14.705 -21.361  0.00  0.00    +0.003 C 
ATOM     20  C   UNL     1      34.141 -16.122 -24.778  0.00  0.00    +0.000 C 
ATOM     21  C   UNL     1      33.476 -15.158 -25.537  0.00  0.00    +0.003 C 
ATOM     22  C   UNL     1      34.926 -16.941 -22.607  0.00  0.00    +0.000 C 
ATOM     23  C   UNL     1      34.482 -15.669 -20.603  0.00  0.00    +0.000 C 
ATOM     24  C   UNL     1      35.036 -16.785 -21.224  0.00  0.00    +0.000 C 
ENDBRANCH  14  15
ENDBRANCH  13  14
ENDBRANCH   1  13
TORSDOF 6
ENDMDL
MODEL 5
REMARK VINA RESULT:      -9.3      1.389      3.673
REMARK  Name = 71353
REMARK  6 active torsions:
REMARK  status: ('A' for Active; 'I' for Inactive)
REMARK    1  A    between atoms: C_1  and  C_2
REMARK    2  A    between atoms: C_1  and  C_13
REMARK    3  A    between atoms: C_2  and  C_3
REMARK    4  A    between atoms: C_2  and  N_9
REMARK    5  A    between atoms: C_13  and  O_14
REMARK    6  A    between atoms: O_14  and  C_15
REMARK                            x       y       z     vdW  Elec       q    Type
REMARK                         _______ _______ _______ _____ _____    ______ ____
ROOT
ATOM      1  C   UNL     1      32.688 -23.132 -16.451  0.00  0.00    +0.031 C 
ENDROOT
BRANCH   1   2
ATOM      2  C   UNL     1      33.232 -24.076 -15.362  0.00  0.00    -0.031 C 
BRANCH   2   3
ATOM      3  C   UNL     1      34.739 -24.006 -15.205  0.00  0.00    -0.041 C 
ATOM      4  C   UNL     1      35.462 -25.182 -15.132  0.00  0.00    -0.006 C 
ATOM      5  C   UNL     1      35.351 -22.768 -15.138  0.00  0.00    -0.006 C 
ATOM      6  C   UNL     1      36.848 -25.118 -14.986  0.00  0.00    -0.000 C 
ATOM      7  C   UNL     1      36.737 -22.705 -14.994  0.00  0.00    -0.000 C 
ATOM      8  C   UNL     1      37.486 -23.879 -14.917  0.00  0.00    -0.000 C 
ENDBRANCH   2   3
BRANCH   2   9
ATOM      9  N   UNL     1      32.565 -23.767 -14.090  0.00  0.00    +0.388 N 
ATOM     10  C   UNL     1      31.936 -24.968 -13.545  0.00  0.00    -0.100 C 
ATOM     11  C   UNL     1      31.577 -22.709 -14.282  0.00  0.00    -0.100 C 
ATOM     12  H   UNL     1      33.262 -23.438 -13.423  0.00  0.00    -0.079 HD
ENDBRANCH   2   9
ENDBRANCH   1   2
BRANCH   1  13
ATOM     13  C   UNL     1      33.190 -23.480 -17.852  0.00  0.00    +0.204 C 
BRANCH  13  14
ATOM     14  O   UNL     1      33.064 -22.345 -18.702  0.00  0.00    -0.476 OA
BRANCH  14  15
ATOM     15  C   UNL     1      34.223 -21.747 -19.110  0.00  0.00    +0.138 C 
ATOM     16  C   UNL     1      34.215 -20.697 -20.042  0.00  0.00    +0.034 C 
ATOM     17  C   UNL     1      35.441 -20.110 -20.435  0.00  0.00    +0.003 C 
ATOM     18  C   UNL     1      35.423 -22.213 -18.573  0.00  0.00    +0.037 C 
ATOM     19  C   UNL     1      33.015 -20.215 -20.593  0.00  0.00    +0.003 C 
ATOM     20  C   UNL     1      36.640 -20.591 -19.883  0.00  0.00    +0.000 C 
ATOM     21  C   UNL     1      36.630 -21.636 -18.959  0.00  0.00    +0.003 C 
ATOM     22  C   UNL     1      35.433 -19.059 -21.366  0.00  0.00    +0.000 C 
ATOM     23  C   UNL     1      33.026 -19.171 -21.517  0.00  0.00    +0.000 C 
ATOM     24  C   UNL     1      34.233 -18.593 -21.903  0.00  0.00    +0.000 C 
ENDBRANCH  14  15
ENDBRANCH  13  14
ENDBRANCH   1  13
TORSDOF 6
ENDMDL
MODEL 6
REMARK VINA RESULT:      -9.3      9.090     13.336
REMARK  Name = 71353
REMARK  6 active torsions:
REMARK  status: ('A' for Active; 'I' for Inactive)
REMARK    1  A    between atoms: C_1  and  C_2
REMARK    2  A    between atoms: C_1  and  C_13
REMARK    3  A    between atoms: C_2  and  C_3
REMARK    4  A    between atoms: C_2  and  N_9
REMARK    5  A    between atoms: C_13  and  O_14
REMARK    6  A    between atoms: O_14  and  C_15
REMARK                            x       y       z     vdW  Elec       q    Type
REMARK                         _______ _______ _______ _____ _____    ______ ____
ROOT
ATOM      1  C   UNL     1      31.867 -10.561 -22.684  0.00  0.00    +0.031 C 
ENDROOT
BRANCH   1   2
ATOM      2  C   UNL     1      32.614  -9.366 -22.061  0.00  0.00    -0.031 C 
BRANCH   2   3
ATOM      3  C   UNL     1      32.864  -8.237 -23.044  0.00  0.00    -0.041 C 
ATOM      4  C   UNL     1      34.160  -7.967 -23.442  0.00  0.00    -0.006 C 
ATOM      5  C   UNL     1      31.789  -7.506 -23.515  0.00  0.00    -0.006 C 
ATOM      6  C   UNL     1      34.389  -6.929 -24.344  0.00  0.00    -0.000 C 
ATOM      7  C   UNL     1      32.019  -6.468 -24.418  0.00  0.00    -0.000 C 
ATOM      8  C   UNL     1      33.320  -6.179 -24.832  0.00  0.00    -0.000 C 
ENDBRANCH   2   3
BRANCH   2   9
ATOM      9  N   UNL     1      31.854  -8.883 -20.901  0.00  0.00    +0.388 N 
ATOM     10  C   UNL     1      32.605  -7.844 -20.202  0.00  0.00    -0.100 C 
ATOM     11  C   UNL     1      31.546  -9.992 -20.002  0.00  0.00    -0.100 C 
ATOM     12  H   UNL     1      30.975  -8.480 -21.227  0.00  0.00    -0.079 HD
ENDBRANCH   2   9
ENDBRANCH   1   2
BRANCH   1  13
ATOM     13  C   UNL     1      32.796 -11.703 -23.091  0.00  0.00    +0.204 C 
BRANCH  13  14
ATOM     14  O   UNL     1      32.150 -12.952 -22.868  0.00  0.00    -0.476 OA
BRANCH  14  15
ATOM     15  C   UNL     1      32.931 -13.983 -22.432  0.00  0.00    +0.138 C 
ATOM     16  C   UNL     1      33.488 -14.908 -23.330  0.00  0.00    +0.034 C 
ATOM     17  C   UNL     1      34.291 -15.961 -22.830  0.00  0.00    +0.003 C 
ATOM     18  C   UNL     1      33.163 -14.094 -21.061  0.00  0.00    +0.037 C 
ATOM     19  C   UNL     1      33.266 -14.812 -24.714  0.00  0.00    +0.003 C 
ATOM     20  C   UNL     1      34.514 -16.057 -21.447  0.00  0.00    +0.000 C 
ATOM     21  C   UNL     1      33.953 -15.130 -20.569  0.00  0.00    +0.003 C 
ATOM     22  C   UNL     1      34.848 -16.886 -23.728  0.00  0.00    +0.000 C 
ATOM     23  C   UNL     1      33.826 -15.740 -25.591  0.00  0.00    +0.000 C 
ATOM     24  C   UNL     1      34.617 -16.775 -25.099  0.00  0.00    +0.000 C 
ENDBRANCH  14  15
ENDBRANCH  13  14
ENDBRANCH   1  13
TORSDOF 6
ENDMDL
MODEL 7
REMARK VINA RESULT:      -9.3      8.572     12.194
REMARK  Name = 71353
REMARK  6 active torsions:
REMARK  status: ('A' for Active; 'I' for Inactive)
REMARK    1  A    between atoms: C_1  and  C_2
REMARK    2  A    between atoms: C_1  and  C_13
REMARK    3  A    between atoms: C_2  and  C_3
REMARK    4  A    between atoms: C_2  and  N_9
REMARK    5  A    between atoms: C_13  and  O_14
REMARK    6  A    between atoms: O_14  and  C_15
REMARK                            x       y       z     vdW  Elec       q    Type
REMARK                         _______ _______ _______ _____ _____    ______ ____
ROOT
ATOM      1  C   UNL     1      33.120 -13.031 -24.659  0.00  0.00    +0.031 C 
ENDROOT
BRANCH   1   2
ATOM      2  C   UNL     1      33.874 -14.318 -24.271  0.00  0.00    -0.031 C 
BRANCH   2   3
ATOM      3  C   UNL     1      33.706 -14.697 -22.812  0.00  0.00    -0.041 C 
ATOM      4  C   UNL     1      32.475 -14.517 -22.209  0.00  0.00    -0.006 C 
ATOM      5  C   UNL     1      34.788 -15.211 -22.123  0.00  0.00    -0.006 C 
ATOM      6  C   UNL     1      32.321 -14.865 -20.867  0.00  0.00    -0.000 C 
ATOM      7  C   UNL     1      34.633 -15.560 -20.780  0.00  0.00    -0.000 C 
ATOM      8  C   UNL     1      33.399 -15.386 -20.152  0.00  0.00    -0.000 C 
ENDBRANCH   2   3
BRANCH   2   9
ATOM      9  N   UNL     1      33.428 -15.411 -25.145  0.00  0.00    +0.388 N 
ATOM     10  C   UNL     1      34.480 -16.416 -25.274  0.00  0.00    -0.100 C 
ATOM     11  C   UNL     1      33.049 -14.888 -26.454  0.00  0.00    -0.100 C 
ATOM     12  H   UNL     1      32.610 -15.853 -24.727  0.00  0.00    -0.079 HD
ENDBRANCH   2   9
ENDBRANCH   1   2
BRANCH   1  13
ATOM     13  C   UNL     1      33.821 -11.759 -24.186  0.00  0.00    +0.204 C 
BRANCH  13  14
ATOM     14  O   UNL     1      32.935 -10.651 -24.301  0.00  0.00    -0.476 OA
BRANCH  14  15
ATOM     15  C   UNL     1      32.975  -9.721 -23.301  0.00  0.00    +0.138 C 
ATOM     16  C   UNL     1      32.340  -9.944 -22.069  0.00  0.00    +0.034 C 
ATOM     17  C   UNL     1      32.409  -8.950 -21.064  0.00  0.00    +0.003 C 
ATOM     18  C   UNL     1      33.668  -8.533 -23.540  0.00  0.00    +0.037 C 
ATOM     19  C   UNL     1      31.638 -11.134 -21.811  0.00  0.00    +0.003 C 
ATOM     20  C   UNL     1      33.111  -7.761 -21.322  0.00  0.00    +0.000 C 
ATOM     21  C   UNL     1      33.736  -7.555 -22.552  0.00  0.00    +0.003 C 
ATOM     22  C   UNL     1      31.774  -9.173 -19.831  0.00  0.00    +0.000 C 
ATOM     23  C   UNL     1      31.013 -11.339 -20.581  0.00  0.00    +0.000 C 
ATOM     24  C   UNL     1      31.081 -10.361 -19.593  0.00  0.00    +0.000 C 
ENDBRANCH  14  15
ENDBRANCH  13  14
ENDBRANCH   1  13
TORSDOF 6
ENDMDL
MODEL 8
REMARK VINA RESULT:      -9.2      9.392     12.844
REMARK  Name = 71353
REMARK  6 active torsions:
REMARK  status: ('A' for Active; 'I' for Inactive)
REMARK    1  A    between atoms: C_1  and  C_2
REMARK    2  A    between atoms: C_1  and  C_13
REMARK    3  A    between atoms: C_2  and  C_3
REMARK    4  A    between atoms: C_2  and  N_9
REMARK    5  A    between atoms: C_13  and  O_14
REMARK    6  A    between atoms: O_14  and  C_15
REMARK                            x       y       z     vdW  Elec       q    Type
REMARK                         _______ _______ _______ _____ _____    ______ ____
ROOT
ATOM      1  C   UNL     1      32.118 -13.120 -22.761  0.00  0.00    +0.031 C 
ENDROOT
BRANCH   1   2
ATOM      2  C   UNL     1      33.630 -13.289 -23.009  0.00  0.00    -0.031 C 
BRANCH   2   3
ATOM      3  C   UNL     1      34.178 -14.608 -22.499  0.00  0.00    -0.041 C 
ATOM      4  C   UNL     1      34.705 -15.512 -23.403  0.00  0.00    -0.006 C 
ATOM      5  C   UNL     1      34.136 -14.874 -21.143  0.00  0.00    -0.006 C 
ATOM      6  C   UNL     1      35.208 -16.725 -22.934  0.00  0.00    -0.000 C 
ATOM      7  C   UNL     1      34.640 -16.087 -20.674  0.00  0.00    -0.000 C 
ATOM      8  C   UNL     1      35.175 -17.013 -21.569  0.00  0.00    -0.000 C 
ENDBRANCH   2   3
BRANCH   2   9
ATOM      9  N   UNL     1      33.895 -13.140 -24.446  0.00  0.00    +0.388 N 
ATOM     10  C   UNL     1      34.012 -11.726 -24.794  0.00  0.00    -0.100 C 
ATOM     11  C   UNL     1      32.836 -13.777 -25.224  0.00  0.00    -0.100 C 
ATOM     12  H   UNL     1      34.777 -13.600 -24.668  0.00  0.00    -0.079 HD
ENDBRANCH   2   9
ENDBRANCH   1   2
BRANCH   1  13
ATOM     13  C   UNL     1      31.797 -12.042 -21.727  0.00  0.00    +0.204 C 
BRANCH  13  14
ATOM     14  O   UNL     1      31.463 -10.826 -22.389  0.00  0.00    -0.476 OA
BRANCH  14  15
ATOM     15  C   UNL     1      31.700  -9.667 -21.708  0.00  0.00    +0.138 C 
ATOM     16  C   UNL     1      31.685  -8.421 -22.356  0.00  0.00    +0.034 C 
ATOM     17  C   UNL     1      31.937  -7.247 -21.608  0.00  0.00    +0.003 C 
ATOM     18  C   UNL     1      31.961  -9.753 -20.340  0.00  0.00    +0.037 C 
ATOM     19  C   UNL     1      31.424  -8.315 -23.733  0.00  0.00    +0.003 C 
ATOM     20  C   UNL     1      32.197  -7.353 -20.232  0.00  0.00    +0.000 C 
ATOM     21  C   UNL     1      32.209  -8.598 -19.603  0.00  0.00    +0.003 C 
ATOM     22  C   UNL     1      31.922  -6.002 -22.257  0.00  0.00    +0.000 C 
ATOM     23  C   UNL     1      31.413  -7.070 -24.362  0.00  0.00    +0.000 C 
ATOM     24  C   UNL     1      31.661  -5.915 -23.625  0.00  0.00    +0.000 C 
ENDBRANCH  14  15
ENDBRANCH  13  14
ENDBRANCH   1  13
TORSDOF 6
ENDMDL
MODEL 9
REMARK VINA RESULT:      -9.1      6.364      9.722
REMARK  Name = 71353
REMARK  6 active torsions:
REMARK  status: ('A' for Active; 'I' for Inactive)
REMARK    1  A    between atoms: C_1  and  C_2
REMARK    2  A    between atoms: C_1  and  C_13
REMARK    3  A    between atoms: C_2  and  C_3
REMARK    4  A    between atoms: C_2  and  N_9
REMARK    5  A    between atoms: C_13  and  O_14
REMARK    6  A    between atoms: O_14  and  C_15
REMARK                            x       y       z     vdW  Elec       q    Type
REMARK                         _______ _______ _______ _____ _____    ______ ____
ROOT
ATOM      1  C   UNL     1      34.660 -15.878 -22.749  0.00  0.00    +0.031 C 
ENDROOT
BRANCH   1   2
ATOM      2  C   UNL     1      33.869 -16.613 -21.650  0.00  0.00    -0.031 C 
BRANCH   2   3
ATOM      3  C   UNL     1      34.460 -17.962 -21.284  0.00  0.00    -0.041 C 
ATOM      4  C   UNL     1      33.610 -19.010 -20.987  0.00  0.00    -0.006 C 
ATOM      5  C   UNL     1      35.835 -18.107 -21.255  0.00  0.00    -0.006 C 
ATOM      6  C   UNL     1      34.154 -20.249 -20.650  0.00  0.00    -0.000 C 
ATOM      7  C   UNL     1      36.378 -19.347 -20.919  0.00  0.00    -0.000 C 
ATOM      8  C   UNL     1      35.538 -20.418 -20.615  0.00  0.00    -0.000 C 
ENDBRANCH   2   3
BRANCH   2   9
ATOM      9  N   UNL     1      33.785 -15.747 -20.467  0.00  0.00    +0.388 N 
ATOM     10  C   UNL     1      32.402 -15.333 -20.241  0.00  0.00    -0.100 C 
ATOM     11  C   UNL     1      34.652 -14.584 -20.630  0.00  0.00    -0.100 C 
ATOM     12  H   UNL     1      34.101 -16.271 -19.651  0.00  0.00    -0.079 HD
ENDBRANCH   2   9
ENDBRANCH   1   2
BRANCH   1  13
ATOM     13  C   UNL     1      33.777 -15.381 -23.893  0.00  0.00    +0.204 C 
BRANCH  13  14
ATOM     14  O   UNL     1      32.824 -14.449 -23.392  0.00  0.00    -0.476 OA
BRANCH  14  15
ATOM     15  C   UNL     1      33.051 -13.129 -23.660  0.00  0.00    +0.138 C 
ATOM     16  C   UNL     1      32.543 -12.117 -22.831  0.00  0.00    +0.034 C 
ATOM     17  C   UNL     1      32.803 -10.763 -23.150  0.00  0.00    +0.003 C 
ATOM     18  C   UNL     1      33.807 -12.812 -24.789  0.00  0.00    +0.037 C 
ATOM     19  C   UNL     1      31.779 -12.418 -21.690  0.00  0.00    +0.003 C 
ATOM     20  C   UNL     1      33.566 -10.462 -24.290  0.00  0.00    +0.000 C 
ATOM     21  C   UNL     1      34.064 -11.480 -25.104  0.00  0.00    +0.003 C 
ATOM     22  C   UNL     1      32.295  -9.751 -22.321  0.00  0.00    +0.000 C 
ATOM     23  C   UNL     1      31.282 -11.400 -20.877  0.00  0.00    +0.000 C 
ATOM     24  C   UNL     1      31.539 -10.068 -21.192  0.00  0.00    +0.000 C 
ENDBRANCH  14  15
ENDBRANCH  13  14
ENDBRANCH   1  13
TORSDOF 6
ENDMDL
