MODEL 1
REMARK VINA RESULT:     -10.5      0.000      0.000
REMARK  Name = 44517831
REMARK  8 active torsions:
REMARK  status: ('A' for Active; 'I' for Inactive)
REMARK    1  A    between atoms: O_1  and  C_7
REMARK    2  A    between atoms: O_1  and  C_20
REMARK    3  A    between atoms: N_2  and  C_10
REMARK    4  A    between atoms: C_10  and  C_11
REMARK    5  A    between atoms: C_11  and  C_13
REMARK    6  A    between atoms: C_20  and  C_21
REMARK    7  A    between atoms: C_21  and  N_23
REMARK    8  A    between atoms: C_21  and  C_30
REMARK                            x       y       z     vdW  Elec       q    Type
REMARK                         _______ _______ _______ _____ _____    ______ ____
ROOT
ATOM      1  O   UNL     1      33.635 -16.127 -22.841  0.00  0.00    -0.456 OA
ENDROOT
BRANCH   1   7
ATOM      2  N   UNL     1      34.637 -19.131 -21.400  0.00  0.00    +0.393 N 
ATOM      3  C   UNL     1      35.714 -17.379 -22.955  0.00  0.00    +0.034 C 
ATOM      4  C   UNL     1      34.036 -17.745 -21.105  0.00  0.00    -0.028 C 
ATOM      5  C   UNL     1      34.361 -19.503 -22.863  0.00  0.00    -0.073 C 
ATOM      6  C   UNL     1      36.154 -19.089 -21.162  0.00  0.00    -0.073 C 
ATOM      7  C   UNL     1      34.665 -16.715 -22.050  0.00  0.00    +0.149 C 
ATOM      8  C   UNL     1      35.048 -18.491 -23.778  0.00  0.00    -0.019 C 
ATOM      9  C   UNL     1      36.778 -18.021 -22.061  0.00  0.00    -0.019 C 
BRANCH   2  10
ATOM     10  C   UNL     1      34.005 -20.166 -20.482  0.00  0.00    -0.068 C 
BRANCH  10  11
ATOM     11  C   UNL     1      35.029 -21.227 -20.097  0.00  0.00    +0.004 C 
BRANCH  11  13
ATOM     12  F   UNL     1      33.805 -23.917 -15.296  0.00  0.00    -0.204 F 
ATOM     13  C   UNL     1      34.702 -21.947 -18.812  0.00  0.00    -0.024 C 
ATOM     14  C   UNL     1      33.417 -22.449 -18.603  0.00  0.00    -0.002 C 
ATOM     15  C   UNL     1      35.683 -22.110 -17.834  0.00  0.00    -0.002 C 
ATOM     16  C   UNL     1      33.114 -23.114 -17.415  0.00  0.00    +0.029 C 
ATOM     17  C   UNL     1      35.379 -22.775 -16.646  0.00  0.00    +0.029 C 
ATOM     18  C   UNL     1      34.096 -23.277 -16.437  0.00  0.00    +0.140 C 
ENDBRANCH  11  13
ENDBRANCH  10  11
ENDBRANCH   2  10
ENDBRANCH   1   7
BRANCH   1  20
ATOM     19  O   UNL     1      31.917 -15.533 -21.427  0.00  0.00    -0.252 OA
ATOM     20  C   UNL     1      32.823 -15.230 -22.195  0.00  0.00    +0.302 C 
BRANCH  20  21
ATOM     21  C   UNL     1      33.203 -13.794 -22.586  0.00  0.00    +0.069 C 
ATOM     22  C   UNL     1      34.730 -13.669 -22.428  0.00  0.00    -0.006 C 
BRANCH  21  23
ATOM     23  N   UNL     1      32.907 -13.650 -24.012  0.00  0.00    +0.398 N 
ATOM     24  C   UNL     1      33.693 -12.553 -24.592  0.00  0.00    -0.076 C 
ATOM     25  C   UNL     1      33.159 -14.915 -24.718  0.00  0.00    -0.076 C 
ATOM     26  C   UNL     1      33.361 -12.359 -26.072  0.00  0.00    -0.023 C 
ATOM     27  C   UNL     1      32.809 -14.798 -26.203  0.00  0.00    -0.023 C 
ATOM     28  C   UNL     1      33.562 -13.648 -26.860  0.00  0.00    -0.004 C 
ATOM     29  H   UNL     1      31.920 -13.422 -24.120  0.00  0.00    -0.078 HD
ENDBRANCH  21  23
BRANCH  21  30
ATOM     30  C   UNL     1      32.374 -12.779 -21.794  0.00  0.00    -0.030 C 
ATOM     31  C   UNL     1      32.433 -12.767 -20.400  0.00  0.00    -0.006 C 
ATOM     32  C   UNL     1      31.561 -11.866 -22.465  0.00  0.00    -0.006 C 
ATOM     33  C   UNL     1      31.678 -11.842 -19.678  0.00  0.00    -0.000 C 
ATOM     34  C   UNL     1      30.806 -10.942 -21.745  0.00  0.00    -0.000 C 
ATOM     35  C   UNL     1      30.865 -10.930 -20.351  0.00  0.00    -0.000 C 
ENDBRANCH  21  30
ENDBRANCH  20  21
ENDBRANCH   1  20
TORSDOF 8
ENDMDL
MODEL 2
REMARK VINA RESULT:     -10.4      0.901      3.294
REMARK  Name = 44517831
REMARK  8 active torsions:
REMARK  status: ('A' for Active; 'I' for Inactive)
REMARK    1  A    between atoms: O_1  and  C_7
REMARK    2  A    between atoms: O_1  and  C_20
REMARK    3  A    between atoms: N_2  and  C_10
REMARK    4  A    between atoms: C_10  and  C_11
REMARK    5  A    between atoms: C_11  and  C_13
REMARK    6  A    between atoms: C_20  and  C_21
REMARK    7  A    between atoms: C_21  and  N_23
REMARK    8  A    between atoms: C_21  and  C_30
REMARK                            x       y       z     vdW  Elec       q    Type
REMARK                         _______ _______ _______ _____ _____    ______ ____
ROOT
ATOM      1  O   UNL     1      34.536 -15.893 -22.654  0.00  0.00    -0.456 OA
ENDROOT
BRANCH   1   7
ATOM      2  N   UNL     1      34.645 -19.073 -21.247  0.00  0.00    +0.393 N 
ATOM      3  C   UNL     1      36.185 -17.674 -22.770  0.00  0.00    +0.034 C 
ATOM      4  C   UNL     1      34.452 -17.578 -20.937  0.00  0.00    -0.028 C 
ATOM      5  C   UNL     1      34.292 -19.338 -22.717  0.00  0.00    -0.073 C 
ATOM      6  C   UNL     1      36.111 -19.459 -20.997  0.00  0.00    -0.073 C 
ATOM      7  C   UNL     1      35.352 -16.755 -21.864  0.00  0.00    +0.149 C 
ATOM      8  C   UNL     1      35.245 -18.547 -23.613  0.00  0.00    -0.019 C 
ATOM      9  C   UNL     1      37.018 -18.599 -21.877  0.00  0.00    -0.019 C 
BRANCH   2  10
ATOM     10  C   UNL     1      33.739 -19.900 -20.347  0.00  0.00    -0.068 C 
BRANCH  10  11
ATOM     11  C   UNL     1      34.169 -21.363 -20.366  0.00  0.00    +0.004 C 
BRANCH  11  13
ATOM     12  F   UNL     1      34.775 -23.609 -15.231  0.00  0.00    -0.204 F 
ATOM     13  C   UNL     1      34.332 -21.964 -18.992  0.00  0.00    -0.024 C 
ATOM     14  C   UNL     1      33.246 -22.581 -18.368  0.00  0.00    -0.002 C 
ATOM     15  C   UNL     1      35.566 -21.902 -18.345  0.00  0.00    -0.002 C 
ATOM     16  C   UNL     1      33.397 -23.137 -17.098  0.00  0.00    +0.029 C 
ATOM     17  C   UNL     1      35.715 -22.458 -17.074  0.00  0.00    +0.029 C 
ATOM     18  C   UNL     1      34.631 -23.075 -16.451  0.00  0.00    +0.140 C 
ENDBRANCH  11  13
ENDBRANCH  10  11
ENDBRANCH   2  10
ENDBRANCH   1   7
BRANCH   1  20
ATOM     19  O   UNL     1      35.199 -14.043 -21.456  0.00  0.00    -0.252 OA
ATOM     20  C   UNL     1      34.401 -14.609 -22.193  0.00  0.00    +0.302 C 
BRANCH  20  21
ATOM     21  C   UNL     1      33.096 -13.992 -22.718  0.00  0.00    +0.069 C 
ATOM     22  C   UNL     1      31.970 -15.006 -22.440  0.00  0.00    -0.006 C 
BRANCH  21  23
ATOM     23  N   UNL     1      32.823 -12.813 -21.895  0.00  0.00    +0.398 N 
ATOM     24  C   UNL     1      31.937 -11.882 -22.609  0.00  0.00    -0.076 C 
ATOM     25  C   UNL     1      32.244 -13.211 -20.604  0.00  0.00    -0.076 C 
ATOM     26  C   UNL     1      31.680 -10.622 -21.781  0.00  0.00    -0.023 C 
ATOM     27  C   UNL     1      31.998 -11.994 -19.710  0.00  0.00    -0.023 C 
ATOM     28  C   UNL     1      31.115 -10.966 -20.408  0.00  0.00    -0.004 C 
ATOM     29  H   UNL     1      33.702 -12.332 -21.710  0.00  0.00    -0.078 HD
ENDBRANCH  21  23
BRANCH  21  30
ATOM     30  C   UNL     1      33.249 -13.564 -24.180  0.00  0.00    -0.030 C 
ATOM     31  C   UNL     1      33.807 -12.323 -24.489  0.00  0.00    -0.006 C 
ATOM     32  C   UNL     1      32.832 -14.415 -25.203  0.00  0.00    -0.006 C 
ATOM     33  C   UNL     1      33.947 -11.934 -25.821  0.00  0.00    -0.000 C 
ATOM     34  C   UNL     1      32.972 -14.027 -26.535  0.00  0.00    -0.000 C 
ATOM     35  C   UNL     1      33.530 -12.785 -26.844  0.00  0.00    -0.000 C 
ENDBRANCH  21  30
ENDBRANCH  20  21
ENDBRANCH   1  20
TORSDOF 8
ENDMDL
MODEL 3
REMARK VINA RESULT:     -10.2      2.770      5.071
REMARK  Name = 44517831
REMARK  8 active torsions:
REMARK  status: ('A' for Active; 'I' for Inactive)
REMARK    1  A    between atoms: O_1  and  C_7
REMARK    2  A    between atoms: O_1  and  C_20
REMARK    3  A    between atoms: N_2  and  C_10
REMARK    4  A    between atoms: C_10  and  C_11
REMARK    5  A    between atoms: C_11  and  C_13
REMARK    6  A    between atoms: C_20  and  C_21
REMARK    7  A    between atoms: C_21  and  N_23
REMARK    8  A    between atoms: C_21  and  C_30
REMARK                            x       y       z     vdW  Elec       q    Type
REMARK                         _______ _______ _______ _____ _____    ______ ____
ROOT
ATOM      1  O   UNL     1      33.731 -12.062 -22.735  0.00  0.00    -0.456 OA
ENDROOT
BRANCH   1   7
ATOM      2  N   UNL     1      34.162 -15.472 -22.198  0.00  0.00    +0.393 N 
ATOM      3  C   UNL     1      33.018 -14.016 -23.992  0.00  0.00    +0.034 C 
ATOM      4  C   UNL     1      34.896 -14.125 -22.309  0.00  0.00    -0.028 C 
ATOM      5  C   UNL     1      32.700 -15.224 -21.803  0.00  0.00    -0.073 C 
ATOM      6  C   UNL     1      34.208 -16.190 -23.555  0.00  0.00    -0.073 C 
ATOM      7  C   UNL     1      34.195 -13.257 -23.359  0.00  0.00    +0.149 C 
ATOM      8  C   UNL     1      32.015 -14.406 -22.897  0.00  0.00    -0.019 C 
ATOM      9  C   UNL     1      33.561 -15.303 -24.619  0.00  0.00    -0.019 C 
BRANCH   2  10
ATOM     10  C   UNL     1      34.837 -16.334 -21.142  0.00  0.00    -0.068 C 
BRANCH  10  11
ATOM     11  C   UNL     1      35.335 -17.636 -21.761  0.00  0.00    +0.004 C 
BRANCH  11  13
ATOM     12  F   UNL     1      33.328 -22.256 -19.230  0.00  0.00    -0.204 F 
ATOM     13  C   UNL     1      34.797 -18.873 -21.084  0.00  0.00    -0.024 C 
ATOM     14  C   UNL     1      35.678 -19.836 -20.591  0.00  0.00    -0.002 C 
ATOM     15  C   UNL     1      33.421 -19.052 -20.951  0.00  0.00    -0.002 C 
ATOM     16  C   UNL     1      35.181 -20.978 -19.965  0.00  0.00    +0.029 C 
ATOM     17  C   UNL     1      32.924 -20.197 -20.325  0.00  0.00    +0.029 C 
ATOM     18  C   UNL     1      33.805 -21.158 -19.832  0.00  0.00    +0.140 C 
ENDBRANCH  11  13
ENDBRANCH  10  11
ENDBRANCH   2  10
ENDBRANCH   1   7
BRANCH   1  20
ATOM     19  O   UNL     1      33.860 -10.833 -24.677  0.00  0.00    -0.252 OA
ATOM     20  C   UNL     1      33.354 -11.052 -23.583  0.00  0.00    +0.302 C 
BRANCH  20  21
ATOM     21  C   UNL     1      32.222 -10.226 -22.954  0.00  0.00    +0.069 C 
ATOM     22  C   UNL     1      30.896 -10.914 -23.331  0.00  0.00    -0.006 C 
BRANCH  21  23
ATOM     23  N   UNL     1      32.367 -10.342 -21.504  0.00  0.00    +0.398 N 
ATOM     24  C   UNL     1      32.079  -9.056 -20.853  0.00  0.00    -0.076 C 
ATOM     25  C   UNL     1      31.497 -11.407 -20.984  0.00  0.00    -0.076 C 
ATOM     26  C   UNL     1      32.272  -9.148 -19.339  0.00  0.00    -0.023 C 
ATOM     27  C   UNL     1      31.672 -11.576 -19.473  0.00  0.00    -0.023 C 
ATOM     28  C   UNL     1      31.426 -10.264 -18.738  0.00  0.00    -0.004 C 
ATOM     29  H   UNL     1      33.332 -10.593 -21.290  0.00  0.00    -0.078 HD
ENDBRANCH  21  23
BRANCH  21  30
ATOM     30  C   UNL     1      32.337  -8.754 -23.358  0.00  0.00    -0.030 C 
ATOM     31  C   UNL     1      33.586  -8.132 -23.383  0.00  0.00    -0.006 C 
ATOM     32  C   UNL     1      31.194  -8.034 -23.703  0.00  0.00    -0.006 C 
ATOM     33  C   UNL     1      33.690  -6.791 -23.751  0.00  0.00    -0.000 C 
ATOM     34  C   UNL     1      31.297  -6.693 -24.072  0.00  0.00    -0.000 C 
ATOM     35  C   UNL     1      32.547  -6.072 -24.095  0.00  0.00    -0.000 C 
ENDBRANCH  21  30
ENDBRANCH  20  21
ENDBRANCH   1  20
TORSDOF 8
ENDMDL
MODEL 4
REMARK VINA RESULT:     -10.2      5.055     10.797
REMARK  Name = 44517831
REMARK  8 active torsions:
REMARK  status: ('A' for Active; 'I' for Inactive)
REMARK    1  A    between atoms: O_1  and  C_7
REMARK    2  A    between atoms: O_1  and  C_20
REMARK    3  A    between atoms: N_2  and  C_10
REMARK    4  A    between atoms: C_10  and  C_11
REMARK    5  A    between atoms: C_11  and  C_13
REMARK    6  A    between atoms: C_20  and  C_21
REMARK    7  A    between atoms: C_21  and  N_23
REMARK    8  A    between atoms: C_21  and  C_30
REMARK                            x       y       z     vdW  Elec       q    Type
REMARK                         _______ _______ _______ _____ _____    ______ ____
ROOT
ATOM      1  O   UNL     1      31.945 -13.258 -22.324  0.00  0.00    -0.456 OA
ENDROOT
BRANCH   1   7
ATOM      2  N   UNL     1      32.229  -9.811 -21.949  0.00  0.00    +0.393 N 
ATOM      3  C   UNL     1      31.060 -11.718 -20.666  0.00  0.00    +0.034 C 
ATOM      4  C   UNL     1      33.024 -11.115 -22.133  0.00  0.00    -0.028 C 
ATOM      5  C   UNL     1      30.807 -10.002 -22.495  0.00  0.00    -0.073 C 
ATOM      6  C   UNL     1      32.159  -9.463 -20.455  0.00  0.00    -0.073 C 
ATOM      7  C   UNL     1      32.309 -12.247 -21.387  0.00  0.00    +0.149 C 
ATOM      8  C   UNL     1      30.103 -11.096 -21.694  0.00  0.00    -0.019 C 
ATOM      9  C   UNL     1      31.498 -10.616 -19.698  0.00  0.00    -0.019 C 
BRANCH   2  10
ATOM     10  C   UNL     1      32.918  -8.684 -22.704  0.00  0.00    -0.068 C 
BRANCH  10  11
ATOM     11  C   UNL     1      32.616  -7.344 -22.042  0.00  0.00    +0.004 C 
BRANCH  11  13
ATOM     12  F   UNL     1      31.412  -3.235 -25.710  0.00  0.00    -0.204 F 
ATOM     13  C   UNL     1      32.294  -6.244 -23.024  0.00  0.00    -0.024 C 
ATOM     14  C   UNL     1      32.780  -6.311 -24.330  0.00  0.00    -0.002 C 
ATOM     15  C   UNL     1      31.510  -5.161 -22.625  0.00  0.00    -0.002 C 
ATOM     16  C   UNL     1      32.482  -5.294 -25.237  0.00  0.00    +0.029 C 
ATOM     17  C   UNL     1      31.213  -4.144 -23.534  0.00  0.00    +0.029 C 
ATOM     18  C   UNL     1      31.699  -4.211 -24.838  0.00  0.00    +0.140 C 
ENDBRANCH  11  13
ENDBRANCH  10  11
ENDBRANCH   2  10
ENDBRANCH   1   7
BRANCH   1  20
ATOM     19  O   UNL     1      31.974 -15.314 -21.287  0.00  0.00    -0.252 OA
ATOM     20  C   UNL     1      32.451 -14.510 -22.080  0.00  0.00    +0.302 C 
BRANCH  20  21
ATOM     21  C   UNL     1      33.708 -14.749 -22.928  0.00  0.00    +0.069 C 
ATOM     22  C   UNL     1      34.909 -14.227 -22.116  0.00  0.00    -0.006 C 
BRANCH  21  23
ATOM     23  N   UNL     1      33.870 -16.198 -23.048  0.00  0.00    +0.398 N 
ATOM     24  C   UNL     1      34.778 -16.525 -24.156  0.00  0.00    -0.076 C 
ATOM     25  C   UNL     1      34.352 -16.768 -21.781  0.00  0.00    -0.076 C 
ATOM     26  C   UNL     1      34.921 -18.037 -24.325  0.00  0.00    -0.023 C 
ATOM     27  C   UNL     1      34.480 -18.289 -21.872  0.00  0.00    -0.023 C 
ATOM     28  C   UNL     1      35.381 -18.700 -23.031  0.00  0.00    -0.004 C 
ATOM     29  H   UNL     1      32.962 -16.613 -23.253  0.00  0.00    -0.078 HD
ENDBRANCH  21  23
BRANCH  21  30
ATOM     30  C   UNL     1      33.544 -14.142 -24.323  0.00  0.00    -0.030 C 
ATOM     31  C   UNL     1      34.021 -12.857 -24.586  0.00  0.00    -0.006 C 
ATOM     32  C   UNL     1      32.919 -14.873 -25.333  0.00  0.00    -0.006 C 
ATOM     33  C   UNL     1      33.871 -12.304 -25.858  0.00  0.00    -0.000 C 
ATOM     34  C   UNL     1      32.769 -14.321 -26.605  0.00  0.00    -0.000 C 
ATOM     35  C   UNL     1      33.245 -13.035 -26.867  0.00  0.00    -0.000 C 
ENDBRANCH  21  30
ENDBRANCH  20  21
ENDBRANCH   1  20
TORSDOF 8
ENDMDL
MODEL 5
REMARK VINA RESULT:     -10.1      3.031      5.177
REMARK  Name = 44517831
REMARK  8 active torsions:
REMARK  status: ('A' for Active; 'I' for Inactive)
REMARK    1  A    between atoms: O_1  and  C_7
REMARK    2  A    between atoms: O_1  and  C_20
REMARK    3  A    between atoms: N_2  and  C_10
REMARK    4  A    between atoms: C_10  and  C_11
REMARK    5  A    between atoms: C_11  and  C_13
REMARK    6  A    between atoms: C_20  and  C_21
REMARK    7  A    between atoms: C_21  and  N_23
REMARK    8  A    between atoms: C_21  and  C_30
REMARK                            x       y       z     vdW  Elec       q    Type
REMARK                         _______ _______ _______ _____ _____    ______ ____
ROOT
ATOM      1  O   UNL     1      33.644 -11.514 -23.156  0.00  0.00    -0.456 OA
ENDROOT
BRANCH   1   7
ATOM      2  N   UNL     1      34.011 -14.948 -22.731  0.00  0.00    +0.393 N 
ATOM      3  C   UNL     1      32.756 -13.415 -24.382  0.00  0.00    +0.034 C 
ATOM      4  C   UNL     1      34.775 -13.621 -22.881  0.00  0.00    -0.028 C 
ATOM      5  C   UNL     1      32.600 -14.664 -22.198  0.00  0.00    -0.073 C 
ATOM      6  C   UNL     1      33.910 -15.635 -24.101  0.00  0.00    -0.073 C 
ATOM      7  C   UNL     1      34.009 -12.708 -23.845  0.00  0.00    +0.149 C 
ATOM      8  C   UNL     1      31.845 -13.800 -23.207  0.00  0.00    -0.019 C 
ATOM      9  C   UNL     1      33.198 -14.703 -25.082  0.00  0.00    -0.019 C 
BRANCH   2  10
ATOM     10  C   UNL     1      34.751 -15.854 -21.759  0.00  0.00    -0.068 C 
BRANCH  10  11
ATOM     11  C   UNL     1      35.240 -17.109 -22.474  0.00  0.00    +0.004 C 
BRANCH  11  13
ATOM     12  F   UNL     1      34.858 -21.785 -19.349  0.00  0.00    -0.204 F 
ATOM     13  C   UNL     1      35.137 -18.361 -21.638  0.00  0.00    -0.024 C 
ATOM     14  C   UNL     1      36.291 -18.947 -21.118  0.00  0.00    -0.002 C 
ATOM     15  C   UNL     1      33.890 -18.930 -21.385  0.00  0.00    -0.002 C 
ATOM     16  C   UNL     1      36.196 -20.104 -20.345  0.00  0.00    +0.029 C 
ATOM     17  C   UNL     1      33.796 -20.088 -20.612  0.00  0.00    +0.029 C 
ATOM     18  C   UNL     1      34.949 -20.674 -20.092  0.00  0.00    +0.140 C 
ENDBRANCH  11  13
ENDBRANCH  10  11
ENDBRANCH   2  10
ENDBRANCH   1   7
BRANCH   1  20
ATOM     19  O   UNL     1      33.571 -10.383 -25.160  0.00  0.00    -0.252 OA
ATOM     20  C   UNL     1      33.483 -10.399 -23.938  0.00  0.00    +0.302 C 
BRANCH  20  21
ATOM     21  C   UNL     1      33.196  -9.172 -23.059  0.00  0.00    +0.069 C 
ATOM     22  C   UNL     1      34.548  -8.488 -22.780  0.00  0.00    -0.006 C 
BRANCH  21  23
ATOM     23  N   UNL     1      32.407  -8.245 -23.869  0.00  0.00    +0.398 N 
ATOM     24  C   UNL     1      31.098  -8.003 -23.247  0.00  0.00    -0.076 C 
ATOM     25  C   UNL     1      33.140  -6.986 -24.070  0.00  0.00    -0.076 C 
ATOM     26  C   UNL     1      30.242  -7.072 -24.106  0.00  0.00    -0.023 C 
ATOM     27  C   UNL     1      32.350  -6.022 -24.957  0.00  0.00    -0.023 C 
ATOM     28  C   UNL     1      30.961  -5.758 -24.388  0.00  0.00    -0.004 C 
ATOM     29  H   UNL     1      32.247  -8.664 -24.785  0.00  0.00    -0.078 HD
ENDBRANCH  21  23
BRANCH  21  30
ATOM     30  C   UNL     1      32.392  -9.570 -21.819  0.00  0.00    -0.030 C 
ATOM     31  C   UNL     1      32.541  -8.854 -20.631  0.00  0.00    -0.006 C 
ATOM     32  C   UNL     1      31.510 -10.649 -21.877  0.00  0.00    -0.006 C 
ATOM     33  C   UNL     1      31.807  -9.217 -19.501  0.00  0.00    -0.000 C 
ATOM     34  C   UNL     1      30.776 -11.012 -20.748  0.00  0.00    -0.000 C 
ATOM     35  C   UNL     1      30.926 -10.296 -19.560  0.00  0.00    -0.000 C 
ENDBRANCH  21  30
ENDBRANCH  20  21
ENDBRANCH   1  20
TORSDOF 8
ENDMDL
MODEL 6
REMARK VINA RESULT:     -10.0      2.555      5.364
REMARK  Name = 44517831
REMARK  8 active torsions:
REMARK  status: ('A' for Active; 'I' for Inactive)
REMARK    1  A    between atoms: O_1  and  C_7
REMARK    2  A    between atoms: O_1  and  C_20
REMARK    3  A    between atoms: N_2  and  C_10
REMARK    4  A    between atoms: C_10  and  C_11
REMARK    5  A    between atoms: C_11  and  C_13
REMARK    6  A    between atoms: C_20  and  C_21
REMARK    7  A    between atoms: C_21  and  N_23
REMARK    8  A    between atoms: C_21  and  C_30
REMARK                            x       y       z     vdW  Elec       q    Type
REMARK                         _______ _______ _______ _____ _____    ______ ____
ROOT
ATOM      1  O   UNL     1      32.753 -12.400 -22.478  0.00  0.00    -0.456 OA
ENDROOT
BRANCH   1   7
ATOM      2  N   UNL     1      34.092 -15.603 -22.255  0.00  0.00    +0.393 N 
ATOM      3  C   UNL     1      32.511 -14.159 -20.820  0.00  0.00    +0.034 C 
ATOM      4  C   UNL     1      33.312 -14.638 -23.165  0.00  0.00    -0.028 C 
ATOM      5  C   UNL     1      34.913 -14.794 -21.242  0.00  0.00    -0.073 C 
ATOM      6  C   UNL     1      33.103 -16.507 -21.505  0.00  0.00    -0.073 C 
ATOM      7  C   UNL     1      32.393 -13.768 -22.301  0.00  0.00    +0.149 C 
ATOM      8  C   UNL     1      33.965 -13.983 -20.360  0.00  0.00    -0.019 C 
ATOM      9  C   UNL     1      32.146 -15.640 -20.686  0.00  0.00    -0.019 C 
BRANCH   2  10
ATOM     10  C   UNL     1      35.024 -16.458 -23.101  0.00  0.00    -0.068 C 
BRANCH  10  11
ATOM     11  C   UNL     1      34.525 -17.898 -23.145  0.00  0.00    +0.004 C 
BRANCH  11  13
ATOM     12  F   UNL     1      36.737 -21.183 -19.132  0.00  0.00    -0.204 F 
ATOM     13  C   UNL     1      35.117 -18.777 -22.071  0.00  0.00    -0.024 C 
ATOM     14  C   UNL     1      34.332 -19.755 -21.459  0.00  0.00    -0.002 C 
ATOM     15  C   UNL     1      36.449 -18.612 -21.690  0.00  0.00    -0.002 C 
ATOM     16  C   UNL     1      34.879 -20.567 -20.466  0.00  0.00    +0.029 C 
ATOM     17  C   UNL     1      36.996 -19.425 -20.696  0.00  0.00    +0.029 C 
ATOM     18  C   UNL     1      36.211 -20.402 -20.086  0.00  0.00    +0.140 C 
ENDBRANCH  11  13
ENDBRANCH  10  11
ENDBRANCH   2  10
ENDBRANCH   1   7
BRANCH   1  20
ATOM     19  O   UNL     1      30.693 -11.718 -21.707  0.00  0.00    -0.252 OA
ATOM     20  C   UNL     1      31.746 -11.488 -22.291  0.00  0.00    +0.302 C 
BRANCH  20  21
ATOM     21  C   UNL     1      32.121 -10.144 -22.933  0.00  0.00    +0.069 C 
ATOM     22  C   UNL     1      30.824  -9.532 -23.495  0.00  0.00    -0.006 C 
BRANCH  21  23
ATOM     23  N   UNL     1      32.574  -9.269 -21.853  0.00  0.00    +0.398 N 
ATOM     24  C   UNL     1      32.392  -7.858 -22.222  0.00  0.00    -0.076 C 
ATOM     25  C   UNL     1      31.866  -9.585 -20.604  0.00  0.00    -0.076 C 
ATOM     26  C   UNL     1      32.905  -6.929 -21.122  0.00  0.00    -0.023 C 
ATOM     27  C   UNL     1      32.363  -8.713 -19.450  0.00  0.00    -0.023 C 
ATOM     28  C   UNL     1      32.240  -7.231 -19.784  0.00  0.00    -0.004 C 
ATOM     29  H   UNL     1      33.570  -9.427 -21.698  0.00  0.00    -0.078 HD
ENDBRANCH  21  23
BRANCH  21  30
ATOM     30  C   UNL     1      33.254 -10.326 -23.946  0.00  0.00    -0.030 C 
ATOM     31  C   UNL     1      34.377  -9.499 -23.894  0.00  0.00    -0.006 C 
ATOM     32  C   UNL     1      33.166 -11.319 -24.921  0.00  0.00    -0.006 C 
ATOM     33  C   UNL     1      35.410  -9.665 -24.817  0.00  0.00    -0.000 C 
ATOM     34  C   UNL     1      34.198 -11.486 -25.844  0.00  0.00    -0.000 C 
ATOM     35  C   UNL     1      35.320 -10.658 -25.791  0.00  0.00    -0.000 C 
ENDBRANCH  21  30
ENDBRANCH  20  21
ENDBRANCH   1  20
TORSDOF 8
ENDMDL
MODEL 7
REMARK VINA RESULT:     -10.0      4.956     11.428
REMARK  Name = 44517831
REMARK  8 active torsions:
REMARK  status: ('A' for Active; 'I' for Inactive)
REMARK    1  A    between atoms: O_1  and  C_7
REMARK    2  A    between atoms: O_1  and  C_20
REMARK    3  A    between atoms: N_2  and  C_10
REMARK    4  A    between atoms: C_10  and  C_11
REMARK    5  A    between atoms: C_11  and  C_13
REMARK    6  A    between atoms: C_20  and  C_21
REMARK    7  A    between atoms: C_21  and  N_23
REMARK    8  A    between atoms: C_21  and  C_30
REMARK                            x       y       z     vdW  Elec       q    Type
REMARK                         _______ _______ _______ _____ _____    ______ ____
ROOT
ATOM      1  O   UNL     1      35.408 -23.347 -16.862  0.00  0.00    -0.456 OA
ENDROOT
BRANCH   1   7
ATOM      2  N   UNL     1      35.097 -21.550 -19.825  0.00  0.00    +0.393 N 
ATOM      3  C   UNL     1      33.486 -22.790 -18.240  0.00  0.00    +0.034 C 
ATOM      4  C   UNL     1      35.652 -21.503 -18.390  0.00  0.00    -0.028 C 
ATOM      5  C   UNL     1      34.962 -23.012 -20.271  0.00  0.00    -0.073 C 
ATOM      6  C   UNL     1      33.717 -20.876 -19.858  0.00  0.00    -0.073 C 
ATOM      7  C   UNL     1      34.701 -22.263 -17.461  0.00  0.00    +0.149 C 
ATOM      8  C   UNL     1      33.964 -23.725 -19.359  0.00  0.00    -0.019 C 
ATOM      9  C   UNL     1      32.780 -21.595 -18.888  0.00  0.00    -0.019 C 
BRANCH   2  10
ATOM     10  C   UNL     1      36.046 -20.816 -20.761  0.00  0.00    -0.068 C 
BRANCH  10  11
ATOM     11  C   UNL     1      35.820 -19.311 -20.670  0.00  0.00    +0.004 C 
BRANCH  11  13
ATOM     12  F   UNL     1      34.357 -16.943 -25.573  0.00  0.00    -0.204 F 
ATOM     13  C   UNL     1      35.428 -18.678 -21.982  0.00  0.00    -0.024 C 
ATOM     14  C   UNL     1      35.473 -17.291 -22.127  0.00  0.00    -0.002 C 
ATOM     15  C   UNL     1      35.021 -19.478 -23.049  0.00  0.00    -0.002 C 
ATOM     16  C   UNL     1      35.111 -16.705 -23.340  0.00  0.00    +0.029 C 
ATOM     17  C   UNL     1      34.659 -18.891 -24.262  0.00  0.00    +0.029 C 
ATOM     18  C   UNL     1      34.704 -17.506 -24.407  0.00  0.00    +0.140 C 
ENDBRANCH  11  13
ENDBRANCH  10  11
ENDBRANCH   2  10
ENDBRANCH   1   7
BRANCH   1  20
ATOM     19  O   UNL     1      36.168 -22.371 -14.921  0.00  0.00    -0.252 OA
ATOM     20  C   UNL     1      35.578 -23.273 -15.503  0.00  0.00    +0.302 C 
BRANCH  20  21
ATOM     21  C   UNL     1      34.937 -24.491 -14.821  0.00  0.00    +0.069 C 
ATOM     22  C   UNL     1      35.172 -25.702 -15.744  0.00  0.00    -0.006 C 
BRANCH  21  23
ATOM     23  N   UNL     1      35.693 -24.735 -13.593  0.00  0.00    +0.398 N 
ATOM     24  C   UNL     1      37.035 -25.244 -13.907  0.00  0.00    -0.076 C 
ATOM     25  C   UNL     1      35.765 -23.511 -12.782  0.00  0.00    -0.076 C 
ATOM     26  C   UNL     1      37.822 -25.549 -12.632  0.00  0.00    -0.023 C 
ATOM     27  C   UNL     1      36.509 -23.761 -11.469  0.00  0.00    -0.023 C 
ATOM     28  C   UNL     1      37.901 -24.329 -11.722  0.00  0.00    -0.004 C 
ATOM     29  H   UNL     1      35.207 -25.446 -13.046  0.00  0.00    -0.078 HD
ENDBRANCH  21  23
BRANCH  21  30
ATOM     30  C   UNL     1      33.475 -24.207 -14.468  0.00  0.00    -0.030 C 
ATOM     31  C   UNL     1      32.914 -22.965 -14.762  0.00  0.00    -0.006 C 
ATOM     32  C   UNL     1      32.702 -25.193 -13.853  0.00  0.00    -0.006 C 
ATOM     33  C   UNL     1      31.581 -22.707 -14.440  0.00  0.00    -0.000 C 
ATOM     34  C   UNL     1      31.370 -24.936 -13.532  0.00  0.00    -0.000 C 
ATOM     35  C   UNL     1      30.810 -23.692 -13.825  0.00  0.00    -0.000 C 
ENDBRANCH  21  30
ENDBRANCH  20  21
ENDBRANCH   1  20
TORSDOF 8
ENDMDL
MODEL 8
REMARK VINA RESULT:      -9.4      3.683      6.204
REMARK  Name = 44517831
REMARK  8 active torsions:
REMARK  status: ('A' for Active; 'I' for Inactive)
REMARK    1  A    between atoms: O_1  and  C_7
REMARK    2  A    between atoms: O_1  and  C_20
REMARK    3  A    between atoms: N_2  and  C_10
REMARK    4  A    between atoms: C_10  and  C_11
REMARK    5  A    between atoms: C_11  and  C_13
REMARK    6  A    between atoms: C_20  and  C_21
REMARK    7  A    between atoms: C_21  and  N_23
REMARK    8  A    between atoms: C_21  and  C_30
REMARK                            x       y       z     vdW  Elec       q    Type
REMARK                         _______ _______ _______ _____ _____    ______ ____
ROOT
ATOM      1  O   UNL     1      33.099 -11.151 -23.927  0.00  0.00    -0.456 OA
ENDROOT
BRANCH   1   7
ATOM      2  N   UNL     1      33.891 -14.318 -22.727  0.00  0.00    +0.393 N 
ATOM      3  C   UNL     1      33.181 -13.330 -24.999  0.00  0.00    +0.034 C 
ATOM      4  C   UNL     1      34.384 -12.864 -22.830  0.00  0.00    -0.028 C 
ATOM      5  C   UNL     1      32.361 -14.346 -22.843  0.00  0.00    -0.073 C 
ATOM      6  C   UNL     1      34.505 -15.146 -23.866  0.00  0.00    -0.073 C 
ATOM      7  C   UNL     1      33.936 -12.278 -24.173  0.00  0.00    +0.149 C 
ATOM      8  C   UNL     1      31.951 -13.809 -24.214  0.00  0.00    -0.019 C 
ATOM      9  C   UNL     1      34.108 -14.530 -25.208  0.00  0.00    -0.019 C 
BRANCH   2  10
ATOM     10  C   UNL     1      34.312 -14.904 -21.387  0.00  0.00    -0.068 C 
BRANCH  10  11
ATOM     11  C   UNL     1      33.371 -16.035 -20.987  0.00  0.00    +0.004 C 
BRANCH  11  13
ATOM     12  F   UNL     1      35.822 -21.112 -20.953  0.00  0.00    -0.204 F 
ATOM     13  C   UNL     1      34.027 -17.394 -20.977  0.00  0.00    -0.024 C 
ATOM     14  C   UNL     1      33.246 -18.544 -20.861  0.00  0.00    -0.002 C 
ATOM     15  C   UNL     1      35.413 -17.499 -21.086  0.00  0.00    -0.002 C 
ATOM     16  C   UNL     1      33.853 -19.800 -20.852  0.00  0.00    +0.029 C 
ATOM     17  C   UNL     1      36.020 -18.756 -21.077  0.00  0.00    +0.029 C 
ATOM     18  C   UNL     1      35.239 -19.905 -20.961  0.00  0.00    +0.140 C 
ENDBRANCH  11  13
ENDBRANCH  10  11
ENDBRANCH   2  10
ENDBRANCH   1   7
BRANCH   1  20
ATOM     19  O   UNL     1      34.956  -9.794 -23.824  0.00  0.00    -0.252 OA
ATOM     20  C   UNL     1      33.745  -9.956 -23.734  0.00  0.00    +0.302 C 
BRANCH  20  21
ATOM     21  C   UNL     1      32.734  -8.858 -23.372  0.00  0.00    +0.069 C 
ATOM     22  C   UNL     1      31.327  -9.461 -23.550  0.00  0.00    -0.006 C 
BRANCH  21  23
ATOM     23  N   UNL     1      32.902  -8.580 -21.946  0.00  0.00    +0.398 N 
ATOM     24  C   UNL     1      32.574  -7.178 -21.652  0.00  0.00    -0.076 C 
ATOM     25  C   UNL     1      32.079  -9.497 -21.143  0.00  0.00    -0.076 C 
ATOM     26  C   UNL     1      32.791  -6.858 -20.173  0.00  0.00    -0.023 C 
ATOM     27  C   UNL     1      32.280  -9.253 -19.646  0.00  0.00    -0.023 C 
ATOM     28  C   UNL     1      31.995  -7.802 -19.279  0.00  0.00    -0.004 C 
ATOM     29  H   UNL     1      33.878  -8.734 -21.695  0.00  0.00    -0.078 HD
ENDBRANCH  21  23
BRANCH  21  30
ATOM     30  C   UNL     1      33.009  -7.583 -24.172  0.00  0.00    -0.030 C 
ATOM     31  C   UNL     1      31.963  -6.715 -24.485  0.00  0.00    -0.006 C 
ATOM     32  C   UNL     1      34.308  -7.287 -24.587  0.00  0.00    -0.006 C 
ATOM     33  C   UNL     1      32.215  -5.553 -25.214  0.00  0.00    -0.000 C 
ATOM     34  C   UNL     1      34.560  -6.125 -25.315  0.00  0.00    -0.000 C 
ATOM     35  C   UNL     1      33.513  -5.258 -25.629  0.00  0.00    -0.000 C 
ENDBRANCH  21  30
ENDBRANCH  20  21
ENDBRANCH   1  20
TORSDOF 8
ENDMDL
MODEL 9
REMARK VINA RESULT:      -9.1      1.994      4.339
REMARK  Name = 44517831
REMARK  8 active torsions:
REMARK  status: ('A' for Active; 'I' for Inactive)
REMARK    1  A    between atoms: O_1  and  C_7
REMARK    2  A    between atoms: O_1  and  C_20
REMARK    3  A    between atoms: N_2  and  C_10
REMARK    4  A    between atoms: C_10  and  C_11
REMARK    5  A    between atoms: C_11  and  C_13
REMARK    6  A    between atoms: C_20  and  C_21
REMARK    7  A    between atoms: C_21  and  N_23
REMARK    8  A    between atoms: C_21  and  C_30
REMARK                            x       y       z     vdW  Elec       q    Type
REMARK                         _______ _______ _______ _____ _____    ______ ____
ROOT
ATOM      1  O   UNL     1      32.066 -13.684 -21.443  0.00  0.00    -0.456 OA
ENDROOT
BRANCH   1   7
ATOM      2  N   UNL     1      33.735 -16.735 -21.573  0.00  0.00    +0.393 N 
ATOM      3  C   UNL     1      34.360 -14.313 -20.946  0.00  0.00    +0.034 C 
ATOM      4  C   UNL     1      32.496 -16.013 -21.013  0.00  0.00    -0.028 C 
ATOM      5  C   UNL     1      34.234 -15.993 -22.821  0.00  0.00    -0.073 C 
ATOM      6  C   UNL     1      34.842 -16.744 -20.508  0.00  0.00    -0.073 C 
ATOM      7  C   UNL     1      32.871 -14.569 -20.667  0.00  0.00    +0.149 C 
ATOM      8  C   UNL     1      34.654 -14.577 -22.430  0.00  0.00    -0.019 C 
ATOM      9  C   UNL     1      35.179 -15.306 -20.116  0.00  0.00    -0.019 C 
BRANCH   2  10
ATOM     10  C   UNL     1      33.368 -18.164 -21.941  0.00  0.00    -0.068 C 
BRANCH  10  11
ATOM     11  C   UNL     1      34.598 -19.062 -21.862  0.00  0.00    +0.004 C 
BRANCH  11  13
ATOM     12  F   UNL     1      34.236 -23.049 -17.892  0.00  0.00    -0.204 F 
ATOM     13  C   UNL     1      34.501 -20.129 -20.800  0.00  0.00    -0.024 C 
ATOM     14  C   UNL     1      35.660 -20.729 -20.306  0.00  0.00    -0.002 C 
ATOM     15  C   UNL     1      33.253 -20.516 -20.312  0.00  0.00    -0.002 C 
ATOM     16  C   UNL     1      35.570 -21.715 -19.324  0.00  0.00    +0.029 C 
ATOM     17  C   UNL     1      33.164 -21.503 -19.329  0.00  0.00    +0.029 C 
ATOM     18  C   UNL     1      34.322 -22.101 -18.836  0.00  0.00    +0.140 C 
ENDBRANCH  11  13
ENDBRANCH  10  11
ENDBRANCH   2  10
ENDBRANCH   1   7
BRANCH   1  20
ATOM     19  O   UNL     1      31.954 -12.111 -19.766  0.00  0.00    -0.252 OA
ATOM     20  C   UNL     1      31.937 -12.409 -20.954  0.00  0.00    +0.302 C 
BRANCH  20  21
ATOM     21  C   UNL     1      31.751 -11.415 -22.110  0.00  0.00    +0.069 C 
ATOM     22  C   UNL     1      30.236 -11.186 -22.271  0.00  0.00    -0.006 C 
BRANCH  21  23
ATOM     23  N   UNL     1      32.331 -10.145 -21.674  0.00  0.00    +0.398 N 
ATOM     24  C   UNL     1      32.202  -9.131 -22.730  0.00  0.00    -0.076 C 
ATOM     25  C   UNL     1      31.701  -9.693 -20.425  0.00  0.00    -0.076 C 
ATOM     26  C   UNL     1      32.847  -7.810 -22.309  0.00  0.00    -0.023 C 
ATOM     27  C   UNL     1      32.331  -8.390 -19.928  0.00  0.00    -0.023 C 
ATOM     28  C   UNL     1      32.266  -7.303 -20.994  0.00  0.00    -0.004 C 
ATOM     29  H   UNL     1      33.325 -10.284 -21.492  0.00  0.00    -0.078 HD
ENDBRANCH  21  23
BRANCH  21  30
ATOM     30  C   UNL     1      32.480 -11.900 -23.365  0.00  0.00    -0.030 C 
ATOM     31  C   UNL     1      32.067 -13.069 -24.005  0.00  0.00    -0.006 C 
ATOM     32  C   UNL     1      33.558 -11.173 -23.870  0.00  0.00    -0.006 C 
ATOM     33  C   UNL     1      32.732 -13.511 -25.149  0.00  0.00    -0.000 C 
ATOM     34  C   UNL     1      34.223 -11.614 -25.014  0.00  0.00    -0.000 C 
ATOM     35  C   UNL     1      33.809 -12.784 -25.653  0.00  0.00    -0.000 C 
ENDBRANCH  21  30
ENDBRANCH  20  21
ENDBRANCH   1  20
TORSDOF 8
ENDMDL
