MODEL 1
REMARK VINA RESULT:      -6.2      0.000      0.000
REMARK  Name = 9571836
REMARK  6 active torsions:
REMARK  status: ('A' for Active; 'I' for Inactive)
REMARK    1  A    between atoms: C_2  and  N_7
REMARK    2  A    between atoms: C_3  and  C_11
REMARK    3  A    between atoms: N_10  and  C_11
REMARK    4  A    between atoms: N_10  and  N_12
REMARK    5  A    between atoms: N_12  and  C_15
REMARK    6  A    between atoms: C_15  and  N_16
REMARK                            x       y       z     vdW  Elec       q    Type
REMARK                         _______ _______ _______ _____ _____    ______ ____
ROOT
ATOM      1  N   UNL     1      35.061 -16.579 -20.496  0.00  0.00    -0.245 NA
ATOM      2  C   UNL     1      35.097 -16.617 -22.913  0.00  0.00    +0.057 C 
ATOM      3  C   UNL     1      35.328 -17.189 -21.672  0.00  0.00    +0.091 C 
ATOM      4  C   UNL     1      34.554 -15.337 -22.949  0.00  0.00    +0.017 C 
ATOM      5  C   UNL     1      34.265 -14.677 -21.759  0.00  0.00    +0.022 C 
ATOM      6  C   UNL     1      34.535 -15.336 -20.570  0.00  0.00    +0.099 C 
ENDROOT
BRANCH   2   7
ATOM      7  N   UNL     1      35.392 -17.292 -24.111  0.00  0.00    -0.356 N 
ATOM      8  H   UNL     1      36.114 -17.962 -24.134  0.00  0.00    +0.142 HD
ATOM      9  H   UNL     1      34.877 -17.096 -24.927  0.00  0.00    +0.142 HD
ENDBRANCH   2   7
BRANCH   3  10
ATOM     10  C   UNL     1      35.893 -18.525 -21.548  0.00  0.00    +0.158 C 
BRANCH  10  11
ATOM     11  N   UNL     1      35.143 -19.562 -21.714  0.00  0.00    -0.126 NA
BRANCH  11  12
ATOM     12  N   UNL     1      34.085 -19.613 -20.868  0.00  0.00    -0.244 N 
ATOM     13  H   UNL     1      33.430 -18.879 -20.864  0.00  0.00    +0.170 HD
BRANCH  12  15
ATOM     14  S   UNL     1      35.207 -21.618 -19.524  0.00  0.00    -0.018 S 
ATOM     15  C   UNL     1      33.916 -20.675 -20.014  0.00  0.00    +0.143 C 
BRANCH  15  16
ATOM     16  N   UNL     1      32.641 -20.927 -19.583  0.00  0.00    -0.340 N 
ATOM     17  H   UNL     1      32.477 -21.164 -18.642  0.00  0.00    +0.144 HD
ATOM     18  H   UNL     1      31.888 -20.869 -20.214  0.00  0.00    +0.144 HD
ENDBRANCH  15  16
ENDBRANCH  12  15
ENDBRANCH  11  12
ENDBRANCH  10  11
ENDBRANCH   3  10
TORSDOF 6
ENDMDL
MODEL 2
REMARK VINA RESULT:      -6.1      3.488      5.106
REMARK  Name = 9571836
REMARK  6 active torsions:
REMARK  status: ('A' for Active; 'I' for Inactive)
REMARK    1  A    between atoms: C_2  and  N_7
REMARK    2  A    between atoms: C_3  and  C_11
REMARK    3  A    between atoms: N_10  and  C_11
REMARK    4  A    between atoms: N_10  and  N_12
REMARK    5  A    between atoms: N_12  and  C_15
REMARK    6  A    between atoms: C_15  and  N_16
REMARK                            x       y       z     vdW  Elec       q    Type
REMARK                         _______ _______ _______ _____ _____    ______ ____
ROOT
ATOM      1  N   UNL     1      35.746 -19.825 -20.442  0.00  0.00    -0.245 NA
ATOM      2  C   UNL     1      33.716 -21.030 -19.919  0.00  0.00    +0.057 C 
ATOM      3  C   UNL     1      35.092 -20.867 -19.882  0.00  0.00    +0.091 C 
ATOM      4  C   UNL     1      32.963 -20.059 -20.571  0.00  0.00    +0.017 C 
ATOM      5  C   UNL     1      33.600 -18.972 -21.159  0.00  0.00    +0.022 C 
ATOM      6  C   UNL     1      34.981 -18.902 -21.067  0.00  0.00    +0.099 C 
ENDROOT
BRANCH   2   7
ATOM      7  N   UNL     1      33.080 -22.133 -19.321  0.00  0.00    -0.356 N 
ATOM      8  H   UNL     1      32.713 -22.057 -18.411  0.00  0.00    +0.142 HD
ATOM      9  H   UNL     1      33.001 -22.983 -19.814  0.00  0.00    +0.142 HD
ENDBRANCH   2   7
BRANCH   3  10
ATOM     10  C   UNL     1      35.951 -21.838 -19.219  0.00  0.00    +0.158 C 
BRANCH  10  11
ATOM     11  N   UNL     1      35.705 -22.195 -18.004  0.00  0.00    -0.126 NA
BRANCH  11  12
ATOM     12  N   UNL     1      36.742 -21.994 -17.154  0.00  0.00    -0.244 N 
ATOM     13  H   UNL     1      37.384 -21.270 -17.334  0.00  0.00    +0.170 HD
BRANCH  12  15
ATOM     14  S   UNL     1      35.678 -23.022 -14.943  0.00  0.00    -0.018 S 
ATOM     15  C   UNL     1      36.911 -22.788 -16.047  0.00  0.00    +0.143 C 
BRANCH  15  16
ATOM     16  N   UNL     1      38.136 -23.379 -15.889  0.00  0.00    -0.340 N 
ATOM     17  H   UNL     1      38.327 -23.908 -15.081  0.00  0.00    +0.144 HD
ATOM     18  H   UNL     1      38.825 -23.276 -16.583  0.00  0.00    +0.144 HD
ENDBRANCH  15  16
ENDBRANCH  12  15
ENDBRANCH  11  12
ENDBRANCH  10  11
ENDBRANCH   3  10
TORSDOF 6
ENDMDL
MODEL 3
REMARK VINA RESULT:      -5.9      2.785      5.413
REMARK  Name = 9571836
REMARK  6 active torsions:
REMARK  status: ('A' for Active; 'I' for Inactive)
REMARK    1  A    between atoms: C_2  and  N_7
REMARK    2  A    between atoms: C_3  and  C_11
REMARK    3  A    between atoms: N_10  and  C_11
REMARK    4  A    between atoms: N_10  and  N_12
REMARK    5  A    between atoms: N_12  and  C_15
REMARK    6  A    between atoms: C_15  and  N_16
REMARK                            x       y       z     vdW  Elec       q    Type
REMARK                         _______ _______ _______ _____ _____    ______ ____
ROOT
ATOM      1  N   UNL     1      36.216 -20.140 -20.115  0.00  0.00    -0.245 NA
ATOM      2  C   UNL     1      33.838 -20.540 -20.288  0.00  0.00    +0.057 C 
ATOM      3  C   UNL     1      34.987 -19.822 -20.580  0.00  0.00    +0.091 C 
ATOM      4  C   UNL     1      33.959 -21.657 -19.469  0.00  0.00    +0.017 C 
ATOM      5  C   UNL     1      35.207 -22.017 -18.973  0.00  0.00    +0.022 C 
ATOM      6  C   UNL     1      36.294 -21.232 -19.323  0.00  0.00    +0.099 C 
ENDROOT
BRANCH   2   7
ATOM      7  N   UNL     1      32.579 -20.169 -20.795  0.00  0.00    -0.356 N 
ATOM      8  H   UNL     1      32.029 -19.510 -20.313  0.00  0.00    +0.142 HD
ATOM      9  H   UNL     1      32.249 -20.567 -21.633  0.00  0.00    +0.142 HD
ENDBRANCH   2   7
BRANCH   3  10
ATOM     10  C   UNL     1      34.947 -18.641 -21.429  0.00  0.00    +0.158 C 
BRANCH  10  11
ATOM     11  N   UNL     1      34.895 -18.769 -22.713  0.00  0.00    -0.126 NA
BRANCH  11  12
ATOM     12  N   UNL     1      35.589 -17.820 -23.386  0.00  0.00    -0.244 N 
ATOM     13  H   UNL     1      36.573 -17.850 -23.391  0.00  0.00    +0.170 HD
BRANCH  12  15
ATOM     14  S   UNL     1      34.509 -15.389 -23.299  0.00  0.00    -0.018 S 
ATOM     15  C   UNL     1      34.940 -16.815 -24.059  0.00  0.00    +0.143 C 
BRANCH  15  16
ATOM     16  N   UNL     1      34.660 -17.035 -25.381  0.00  0.00    -0.340 N 
ATOM     17  H   UNL     1      34.725 -17.944 -25.754  0.00  0.00    +0.144 HD
ATOM     18  H   UNL     1      34.393 -16.285 -25.959  0.00  0.00    +0.144 HD
ENDBRANCH  15  16
ENDBRANCH  12  15
ENDBRANCH  11  12
ENDBRANCH  10  11
ENDBRANCH   3  10
TORSDOF 6
ENDMDL
MODEL 4
REMARK VINA RESULT:      -5.9      2.945      5.124
REMARK  Name = 9571836
REMARK  6 active torsions:
REMARK  status: ('A' for Active; 'I' for Inactive)
REMARK    1  A    between atoms: C_2  and  N_7
REMARK    2  A    between atoms: C_3  and  C_11
REMARK    3  A    between atoms: N_10  and  C_11
REMARK    4  A    between atoms: N_10  and  N_12
REMARK    5  A    between atoms: N_12  and  C_15
REMARK    6  A    between atoms: C_15  and  N_16
REMARK                            x       y       z     vdW  Elec       q    Type
REMARK                         _______ _______ _______ _____ _____    ______ ____
ROOT
ATOM      1  N   UNL     1      33.821 -19.096 -21.234  0.00  0.00    -0.245 NA
ATOM      2  C   UNL     1      35.428 -20.578 -20.201  0.00  0.00    +0.057 C 
ATOM      3  C   UNL     1      35.092 -19.480 -20.977  0.00  0.00    +0.091 C 
ATOM      4  C   UNL     1      34.394 -21.328 -19.652  0.00  0.00    +0.017 C 
ATOM      5  C   UNL     1      33.073 -20.964 -19.893  0.00  0.00    +0.022 C 
ATOM      6  C   UNL     1      32.843 -19.850 -20.684  0.00  0.00    +0.099 C 
ENDROOT
BRANCH   2   7
ATOM      7  N   UNL     1      36.766 -20.939 -19.962  0.00  0.00    -0.356 N 
ATOM      8  H   UNL     1      37.438 -20.244 -19.778  0.00  0.00    +0.142 HD
ATOM      9  H   UNL     1      37.031 -21.888 -19.979  0.00  0.00    +0.142 HD
ENDBRANCH   2   7
BRANCH   3  10
ATOM     10  C   UNL     1      36.114 -18.643 -21.588  0.00  0.00    +0.158 C 
BRANCH  10  11
ATOM     11  N   UNL     1      36.032 -18.332 -22.838  0.00  0.00    -0.126 NA
BRANCH  11  12
ATOM     12  N   UNL     1      35.645 -17.052 -23.059  0.00  0.00    -0.244 N 
ATOM     13  H   UNL     1      35.996 -16.333 -22.487  0.00  0.00    +0.170 HD
BRANCH  12  15
ATOM     14  S   UNL     1      33.870 -15.336 -24.051  0.00  0.00    -0.018 S 
ATOM     15  C   UNL     1      34.769 -16.745 -24.071  0.00  0.00    +0.143 C 
BRANCH  15  16
ATOM     16  N   UNL     1      34.664 -17.647 -25.095  0.00  0.00    -0.340 N 
ATOM     17  H   UNL     1      34.410 -18.580 -24.907  0.00  0.00    +0.144 HD
ATOM     18  H   UNL     1      34.843 -17.364 -26.021  0.00  0.00    +0.144 HD
ENDBRANCH  15  16
ENDBRANCH  12  15
ENDBRANCH  11  12
ENDBRANCH  10  11
ENDBRANCH   3  10
TORSDOF 6
ENDMDL
MODEL 5
REMARK VINA RESULT:      -5.9      1.158      2.288
REMARK  Name = 9571836
REMARK  6 active torsions:
REMARK  status: ('A' for Active; 'I' for Inactive)
REMARK    1  A    between atoms: C_2  and  N_7
REMARK    2  A    between atoms: C_3  and  C_11
REMARK    3  A    between atoms: N_10  and  C_11
REMARK    4  A    between atoms: N_10  and  N_12
REMARK    5  A    between atoms: N_12  and  C_15
REMARK    6  A    between atoms: C_15  and  N_16
REMARK                            x       y       z     vdW  Elec       q    Type
REMARK                         _______ _______ _______ _____ _____    ______ ____
ROOT
ATOM      1  N   UNL     1      35.274 -18.177 -24.025  0.00  0.00    -0.245 NA
ATOM      2  C   UNL     1      34.748 -16.279 -22.623  0.00  0.00    +0.057 C 
ATOM      3  C   UNL     1      35.304 -17.530 -22.839  0.00  0.00    +0.091 C 
ATOM      4  C   UNL     1      34.122 -15.651 -23.695  0.00  0.00    +0.017 C 
ATOM      5  C   UNL     1      34.072 -16.285 -24.932  0.00  0.00    +0.022 C 
ATOM      6  C   UNL     1      34.658 -17.536 -25.043  0.00  0.00    +0.099 C 
ENDROOT
BRANCH   2   7
ATOM      7  N   UNL     1      34.804 -15.646 -21.368  0.00  0.00    -0.356 N 
ATOM      8  H   UNL     1      33.982 -15.294 -20.957  0.00  0.00    +0.142 HD
ATOM      9  H   UNL     1      35.666 -15.556 -20.900  0.00  0.00    +0.142 HD
ENDBRANCH   2   7
BRANCH   3  10
ATOM     10  C   UNL     1      35.977 -18.255 -21.770  0.00  0.00    +0.158 C 
BRANCH  10  11
ATOM     11  N   UNL     1      35.312 -18.639 -20.732  0.00  0.00    -0.126 NA
BRANCH  11  12
ATOM     12  N   UNL     1      34.309 -19.505 -21.016  0.00  0.00    -0.244 N 
ATOM     13  H   UNL     1      33.771 -19.375 -21.829  0.00  0.00    +0.170 HD
BRANCH  12  15
ATOM     14  S   UNL     1      35.243 -21.538 -19.576  0.00  0.00    -0.018 S 
ATOM     15  C   UNL     1      34.031 -20.560 -20.182  0.00  0.00    +0.143 C 
BRANCH  15  16
ATOM     16  N   UNL     1      32.715 -20.774 -19.872  0.00  0.00    -0.340 N 
ATOM     17  H   UNL     1      32.469 -21.474 -19.223  0.00  0.00    +0.144 HD
ATOM     18  H   UNL     1      32.014 -20.230 -20.296  0.00  0.00    +0.144 HD
ENDBRANCH  15  16
ENDBRANCH  12  15
ENDBRANCH  11  12
ENDBRANCH  10  11
ENDBRANCH   3  10
TORSDOF 6
ENDMDL
MODEL 6
REMARK VINA RESULT:      -5.8      5.716      7.481
REMARK  Name = 9571836
REMARK  6 active torsions:
REMARK  status: ('A' for Active; 'I' for Inactive)
REMARK    1  A    between atoms: C_2  and  N_7
REMARK    2  A    between atoms: C_3  and  C_11
REMARK    3  A    between atoms: N_10  and  C_11
REMARK    4  A    between atoms: N_10  and  N_12
REMARK    5  A    between atoms: N_12  and  C_15
REMARK    6  A    between atoms: C_15  and  N_16
REMARK                            x       y       z     vdW  Elec       q    Type
REMARK                         _______ _______ _______ _____ _____    ______ ____
ROOT
ATOM      1  N   UNL     1      35.156 -23.000 -16.560  0.00  0.00    -0.245 NA
ATOM      2  C   UNL     1      35.737 -21.712 -18.522  0.00  0.00    +0.057 C 
ATOM      3  C   UNL     1      36.011 -22.225 -17.264  0.00  0.00    +0.091 C 
ATOM      4  C   UNL     1      34.507 -22.015 -19.094  0.00  0.00    +0.017 C 
ATOM      5  C   UNL     1      33.600 -22.811 -18.402  0.00  0.00    +0.022 C 
ATOM      6  C   UNL     1      33.970 -23.274 -17.149  0.00  0.00    +0.099 C 
ENDROOT
BRANCH   2   7
ATOM      7  N   UNL     1      36.660 -20.908 -19.215  0.00  0.00    -0.356 N 
ATOM      8  H   UNL     1      37.485 -20.609 -18.769  0.00  0.00    +0.142 HD
ATOM      9  H   UNL     1      36.481 -20.644 -20.147  0.00  0.00    +0.142 HD
ENDBRANCH   2   7
BRANCH   3  10
ATOM     10  C   UNL     1      37.275 -21.955 -16.594  0.00  0.00    +0.158 C 
BRANCH  10  11
ATOM     11  N   UNL     1      37.555 -22.543 -15.480  0.00  0.00    -0.126 NA
BRANCH  11  12
ATOM     12  N   UNL     1      38.090 -23.779 -15.633  0.00  0.00    -0.244 N 
ATOM     13  H   UNL     1      38.741 -23.940 -16.354  0.00  0.00    +0.170 HD
BRANCH  12  15
ATOM     14  S   UNL     1      38.762 -25.355 -13.598  0.00  0.00    -0.018 S 
ATOM     15  C   UNL     1      37.736 -24.810 -14.799  0.00  0.00    +0.143 C 
BRANCH  15  16
ATOM     16  N   UNL     1      36.502 -25.371 -14.997  0.00  0.00    -0.340 N 
ATOM     17  H   UNL     1      35.695 -24.807 -14.976  0.00  0.00    +0.144 HD
ATOM     18  H   UNL     1      36.423 -26.338 -15.160  0.00  0.00    +0.144 HD
ENDBRANCH  15  16
ENDBRANCH  12  15
ENDBRANCH  11  12
ENDBRANCH  10  11
ENDBRANCH   3  10
TORSDOF 6
ENDMDL
MODEL 7
REMARK VINA RESULT:      -5.8      4.002      5.990
REMARK  Name = 9571836
REMARK  6 active torsions:
REMARK  status: ('A' for Active; 'I' for Inactive)
REMARK    1  A    between atoms: C_2  and  N_7
REMARK    2  A    between atoms: C_3  and  C_11
REMARK    3  A    between atoms: N_10  and  C_11
REMARK    4  A    between atoms: N_10  and  N_12
REMARK    5  A    between atoms: N_12  and  C_15
REMARK    6  A    between atoms: C_15  and  N_16
REMARK                            x       y       z     vdW  Elec       q    Type
REMARK                         _______ _______ _______ _____ _____    ______ ____
ROOT
ATOM      1  N   UNL     1      34.429 -16.597 -24.227  0.00  0.00    -0.245 NA
ATOM      2  C   UNL     1      35.007 -17.841 -22.236  0.00  0.00    +0.057 C 
ATOM      3  C   UNL     1      34.697 -16.667 -22.903  0.00  0.00    +0.091 C 
ATOM      4  C   UNL     1      35.043 -19.019 -22.974  0.00  0.00    +0.017 C 
ATOM      5  C   UNL     1      34.772 -18.988 -24.338  0.00  0.00    +0.022 C 
ATOM      6  C   UNL     1      34.474 -17.762 -24.911  0.00  0.00    +0.099 C 
ENDROOT
BRANCH   2   7
ATOM      7  N   UNL     1      35.279 -17.864 -20.856  0.00  0.00    -0.356 N 
ATOM      8  H   UNL     1      35.165 -17.047 -20.318  0.00  0.00    +0.142 HD
ATOM      9  H   UNL     1      35.584 -18.697 -20.428  0.00  0.00    +0.142 HD
ENDBRANCH   2   7
BRANCH   3  10
ATOM     10  C   UNL     1      34.638 -15.391 -22.204  0.00  0.00    +0.158 C 
BRANCH  10  11
ATOM     11  N   UNL     1      33.750 -14.514 -22.533  0.00  0.00    -0.126 NA
BRANCH  11  12
ATOM     12  N   UNL     1      34.252 -13.458 -23.218  0.00  0.00    -0.244 N 
ATOM     13  H   UNL     1      35.030 -12.974 -22.861  0.00  0.00    +0.170 HD
BRANCH  12  15
ATOM     14  S   UNL     1      33.940 -11.517 -25.011  0.00  0.00    -0.018 S 
ATOM     15  C   UNL     1      33.688 -13.053 -24.403  0.00  0.00    +0.143 C 
BRANCH  15  16
ATOM     16  N   UNL     1      32.909 -13.966 -25.062  0.00  0.00    -0.340 N 
ATOM     17  H   UNL     1      33.328 -14.723 -25.532  0.00  0.00    +0.144 HD
ATOM     18  H   UNL     1      31.930 -13.866 -25.065  0.00  0.00    +0.144 HD
ENDBRANCH  15  16
ENDBRANCH  12  15
ENDBRANCH  11  12
ENDBRANCH  10  11
ENDBRANCH   3  10
TORSDOF 6
ENDMDL
MODEL 8
REMARK VINA RESULT:      -5.8      4.221      5.674
REMARK  Name = 9571836
REMARK  6 active torsions:
REMARK  status: ('A' for Active; 'I' for Inactive)
REMARK    1  A    between atoms: C_2  and  N_7
REMARK    2  A    between atoms: C_3  and  C_11
REMARK    3  A    between atoms: N_10  and  C_11
REMARK    4  A    between atoms: N_10  and  N_12
REMARK    5  A    between atoms: N_12  and  C_15
REMARK    6  A    between atoms: C_15  and  N_16
REMARK                            x       y       z     vdW  Elec       q    Type
REMARK                         _______ _______ _______ _____ _____    ______ ____
ROOT
ATOM      1  N   UNL     1      35.698 -22.112 -18.877  0.00  0.00    -0.245 NA
ATOM      2  C   UNL     1      33.942 -20.954 -20.068  0.00  0.00    +0.057 C 
ATOM      3  C   UNL     1      34.400 -21.947 -19.216  0.00  0.00    +0.091 C 
ATOM      4  C   UNL     1      34.875 -20.073 -20.603  0.00  0.00    +0.017 C 
ATOM      5  C   UNL     1      36.220 -20.211 -20.276  0.00  0.00    +0.022 C 
ATOM      6  C   UNL     1      36.576 -21.237 -19.416  0.00  0.00    +0.099 C 
ENDROOT
BRANCH   2   7
ATOM      7  N   UNL     1      32.579 -20.824 -20.393  0.00  0.00    -0.356 N 
ATOM      8  H   UNL     1      32.011 -21.624 -20.465  0.00  0.00    +0.142 HD
ATOM      9  H   UNL     1      32.193 -19.930 -20.547  0.00  0.00    +0.142 HD
ENDBRANCH   2   7
BRANCH   3  10
ATOM     10  C   UNL     1      33.489 -22.910 -18.614  0.00  0.00    +0.158 C 
BRANCH  10  11
ATOM     11  N   UNL     1      32.431 -22.500 -17.999  0.00  0.00    -0.126 NA
BRANCH  11  12
ATOM     12  N   UNL     1      32.164 -23.178 -16.857  0.00  0.00    -0.244 N 
ATOM     13  H   UNL     1      32.818 -23.831 -16.516  0.00  0.00    +0.170 HD
BRANCH  12  15
ATOM     14  S   UNL     1      30.921 -23.119 -14.505  0.00  0.00    -0.018 S 
ATOM     15  C   UNL     1      30.995 -22.969 -16.169  0.00  0.00    +0.143 C 
BRANCH  15  16
ATOM     16  N   UNL     1      29.892 -22.634 -16.907  0.00  0.00    -0.340 N 
ATOM     17  H   UNL     1      29.503 -21.732 -16.830  0.00  0.00    +0.144 HD
ATOM     18  H   UNL     1      29.489 -23.293 -17.516  0.00  0.00    +0.144 HD
ENDBRANCH  15  16
ENDBRANCH  12  15
ENDBRANCH  11  12
ENDBRANCH  10  11
ENDBRANCH   3  10
TORSDOF 6
ENDMDL
MODEL 9
REMARK VINA RESULT:      -5.8      4.105      5.738
REMARK  Name = 9571836
REMARK  6 active torsions:
REMARK  status: ('A' for Active; 'I' for Inactive)
REMARK    1  A    between atoms: C_2  and  N_7
REMARK    2  A    between atoms: C_3  and  C_11
REMARK    3  A    between atoms: N_10  and  C_11
REMARK    4  A    between atoms: N_10  and  N_12
REMARK    5  A    between atoms: N_12  and  C_15
REMARK    6  A    between atoms: C_15  and  N_16
REMARK                            x       y       z     vdW  Elec       q    Type
REMARK                         _______ _______ _______ _____ _____    ______ ____
ROOT
ATOM      1  N   UNL     1      35.651 -22.083 -18.736  0.00  0.00    -0.245 NA
ATOM      2  C   UNL     1      33.955 -20.890 -19.979  0.00  0.00    +0.057 C 
ATOM      3  C   UNL     1      34.360 -21.840 -19.055  0.00  0.00    +0.091 C 
ATOM      4  C   UNL     1      34.938 -20.140 -20.615  0.00  0.00    +0.017 C 
ATOM      5  C   UNL     1      36.278 -20.360 -20.312  0.00  0.00    +0.022 C 
ATOM      6  C   UNL     1      36.578 -21.334 -19.374  0.00  0.00    +0.099 C 
ENDROOT
BRANCH   2   7
ATOM      7  N   UNL     1      32.598 -20.674 -20.279  0.00  0.00    -0.356 N 
ATOM      8  H   UNL     1      32.208 -19.776 -20.180  0.00  0.00    +0.142 HD
ATOM      9  H   UNL     1      32.037 -21.423 -20.588  0.00  0.00    +0.142 HD
ENDBRANCH   2   7
BRANCH   3  10
ATOM     10  C   UNL     1      33.394 -22.667 -18.346  0.00  0.00    +0.158 C 
BRANCH  10  11
ATOM     11  N   UNL     1      33.800 -23.644 -17.606  0.00  0.00    -0.126 NA
BRANCH  11  12
ATOM     12  N   UNL     1      33.943 -23.317 -16.299  0.00  0.00    -0.244 N 
ATOM     13  H   UNL     1      33.181 -22.936 -15.808  0.00  0.00    +0.170 HD
BRANCH  12  15
ATOM     14  S   UNL     1      35.502 -24.958 -14.900  0.00  0.00    -0.018 S 
ATOM     15  C   UNL     1      35.138 -23.509 -15.651  0.00  0.00    +0.143 C 
BRANCH  15  16
ATOM     16  N   UNL     1      36.017 -22.459 -15.646  0.00  0.00    -0.340 N 
ATOM     17  H   UNL     1      36.110 -21.892 -16.446  0.00  0.00    +0.144 HD
ATOM     18  H   UNL     1      36.554 -22.271 -14.844  0.00  0.00    +0.144 HD
ENDBRANCH  15  16
ENDBRANCH  12  15
ENDBRANCH  11  12
ENDBRANCH  10  11
ENDBRANCH   3  10
TORSDOF 6
ENDMDL
