MODEL 1
REMARK VINA RESULT:      -9.7      0.000      0.000
REMARK  Name = 24892842
REMARK  9 active torsions:
REMARK  status: ('A' for Active; 'I' for Inactive)
REMARK    1  A    between atoms: C_1  and  C_7
REMARK    2  A    between atoms: C_1  and  O_13
REMARK    3  A    between atoms: C_2  and  C_16
REMARK    4  A    between atoms: C_16  and  O_17
REMARK    5  A    between atoms: O_17  and  C_18
REMARK    6  A    between atoms: C_18  and  C_20
REMARK    7  A    between atoms: C_20  and  N_21
REMARK    8  A    between atoms: N_21  and  C_23
REMARK    9  A    between atoms: N_21  and  C_25
REMARK                            x       y       z     vdW  Elec       q    Type
REMARK                         _______ _______ _______ _____ _____    ______ ____
ROOT
ATOM      1  C   UNL     1      35.046 -18.331 -22.347  0.00  0.00    +0.098 C 
ATOM      2  C   UNL     1      34.324 -16.966 -22.416  0.00  0.00    +0.124 C 
ATOM      3  C   UNL     1      34.676 -19.178 -23.581  0.00  0.00    +0.027 C 
ATOM      4  C   UNL     1      34.611 -16.230 -23.731  0.00  0.00    +0.013 C 
ATOM      5  C   UNL     1      34.945 -18.443 -24.897  0.00  0.00    +0.002 C 
ATOM      6  C   UNL     1      34.248 -17.087 -24.939  0.00  0.00    +0.001 C 
ENDROOT
BRANCH   1   7
ATOM      7  C   UNL     1      34.698 -19.103 -21.077  0.00  0.00    +0.025 C 
ATOM      8  C   UNL     1      33.264 -19.648 -21.148  0.00  0.00    +0.002 C 
ATOM      9  C   UNL     1      35.703 -20.239 -20.841  0.00  0.00    +0.002 C 
ATOM     10  C   UNL     1      32.912 -20.469 -19.911  0.00  0.00    +0.000 C 
ATOM     11  C   UNL     1      35.345 -21.061 -19.605  0.00  0.00    +0.000 C 
ATOM     12  C   UNL     1      33.918 -21.592 -19.675  0.00  0.00    +0.000 C 
ENDBRANCH   1   7
BRANCH   1  13
ATOM     13  O   UNL     1      36.464 -18.141 -22.380  0.00  0.00    -0.386 OA
ATOM     14  H   UNL     1      36.881 -18.892 -22.829  0.00  0.00    +0.210 HD
ENDBRANCH   1  13
BRANCH   2  16
ATOM     15  O   UNL     1      35.275 -16.457 -20.260  0.00  0.00    -0.250 OA
ATOM     16  C   UNL     1      34.706 -16.071 -21.272  0.00  0.00    +0.319 C 
BRANCH  16  17
ATOM     17  O   UNL     1      34.321 -14.791 -21.545  0.00  0.00    -0.454 OA
BRANCH  17  18
ATOM     18  C   UNL     1      33.061 -14.397 -20.992  0.00  0.00    +0.148 C 
ATOM     19  C   UNL     1      32.342 -15.661 -20.538  0.00  0.00    +0.045 C 
BRANCH  18  20
ATOM     20  C   UNL     1      32.285 -13.611 -22.051  0.00  0.00    -0.033 C 
BRANCH  20  21
ATOM     21  N   UNL     1      32.379 -12.172 -21.845  0.00  0.00    +0.389 N 
ATOM     22  H   UNL     1      33.166 -11.992 -21.222  0.00  0.00    -0.080 HD
BRANCH  21  23
ATOM     23  C   UNL     1      31.160 -11.659 -21.215  0.00  0.00    -0.077 C 
ATOM     24  C   UNL     1      31.420 -11.238 -19.779  0.00  0.00    -0.025 C 
ENDBRANCH  21  23
BRANCH  21  25
ATOM     25  C   UNL     1      32.622 -11.483 -23.114  0.00  0.00    -0.077 C 
ATOM     26  C   UNL     1      33.657 -12.219 -23.949  0.00  0.00    -0.025 C 
ENDBRANCH  21  25
ENDBRANCH  20  21
ENDBRANCH  18  20
ENDBRANCH  17  18
ENDBRANCH  16  17
ENDBRANCH   2  16
TORSDOF 9
ENDMDL
MODEL 2
REMARK VINA RESULT:      -8.7      1.357      1.781
REMARK  Name = 24892842
REMARK  9 active torsions:
REMARK  status: ('A' for Active; 'I' for Inactive)
REMARK    1  A    between atoms: C_1  and  C_7
REMARK    2  A    between atoms: C_1  and  O_13
REMARK    3  A    between atoms: C_2  and  C_16
REMARK    4  A    between atoms: C_16  and  O_17
REMARK    5  A    between atoms: O_17  and  C_18
REMARK    6  A    between atoms: C_18  and  C_20
REMARK    7  A    between atoms: C_20  and  N_21
REMARK    8  A    between atoms: N_21  and  C_23
REMARK    9  A    between atoms: N_21  and  C_25
REMARK                            x       y       z     vdW  Elec       q    Type
REMARK                         _______ _______ _______ _____ _____    ______ ____
ROOT
ATOM      1  C   UNL     1      34.908 -17.135 -22.971  0.00  0.00    +0.098 C 
ATOM      2  C   UNL     1      33.710 -16.157 -22.974  0.00  0.00    +0.124 C 
ATOM      3  C   UNL     1      34.859 -18.020 -24.233  0.00  0.00    +0.027 C 
ATOM      4  C   UNL     1      33.650 -15.327 -24.261  0.00  0.00    +0.013 C 
ATOM      5  C   UNL     1      34.782 -17.197 -25.522  0.00  0.00    +0.002 C 
ATOM      6  C   UNL     1      33.613 -16.218 -25.498  0.00  0.00    +0.001 C 
ENDROOT
BRANCH   1   7
ATOM      7  C   UNL     1      34.925 -18.022 -21.729  0.00  0.00    +0.025 C 
ATOM      8  C   UNL     1      33.834 -19.098 -21.814  0.00  0.00    +0.002 C 
ATOM      9  C   UNL     1      36.308 -18.660 -21.537  0.00  0.00    +0.002 C 
ATOM     10  C   UNL     1      33.866 -20.031 -20.606  0.00  0.00    +0.000 C 
ATOM     11  C   UNL     1      36.336 -19.594 -20.330  0.00  0.00    +0.000 C 
ATOM     12  C   UNL     1      35.245 -20.656 -20.414  0.00  0.00    +0.000 C 
ENDBRANCH   1   7
BRANCH   1  13
ATOM     13  O   UNL     1      36.139 -16.407 -23.018  0.00  0.00    -0.386 OA
ATOM     14  H   UNL     1      36.676 -16.728 -23.758  0.00  0.00    +0.210 HD
ENDBRANCH   1  13
BRANCH   2  16
ATOM     15  O   UNL     1      34.692 -15.130 -21.026  0.00  0.00    -0.250 OA
ATOM     16  C   UNL     1      33.749 -15.221 -21.800  0.00  0.00    +0.319 C 
BRANCH  16  17
ATOM     17  O   UNL     1      32.587 -14.509 -21.745  0.00  0.00    -0.454 OA
BRANCH  17  18
ATOM     18  C   UNL     1      32.737 -13.103 -21.528  0.00  0.00    +0.148 C 
ATOM     19  C   UNL     1      31.976 -12.750 -20.256  0.00  0.00    +0.045 C 
BRANCH  18  20
ATOM     20  C   UNL     1      32.222 -12.358 -22.762  0.00  0.00    -0.033 C 
BRANCH  20  21
ATOM     21  N   UNL     1      33.079 -11.237 -23.123  0.00  0.00    +0.389 N 
ATOM     22  H   UNL     1      33.784 -11.130 -22.394  0.00  0.00    -0.080 HD
BRANCH  21  23
ATOM     23  C   UNL     1      32.302  -9.998 -23.205  0.00  0.00    -0.077 C 
ATOM     24  C   UNL     1      32.083  -9.395 -21.828  0.00  0.00    -0.025 C 
ENDBRANCH  21  23
BRANCH  21  25
ATOM     25  C   UNL     1      33.758 -11.494 -24.394  0.00  0.00    -0.077 C 
ATOM     26  C   UNL     1      34.738 -10.381 -24.729  0.00  0.00    -0.025 C 
ENDBRANCH  21  25
ENDBRANCH  20  21
ENDBRANCH  18  20
ENDBRANCH  17  18
ENDBRANCH  16  17
ENDBRANCH   2  16
TORSDOF 9
ENDMDL
MODEL 3
REMARK VINA RESULT:      -8.6      2.361      7.228
REMARK  Name = 24892842
REMARK  9 active torsions:
REMARK  status: ('A' for Active; 'I' for Inactive)
REMARK    1  A    between atoms: C_1  and  C_7
REMARK    2  A    between atoms: C_1  and  O_13
REMARK    3  A    between atoms: C_2  and  C_16
REMARK    4  A    between atoms: C_16  and  O_17
REMARK    5  A    between atoms: O_17  and  C_18
REMARK    6  A    between atoms: C_18  and  C_20
REMARK    7  A    between atoms: C_20  and  N_21
REMARK    8  A    between atoms: N_21  and  C_23
REMARK    9  A    between atoms: N_21  and  C_25
REMARK                            x       y       z     vdW  Elec       q    Type
REMARK                         _______ _______ _______ _____ _____    ______ ____
ROOT
ATOM      1  C   UNL     1      33.746 -14.003 -22.856  0.00  0.00    +0.098 C 
ATOM      2  C   UNL     1      33.514 -15.482 -22.473  0.00  0.00    +0.124 C 
ATOM      3  C   UNL     1      32.559 -13.147 -22.370  0.00  0.00    +0.027 C 
ATOM      4  C   UNL     1      33.254 -15.652 -20.971  0.00  0.00    +0.013 C 
ATOM      5  C   UNL     1      32.284 -13.325 -20.874  0.00  0.00    +0.002 C 
ATOM      6  C   UNL     1      32.084 -14.792 -20.508  0.00  0.00    +0.001 C 
ENDROOT
BRANCH   1   7
ATOM      7  C   UNL     1      33.923 -13.818 -24.361  0.00  0.00    +0.025 C 
ATOM      8  C   UNL     1      32.946 -14.712 -25.136  0.00  0.00    +0.002 C 
ATOM      9  C   UNL     1      33.744 -12.344 -24.751  0.00  0.00    +0.002 C 
ATOM     10  C   UNL     1      33.068 -14.505 -26.644  0.00  0.00    +0.000 C 
ATOM     11  C   UNL     1      33.864 -12.142 -26.260  0.00  0.00    +0.000 C 
ATOM     12  C   UNL     1      32.898 -13.038 -27.027  0.00  0.00    +0.000 C 
ENDBRANCH   1   7
BRANCH   1  13
ATOM     13  O   UNL     1      34.918 -13.502 -22.203  0.00  0.00    -0.386 OA
ATOM     14  H   UNL     1      35.226 -12.705 -22.660  0.00  0.00    +0.210 HD
ENDBRANCH   1  13
BRANCH   2  16
ATOM     15  O   UNL     1      35.678 -15.941 -23.431  0.00  0.00    -0.250 OA
ATOM     16  C   UNL     1      34.676 -16.351 -22.860  0.00  0.00    +0.319 C 
BRANCH  16  17
ATOM     17  O   UNL     1      34.432 -17.637 -22.479  0.00  0.00    -0.454 OA
BRANCH  17  18
ATOM     18  C   UNL     1      35.153 -18.640 -23.201  0.00  0.00    +0.148 C 
ATOM     19  C   UNL     1      34.477 -18.808 -24.556  0.00  0.00    +0.045 C 
BRANCH  18  20
ATOM     20  C   UNL     1      35.166 -19.927 -22.373  0.00  0.00    -0.033 C 
BRANCH  20  21
ATOM     21  N   UNL     1      35.163 -19.658 -20.941  0.00  0.00    +0.389 N 
ATOM     22  H   UNL     1      34.944 -18.671 -20.805  0.00  0.00    -0.080 HD
BRANCH  21  23
ATOM     23  C   UNL     1      36.482 -19.927 -20.362  0.00  0.00    -0.077 C 
ATOM     24  C   UNL     1      36.490 -21.243 -19.603  0.00  0.00    -0.025 C 
ENDBRANCH  21  23
BRANCH  21  25
ATOM     25  C   UNL     1      34.141 -20.460 -20.267  0.00  0.00    -0.077 C 
ATOM     26  C   UNL     1      32.745 -19.947 -20.580  0.00  0.00    -0.025 C 
ENDBRANCH  21  25
ENDBRANCH  20  21
ENDBRANCH  18  20
ENDBRANCH  17  18
ENDBRANCH  16  17
ENDBRANCH   2  16
TORSDOF 9
ENDMDL
MODEL 4
REMARK VINA RESULT:      -8.6      4.255      8.782
REMARK  Name = 24892842
REMARK  9 active torsions:
REMARK  status: ('A' for Active; 'I' for Inactive)
REMARK    1  A    between atoms: C_1  and  C_7
REMARK    2  A    between atoms: C_1  and  O_13
REMARK    3  A    between atoms: C_2  and  C_16
REMARK    4  A    between atoms: C_16  and  O_17
REMARK    5  A    between atoms: O_17  and  C_18
REMARK    6  A    between atoms: C_18  and  C_20
REMARK    7  A    between atoms: C_20  and  N_21
REMARK    8  A    between atoms: N_21  and  C_23
REMARK    9  A    between atoms: N_21  and  C_25
REMARK                            x       y       z     vdW  Elec       q    Type
REMARK                         _______ _______ _______ _____ _____    ______ ____
ROOT
ATOM      1  C   UNL     1      32.144  -8.495 -22.752  0.00  0.00    +0.098 C 
ATOM      2  C   UNL     1      33.536  -8.111 -23.302  0.00  0.00    +0.124 C 
ATOM      3  C   UNL     1      31.400  -7.227 -22.286  0.00  0.00    +0.027 C 
ATOM      4  C   UNL     1      33.444  -7.054 -24.409  0.00  0.00    +0.013 C 
ATOM      5  C   UNL     1      31.320  -6.161 -23.382  0.00  0.00    +0.002 C 
ATOM      6  C   UNL     1      32.698  -5.812 -23.933  0.00  0.00    +0.001 C 
ENDROOT
BRANCH   1   7
ATOM      7  C   UNL     1      32.235  -9.485 -21.593  0.00  0.00    +0.025 C 
ATOM      8  C   UNL     1      32.205  -8.750 -20.246  0.00  0.00    +0.002 C 
ATOM      9  C   UNL     1      31.106 -10.521 -21.676  0.00  0.00    +0.002 C 
ATOM     10  C   UNL     1      32.242  -9.724 -19.072  0.00  0.00    +0.000 C 
ATOM     11  C   UNL     1      31.144 -11.492 -20.497  0.00  0.00    +0.000 C 
ATOM     12  C   UNL     1      31.123 -10.757 -19.162  0.00  0.00    +0.000 C 
ENDBRANCH   1   7
BRANCH   1  13
ATOM     13  O   UNL     1      31.351  -9.089 -23.785  0.00  0.00    -0.386 OA
ATOM     14  H   UNL     1      31.628  -8.739 -24.646  0.00  0.00    +0.210 HD
ENDBRANCH   1  13
BRANCH   2  16
ATOM     15  O   UNL     1      35.492  -9.350 -23.974  0.00  0.00    -0.250 OA
ATOM     16  C   UNL     1      34.276  -9.303 -23.837  0.00  0.00    +0.319 C 
BRANCH  16  17
ATOM     17  O   UNL     1      33.390 -10.295 -24.136  0.00  0.00    -0.454 OA
BRANCH  17  18
ATOM     18  C   UNL     1      33.971 -11.563 -24.457  0.00  0.00    +0.148 C 
ATOM     19  C   UNL     1      33.825 -11.770 -25.959  0.00  0.00    +0.045 C 
BRANCH  18  20
ATOM     20  C   UNL     1      33.271 -12.645 -23.631  0.00  0.00    -0.033 C 
BRANCH  20  21
ATOM     21  N   UNL     1      34.050 -13.874 -23.566  0.00  0.00    +0.389 N 
ATOM     22  H   UNL     1      34.985 -13.677 -23.925  0.00  0.00    -0.080 HD
BRANCH  21  23
ATOM     23  C   UNL     1      33.443 -14.916 -24.398  0.00  0.00    -0.077 C 
ATOM     24  C   UNL     1      34.376 -16.103 -24.559  0.00  0.00    -0.025 C 
ENDBRANCH  21  23
BRANCH  21  25
ATOM     25  C   UNL     1      34.171 -14.338 -22.183  0.00  0.00    -0.077 C 
ATOM     26  C   UNL     1      32.804 -14.555 -21.554  0.00  0.00    -0.025 C 
ENDBRANCH  21  25
ENDBRANCH  20  21
ENDBRANCH  18  20
ENDBRANCH  17  18
ENDBRANCH  16  17
ENDBRANCH   2  16
TORSDOF 9
ENDMDL
MODEL 5
REMARK VINA RESULT:      -8.1      2.355      7.339
REMARK  Name = 24892842
REMARK  9 active torsions:
REMARK  status: ('A' for Active; 'I' for Inactive)
REMARK    1  A    between atoms: C_1  and  C_7
REMARK    2  A    between atoms: C_1  and  O_13
REMARK    3  A    between atoms: C_2  and  C_16
REMARK    4  A    between atoms: C_16  and  O_17
REMARK    5  A    between atoms: O_17  and  C_18
REMARK    6  A    between atoms: C_18  and  C_20
REMARK    7  A    between atoms: C_20  and  N_21
REMARK    8  A    between atoms: N_21  and  C_23
REMARK    9  A    between atoms: N_21  and  C_25
REMARK                            x       y       z     vdW  Elec       q    Type
REMARK                         _______ _______ _______ _____ _____    ______ ____
ROOT
ATOM      1  C   UNL     1      33.246 -12.904 -24.488  0.00  0.00    +0.098 C 
ATOM      2  C   UNL     1      34.074 -14.127 -24.030  0.00  0.00    +0.124 C 
ATOM      3  C   UNL     1      33.205 -12.852 -26.028  0.00  0.00    +0.027 C 
ATOM      4  C   UNL     1      33.554 -15.434 -24.640  0.00  0.00    +0.013 C 
ATOM      5  C   UNL     1      32.701 -14.160 -26.644  0.00  0.00    +0.002 C 
ATOM      6  C   UNL     1      33.510 -15.359 -26.162  0.00  0.00    +0.001 C 
ENDROOT
BRANCH   1   7
ATOM      7  C   UNL     1      33.810 -11.592 -23.949  0.00  0.00    +0.025 C 
ATOM      8  C   UNL     1      34.630 -10.870 -25.027  0.00  0.00    +0.002 C 
ATOM      9  C   UNL     1      32.682 -10.691 -23.426  0.00  0.00    +0.002 C 
ATOM     10  C   UNL     1      35.161  -9.529 -24.527  0.00  0.00    +0.000 C 
ATOM     11  C   UNL     1      33.216  -9.350 -22.930  0.00  0.00    +0.000 C 
ATOM     12  C   UNL     1      34.038  -8.640 -24.000  0.00  0.00    +0.000 C 
ENDBRANCH   1   7
BRANCH   1  13
ATOM     13  O   UNL     1      31.893 -13.027 -24.037  0.00  0.00    -0.386 OA
ATOM     14  H   UNL     1      31.564 -13.916 -24.240  0.00  0.00    +0.210 HD
ENDBRANCH   1  13
BRANCH   2  16
ATOM     15  O   UNL     1      33.378 -13.615 -21.779  0.00  0.00    -0.250 OA
ATOM     16  C   UNL     1      34.086 -14.267 -22.535  0.00  0.00    +0.319 C 
BRANCH  16  17
ATOM     17  O   UNL     1      34.996 -15.217 -22.173  0.00  0.00    -0.454 OA
BRANCH  17  18
ATOM     18  C   UNL     1      34.511 -16.222 -21.277  0.00  0.00    +0.148 C 
ATOM     19  C   UNL     1      34.612 -15.665 -19.862  0.00  0.00    +0.045 C 
BRANCH  18  20
ATOM     20  C   UNL     1      35.332 -17.497 -21.480  0.00  0.00    -0.033 C 
BRANCH  20  21
ATOM     21  N   UNL     1      34.666 -18.443 -22.366  0.00  0.00    +0.389 N 
ATOM     22  H   UNL     1      33.732 -18.085 -22.567  0.00  0.00    -0.080 HD
BRANCH  21  23
ATOM     23  C   UNL     1      34.534 -19.752 -21.720  0.00  0.00    -0.077 C 
ATOM     24  C   UNL     1      33.389 -19.758 -20.723  0.00  0.00    -0.025 C 
ENDBRANCH  21  23
BRANCH  21  25
ATOM     25  C   UNL     1      35.397 -18.573 -23.628  0.00  0.00    -0.077 C 
ATOM     26  C   UNL     1      34.476 -19.012 -24.754  0.00  0.00    -0.025 C 
ENDBRANCH  21  25
ENDBRANCH  20  21
ENDBRANCH  18  20
ENDBRANCH  17  18
ENDBRANCH  16  17
ENDBRANCH   2  16
TORSDOF 9
ENDMDL
MODEL 6
REMARK VINA RESULT:      -8.0      4.337     10.238
REMARK  Name = 24892842
REMARK  9 active torsions:
REMARK  status: ('A' for Active; 'I' for Inactive)
REMARK    1  A    between atoms: C_1  and  C_7
REMARK    2  A    between atoms: C_1  and  O_13
REMARK    3  A    between atoms: C_2  and  C_16
REMARK    4  A    between atoms: C_16  and  O_17
REMARK    5  A    between atoms: O_17  and  C_18
REMARK    6  A    between atoms: C_18  and  C_20
REMARK    7  A    between atoms: C_20  and  N_21
REMARK    8  A    between atoms: N_21  and  C_23
REMARK    9  A    between atoms: N_21  and  C_25
REMARK                            x       y       z     vdW  Elec       q    Type
REMARK                         _______ _______ _______ _____ _____    ______ ____
ROOT
ATOM      1  C   UNL     1      33.282  -7.516 -22.914  0.00  0.00    +0.098 C 
ATOM      2  C   UNL     1      32.832  -8.994 -22.869  0.00  0.00    +0.124 C 
ATOM      3  C   UNL     1      32.374  -6.667 -22.003  0.00  0.00    +0.027 C 
ATOM      4  C   UNL     1      32.781  -9.535 -21.435  0.00  0.00    +0.013 C 
ATOM      5  C   UNL     1      32.306  -7.212 -20.573  0.00  0.00    +0.002 C 
ATOM      6  C   UNL     1      31.886  -8.677 -20.547  0.00  0.00    +0.001 C 
ENDROOT
BRANCH   1   7
ATOM      7  C   UNL     1      33.255  -6.948 -24.331  0.00  0.00    +0.025 C 
ATOM      8  C   UNL     1      32.260  -5.783 -24.430  0.00  0.00    +0.002 C 
ATOM      9  C   UNL     1      34.659  -6.506 -24.765  0.00  0.00    +0.002 C 
ATOM     10  C   UNL     1      32.254  -5.165 -25.825  0.00  0.00    +0.000 C 
ATOM     11  C   UNL     1      34.649  -5.885 -26.159  0.00  0.00    +0.000 C 
ATOM     12  C   UNL     1      33.653  -4.734 -26.256  0.00  0.00    +0.000 C 
ENDBRANCH   1   7
BRANCH   1  13
ATOM     13  O   UNL     1      34.616  -7.391 -22.408  0.00  0.00    -0.386 OA
ATOM     14  H   UNL     1      34.788  -6.466 -22.175  0.00  0.00    +0.210 HD
ENDBRANCH   1  13
BRANCH   2  16
ATOM     15  O   UNL     1      34.916  -9.655 -23.884  0.00  0.00    -0.250 OA
ATOM     16  C   UNL     1      33.729  -9.879 -23.684  0.00  0.00    +0.319 C 
BRANCH  16  17
ATOM     17  O   UNL     1      33.018 -10.944 -24.153  0.00  0.00    -0.454 OA
BRANCH  17  18
ATOM     18  C   UNL     1      33.799 -12.061 -24.589  0.00  0.00    +0.148 C 
ATOM     19  C   UNL     1      33.740 -12.098 -26.111  0.00  0.00    +0.045 C 
BRANCH  18  20
ATOM     20  C   UNL     1      33.247 -13.330 -23.935  0.00  0.00    -0.033 C 
BRANCH  20  21
ATOM     21  N   UNL     1      34.214 -13.951 -23.040  0.00  0.00    +0.389 N 
ATOM     22  H   UNL     1      35.017 -13.327 -22.959  0.00  0.00    -0.080 HD
BRANCH  21  23
ATOM     23  C   UNL     1      34.671 -15.233 -23.581  0.00  0.00    -0.077 C 
ATOM     24  C   UNL     1      33.797 -15.683 -24.738  0.00  0.00    -0.025 C 
ENDBRANCH  21  23
BRANCH  21  25
ATOM     25  C   UNL     1      33.636 -14.141 -21.708  0.00  0.00    -0.077 C 
ATOM     26  C   UNL     1      32.301 -13.426 -21.580  0.00  0.00    -0.025 C 
ENDBRANCH  21  25
ENDBRANCH  20  21
ENDBRANCH  18  20
ENDBRANCH  17  18
ENDBRANCH  16  17
ENDBRANCH   2  16
TORSDOF 9
ENDMDL
MODEL 7
REMARK VINA RESULT:      -7.9      3.103      8.135
REMARK  Name = 24892842
REMARK  9 active torsions:
REMARK  status: ('A' for Active; 'I' for Inactive)
REMARK    1  A    between atoms: C_1  and  C_7
REMARK    2  A    between atoms: C_1  and  O_13
REMARK    3  A    between atoms: C_2  and  C_16
REMARK    4  A    between atoms: C_16  and  O_17
REMARK    5  A    between atoms: O_17  and  C_18
REMARK    6  A    between atoms: C_18  and  C_20
REMARK    7  A    between atoms: C_20  and  N_21
REMARK    8  A    between atoms: N_21  and  C_23
REMARK    9  A    between atoms: N_21  and  C_25
REMARK                            x       y       z     vdW  Elec       q    Type
REMARK                         _______ _______ _______ _____ _____    ______ ____
ROOT
ATOM      1  C   UNL     1      32.799  -9.344 -22.827  0.00  0.00    +0.098 C 
ATOM      2  C   UNL     1      34.062  -9.940 -23.489  0.00  0.00    +0.124 C 
ATOM      3  C   UNL     1      33.092  -7.909 -22.344  0.00  0.00    +0.027 C 
ATOM      4  C   UNL     1      34.595  -9.047 -24.616  0.00  0.00    +0.013 C 
ATOM      5  C   UNL     1      33.640  -7.017 -23.461  0.00  0.00    +0.002 C 
ATOM      6  C   UNL     1      34.869  -7.631 -24.122  0.00  0.00    +0.001 C 
ENDROOT
BRANCH   1   7
ATOM      7  C   UNL     1      32.312 -10.187 -21.651  0.00  0.00    +0.025 C 
ATOM      8  C   UNL     1      32.438  -9.407 -20.335  0.00  0.00    +0.002 C 
ATOM      9  C   UNL     1      30.866 -10.648 -21.877  0.00  0.00    +0.002 C 
ATOM     10  C   UNL     1      31.908 -10.212 -19.151  0.00  0.00    +0.000 C 
ATOM     11  C   UNL     1      30.338 -11.449 -20.689  0.00  0.00    +0.000 C 
ATOM     12  C   UNL     1      30.473 -10.675 -19.382  0.00  0.00    +0.000 C 
ENDBRANCH   1   7
BRANCH   1  13
ATOM     13  O   UNL     1      31.736  -9.255 -23.782  0.00  0.00    -0.386 OA
ATOM     14  H   UNL     1      30.891  -9.432 -23.343  0.00  0.00    +0.210 HD
ENDBRANCH   1  13
BRANCH   2  16
ATOM     15  O   UNL     1      33.496 -11.536 -25.205  0.00  0.00    -0.250 OA
ATOM     16  C   UNL     1      33.811 -11.313 -24.043  0.00  0.00    +0.319 C 
BRANCH  16  17
ATOM     17  O   UNL     1      33.986 -12.241 -23.060  0.00  0.00    -0.454 OA
BRANCH  17  18
ATOM     18  C   UNL     1      33.528 -13.561 -23.372  0.00  0.00    +0.148 C 
ATOM     19  C   UNL     1      32.203 -13.771 -22.651  0.00  0.00    +0.045 C 
BRANCH  18  20
ATOM     20  C   UNL     1      34.605 -14.565 -22.954  0.00  0.00    -0.033 C 
BRANCH  20  21
ATOM     21  N   UNL     1      34.227 -15.937 -23.267  0.00  0.00    +0.389 N 
ATOM     22  H   UNL     1      33.213 -16.011 -23.189  0.00  0.00    -0.080 HD
BRANCH  21  23
ATOM     23  C   UNL     1      34.837 -16.871 -22.317  0.00  0.00    -0.077 C 
ATOM     24  C   UNL     1      34.814 -16.310 -20.906  0.00  0.00    -0.025 C 
ENDBRANCH  21  23
BRANCH  21  25
ATOM     25  C   UNL     1      34.616 -16.281 -24.636  0.00  0.00    -0.077 C 
ATOM     26  C   UNL     1      34.453 -17.769 -24.896  0.00  0.00    -0.025 C 
ENDBRANCH  21  25
ENDBRANCH  20  21
ENDBRANCH  18  20
ENDBRANCH  17  18
ENDBRANCH  16  17
ENDBRANCH   2  16
TORSDOF 9
ENDMDL
MODEL 8
REMARK VINA RESULT:      -7.9      7.742     11.749
REMARK  Name = 24892842
REMARK  9 active torsions:
REMARK  status: ('A' for Active; 'I' for Inactive)
REMARK    1  A    between atoms: C_1  and  C_7
REMARK    2  A    between atoms: C_1  and  O_13
REMARK    3  A    between atoms: C_2  and  C_16
REMARK    4  A    between atoms: C_16  and  O_17
REMARK    5  A    between atoms: O_17  and  C_18
REMARK    6  A    between atoms: C_18  and  C_20
REMARK    7  A    between atoms: C_20  and  N_21
REMARK    8  A    between atoms: N_21  and  C_23
REMARK    9  A    between atoms: N_21  and  C_25
REMARK                            x       y       z     vdW  Elec       q    Type
REMARK                         _______ _______ _______ _____ _____    ______ ____
ROOT
ATOM      1  C   UNL     1      33.273 -23.344 -15.711  0.00  0.00    +0.098 C 
ATOM      2  C   UNL     1      33.501 -24.737 -15.080  0.00  0.00    +0.124 C 
ATOM      3  C   UNL     1      31.764 -23.108 -15.920  0.00  0.00    +0.027 C 
ATOM      4  C   UNL     1      32.701 -24.918 -13.785  0.00  0.00    +0.013 C 
ATOM      5  C   UNL     1      30.957 -23.304 -14.634  0.00  0.00    +0.002 C 
ATOM      6  C   UNL     1      31.213 -24.672 -14.010  0.00  0.00    +0.001 C 
ENDROOT
BRANCH   1   7
ATOM      7  C   UNL     1      34.002 -23.188 -17.043  0.00  0.00    +0.025 C 
ATOM      8  C   UNL     1      33.052 -22.652 -18.123  0.00  0.00    +0.002 C 
ATOM      9  C   UNL     1      35.225 -22.274 -16.888  0.00  0.00    +0.002 C 
ATOM     10  C   UNL     1      33.772 -22.438 -19.452  0.00  0.00    +0.000 C 
ATOM     11  C   UNL     1      35.941 -22.060 -18.220  0.00  0.00    +0.000 C 
ATOM     12  C   UNL     1      34.992 -21.536 -19.292  0.00  0.00    +0.000 C 
ENDBRANCH   1   7
BRANCH   1  13
ATOM     13  O   UNL     1      33.737 -22.319 -14.826  0.00  0.00    -0.386 OA
ATOM     14  H   UNL     1      34.501 -21.872 -15.221  0.00  0.00    +0.210 HD
ENDBRANCH   1  13
BRANCH   2  16
ATOM     15  O   UNL     1      35.654 -25.767 -15.420  0.00  0.00    -0.250 OA
ATOM     16  C   UNL     1      34.952 -24.989 -14.787  0.00  0.00    +0.319 C 
BRANCH  16  17
ATOM     17  O   UNL     1      35.343 -24.227 -13.726  0.00  0.00    -0.454 OA
BRANCH  17  18
ATOM     18  C   UNL     1      36.324 -24.823 -12.871  0.00  0.00    +0.148 C 
ATOM     19  C   UNL     1      35.928 -24.517 -11.432  0.00  0.00    +0.045 C 
BRANCH  18  20
ATOM     20  C   UNL     1      37.701 -24.269 -13.245  0.00  0.00    -0.033 C 
BRANCH  20  21
ATOM     21  N   UNL     1      38.413 -25.145 -14.165  0.00  0.00    +0.389 N 
ATOM     22  H   UNL     1      37.752 -25.835 -14.522  0.00  0.00    -0.080 HD
BRANCH  21  23
ATOM     23  C   UNL     1      39.495 -25.851 -13.474  0.00  0.00    -0.077 C 
ATOM     24  C   UNL     1      40.644 -26.156 -14.421  0.00  0.00    -0.025 C 
ENDBRANCH  21  23
BRANCH  21  25
ATOM     25  C   UNL     1      38.947 -24.383 -15.296  0.00  0.00    -0.077 C 
ATOM     26  C   UNL     1      38.088 -23.165 -15.592  0.00  0.00    -0.025 C 
ENDBRANCH  21  25
ENDBRANCH  20  21
ENDBRANCH  18  20
ENDBRANCH  17  18
ENDBRANCH  16  17
ENDBRANCH   2  16
TORSDOF 9
ENDMDL
MODEL 9
REMARK VINA RESULT:      -7.9      5.552      9.290
REMARK  Name = 24892842
REMARK  9 active torsions:
REMARK  status: ('A' for Active; 'I' for Inactive)
REMARK    1  A    between atoms: C_1  and  C_7
REMARK    2  A    between atoms: C_1  and  O_13
REMARK    3  A    between atoms: C_2  and  C_16
REMARK    4  A    between atoms: C_16  and  O_17
REMARK    5  A    between atoms: O_17  and  C_18
REMARK    6  A    between atoms: C_18  and  C_20
REMARK    7  A    between atoms: C_20  and  N_21
REMARK    8  A    between atoms: N_21  and  C_23
REMARK    9  A    between atoms: N_21  and  C_25
REMARK                            x       y       z     vdW  Elec       q    Type
REMARK                         _______ _______ _______ _____ _____    ______ ____
ROOT
ATOM      1  C   UNL     1      33.014 -23.687 -15.010  0.00  0.00    +0.098 C 
ATOM      2  C   UNL     1      34.147 -24.152 -15.953  0.00  0.00    +0.124 C 
ATOM      3  C   UNL     1      33.179 -24.353 -13.629  0.00  0.00    +0.027 C 
ATOM      4  C   UNL     1      35.535 -23.899 -15.350  0.00  0.00    +0.013 C 
ATOM      5  C   UNL     1      34.568 -24.118 -13.030  0.00  0.00    +0.002 C 
ATOM      6  C   UNL     1      35.676 -24.557 -13.982  0.00  0.00    +0.001 C 
ENDROOT
BRANCH   1   7
ATOM      7  C   UNL     1      31.630 -24.012 -15.569  0.00  0.00    +0.025 C 
ATOM      8  C   UNL     1      30.822 -24.847 -14.566  0.00  0.00    +0.002 C 
ATOM      9  C   UNL     1      30.880 -22.725 -15.939  0.00  0.00    +0.002 C 
ATOM     10  C   UNL     1      29.415 -25.139 -15.081  0.00  0.00    +0.000 C 
ATOM     11  C   UNL     1      29.472 -23.021 -16.450  0.00  0.00    +0.000 C 
ATOM     12  C   UNL     1      28.675 -23.858 -15.456  0.00  0.00    +0.000 C 
ENDBRANCH   1   7
BRANCH   1  13
ATOM     13  O   UNL     1      33.091 -22.273 -14.804  0.00  0.00    -0.386 OA
ATOM     14  H   UNL     1      33.993 -21.968 -14.991  0.00  0.00    +0.210 HD
ENDBRANCH   1  13
BRANCH   2  16
ATOM     15  O   UNL     1      33.464 -23.924 -18.253  0.00  0.00    -0.250 OA
ATOM     16  C   UNL     1      34.075 -23.476 -17.292  0.00  0.00    +0.319 C 
BRANCH  16  17
ATOM     17  O   UNL     1      34.787 -22.314 -17.256  0.00  0.00    -0.454 OA
BRANCH  17  18
ATOM     18  C   UNL     1      35.945 -22.276 -18.097  0.00  0.00    +0.148 C 
ATOM     19  C   UNL     1      36.893 -21.227 -17.529  0.00  0.00    +0.045 C 
BRANCH  18  20
ATOM     20  C   UNL     1      35.500 -21.971 -19.529  0.00  0.00    -0.033 C 
BRANCH  20  21
ATOM     21  N   UNL     1      34.816 -20.688 -19.629  0.00  0.00    +0.389 N 
ATOM     22  H   UNL     1      34.995 -20.166 -18.772  0.00  0.00    -0.080 HD
BRANCH  21  23
ATOM     23  C   UNL     1      33.370 -20.883 -19.764  0.00  0.00    -0.077 C 
ATOM     24  C   UNL     1      32.747 -19.792 -20.618  0.00  0.00    -0.025 C 
ENDBRANCH  21  23
BRANCH  21  25
ATOM     25  C   UNL     1      35.330 -19.915 -20.761  0.00  0.00    -0.077 C 
ATOM     26  C   UNL     1      36.814 -19.630 -20.604  0.00  0.00    -0.025 C 
ENDBRANCH  21  25
ENDBRANCH  20  21
ENDBRANCH  18  20
ENDBRANCH  17  18
ENDBRANCH  16  17
ENDBRANCH   2  16
TORSDOF 9
ENDMDL
