MODEL 1
REMARK VINA RESULT:      -9.8      0.000      0.000
REMARK  Name = 9978336
REMARK  13 active torsions:
REMARK  status: ('A' for Active; 'I' for Inactive)
REMARK    1  A    between atoms: C_2  and  C_9
REMARK    2  A    between atoms: C_3  and  C_22
REMARK    3  A    between atoms: C_4  and  O_7
REMARK    4  A    between atoms: C_10  and  C_11
REMARK    5  A    between atoms: C_11  and  O_12
REMARK    6  A    between atoms: C_11  and  C_14
REMARK    7  A    between atoms: C_14  and  O_15
REMARK    8  A    between atoms: O_15  and  C_16
REMARK    9  A    between atoms: C_22  and  C_23
REMARK   10  A    between atoms: C_25  and  C_26
REMARK   11  A    between atoms: C_26  and  C_27
REMARK   12  A    between atoms: C_27  and  C_29
REMARK   13  A    between atoms: C_29  and  O_30
REMARK                            x       y       z     vdW  Elec       q    Type
REMARK                         _______ _______ _______ _____ _____    ______ ____
ROOT
ATOM      1  O   UNL     1      31.281 -12.320 -22.131  0.00  0.00    -0.296 OA
ATOM      2  C   UNL     1      34.150 -14.272 -22.802  0.00  0.00    +0.056 C 
ATOM      3  C   UNL     1      32.827 -13.727 -23.364  0.00  0.00    +0.069 C 
ATOM      4  C   UNL     1      33.790 -14.718 -21.379  0.00  0.00    +0.122 C 
ATOM      5  C   UNL     1      32.854 -13.629 -20.860  0.00  0.00    +0.094 C 
ATOM      6  C   UNL     1      32.208 -13.121 -22.123  0.00  0.00    +0.153 C 
ENDROOT
BRANCH   4   7
ATOM      7  O   UNL     1      34.945 -14.781 -20.557  0.00  0.00    -0.384 OA
ATOM      8  H   UNL     1      35.238 -13.882 -20.343  0.00  0.00    +0.210 HD
ENDBRANCH   4   7
BRANCH   2   9
ATOM      9  C   UNL     1      34.719 -15.384 -23.624  0.00  0.00    -0.026 C 
ATOM     10  C   UNL     1      34.456 -16.682 -23.409  0.00  0.00    +0.002 C 
BRANCH  10  11
ATOM     11  C   UNL     1      35.031 -17.798 -24.236  0.00  0.00    +0.176 C 
BRANCH  11  12
ATOM     12  O   UNL     1      34.251 -17.899 -25.425  0.00  0.00    -0.376 OA
ATOM     13  H   UNL     1      33.408 -17.436 -25.299  0.00  0.00    +0.211 HD
ENDBRANCH  11  12
BRANCH  11  14
ATOM     14  C   UNL     1      34.983 -19.130 -23.494  0.00  0.00    +0.239 C 
BRANCH  14  15
ATOM     15  O   UNL     1      35.391 -18.948 -22.145  0.00  0.00    -0.472 OA
BRANCH  15  16
ATOM     16  C   UNL     1      34.832 -19.781 -21.211  0.00  0.00    +0.139 C 
ATOM     17  C   UNL     1      35.648 -20.625 -20.467  0.00  0.00    +0.037 C 
ATOM     18  C   UNL     1      33.456 -19.774 -21.018  0.00  0.00    +0.037 C 
ATOM     19  C   UNL     1      35.080 -21.473 -19.516  0.00  0.00    +0.003 C 
ATOM     20  C   UNL     1      32.887 -20.621 -20.067  0.00  0.00    +0.003 C 
ATOM     21  C   UNL     1      33.699 -21.472 -19.317  0.00  0.00    +0.000 C 
ENDBRANCH  15  16
ENDBRANCH  14  15
ENDBRANCH  11  14
ENDBRANCH  10  11
ENDBRANCH   2   9
BRANCH   3  22
ATOM     22  C   UNL     1      33.019 -12.711 -24.476  0.00  0.00    +0.042 C 
BRANCH  22  23
ATOM     23  C   UNL     1      34.014 -11.657 -24.092  0.00  0.00    +0.015 C 
ATOM     24  C   UNL     1      33.704 -10.454 -23.708  0.00  0.00    -0.110 C 
ATOM     25  C   UNL     1      33.416  -9.245 -23.321  0.00  0.00    +0.015 C 
BRANCH  25  26
ATOM     26  C   UNL     1      32.022  -8.700 -23.193  0.00  0.00    +0.046 C 
BRANCH  26  27
ATOM     27  C   UNL     1      31.896  -7.686 -22.059  0.00  0.00    +0.115 C 
BRANCH  27  29
ATOM     28  O   UNL     1      32.940  -7.716 -19.880  0.00  0.00    -0.250 OA
ATOM     29  C   UNL     1      32.241  -8.280 -20.714  0.00  0.00    +0.317 C 
BRANCH  29  30
ATOM     30  O   UNL     1      31.666  -9.510 -20.583  0.00  0.00    -0.444 OA
ATOM     31  C   UNL     1      31.642 -10.041 -19.256  0.00  0.00    +0.256 C 
ENDBRANCH  29  30
ENDBRANCH  27  29
ENDBRANCH  26  27
ENDBRANCH  25  26
ENDBRANCH  22  23
ENDBRANCH   3  22
TORSDOF 13
ENDMDL
MODEL 2
REMARK VINA RESULT:      -9.8      1.832      3.334
REMARK  Name = 9978336
REMARK  13 active torsions:
REMARK  status: ('A' for Active; 'I' for Inactive)
REMARK    1  A    between atoms: C_2  and  C_9
REMARK    2  A    between atoms: C_3  and  C_22
REMARK    3  A    between atoms: C_4  and  O_7
REMARK    4  A    between atoms: C_10  and  C_11
REMARK    5  A    between atoms: C_11  and  O_12
REMARK    6  A    between atoms: C_11  and  C_14
REMARK    7  A    between atoms: C_14  and  O_15
REMARK    8  A    between atoms: O_15  and  C_16
REMARK    9  A    between atoms: C_22  and  C_23
REMARK   10  A    between atoms: C_25  and  C_26
REMARK   11  A    between atoms: C_26  and  C_27
REMARK   12  A    between atoms: C_27  and  C_29
REMARK   13  A    between atoms: C_29  and  O_30
REMARK                            x       y       z     vdW  Elec       q    Type
REMARK                         _______ _______ _______ _____ _____    ______ ____
ROOT
ATOM      1  O   UNL     1      32.857  -9.868 -23.579  0.00  0.00    -0.296 OA
ATOM      2  C   UNL     1      32.586 -13.371 -23.201  0.00  0.00    +0.056 C 
ATOM      3  C   UNL     1      32.622 -12.017 -22.475  0.00  0.00    +0.069 C 
ATOM      4  C   UNL     1      33.692 -13.252 -24.259  0.00  0.00    +0.122 C 
ATOM      5  C   UNL     1      33.562 -11.826 -24.791  0.00  0.00    +0.094 C 
ATOM      6  C   UNL     1      32.991 -11.085 -23.610  0.00  0.00    +0.153 C 
ENDROOT
BRANCH   4   7
ATOM      7  O   UNL     1      33.485 -14.173 -25.318  0.00  0.00    -0.384 OA
ATOM      8  H   UNL     1      33.252 -15.040 -24.951  0.00  0.00    +0.210 HD
ENDBRANCH   4   7
BRANCH   2   9
ATOM      9  C   UNL     1      32.797 -14.532 -22.282  0.00  0.00    -0.026 C 
ATOM     10  C   UNL     1      34.005 -14.975 -21.904  0.00  0.00    +0.002 C 
BRANCH  10  11
ATOM     11  C   UNL     1      34.214 -16.143 -20.980  0.00  0.00    +0.176 C 
BRANCH  11  12
ATOM     12  O   UNL     1      34.996 -15.687 -19.880  0.00  0.00    -0.376 OA
ATOM     13  H   UNL     1      34.774 -16.204 -19.090  0.00  0.00    +0.211 HD
ENDBRANCH  11  12
BRANCH  11  14
ATOM     14  C   UNL     1      34.950 -17.285 -21.676  0.00  0.00    +0.239 C 
BRANCH  14  15
ATOM     15  O   UNL     1      34.073 -18.388 -21.855  0.00  0.00    -0.472 OA
BRANCH  15  16
ATOM     16  C   UNL     1      34.272 -19.476 -21.046  0.00  0.00    +0.139 C 
ATOM     17  C   UNL     1      33.178 -20.128 -20.488  0.00  0.00    +0.037 C 
ATOM     18  C   UNL     1      35.565 -19.915 -20.789  0.00  0.00    +0.037 C 
ATOM     19  C   UNL     1      33.379 -21.235 -19.664  0.00  0.00    +0.003 C 
ATOM     20  C   UNL     1      35.767 -21.022 -19.965  0.00  0.00    +0.003 C 
ATOM     21  C   UNL     1      34.675 -21.681 -19.402  0.00  0.00    +0.000 C 
ENDBRANCH  15  16
ENDBRANCH  14  15
ENDBRANCH  11  14
ENDBRANCH  10  11
ENDBRANCH   2   9
BRANCH   3  22
ATOM     22  C   UNL     1      31.300 -11.648 -21.825  0.00  0.00    +0.042 C 
BRANCH  22  23
ATOM     23  C   UNL     1      31.503 -11.054 -20.464  0.00  0.00    +0.015 C 
ATOM     24  C   UNL     1      31.879  -9.828 -20.243  0.00  0.00    -0.110 C 
ATOM     25  C   UNL     1      32.253  -8.606 -19.998  0.00  0.00    +0.015 C 
BRANCH  25  26
ATOM     26  C   UNL     1      32.546  -7.577 -21.053  0.00  0.00    +0.046 C 
BRANCH  26  27
ATOM     27  C   UNL     1      31.683  -6.328 -20.901  0.00  0.00    +0.115 C 
BRANCH  27  29
ATOM     28  O   UNL     1      30.401  -4.903 -22.371  0.00  0.00    -0.250 OA
ATOM     29  C   UNL     1      30.933  -5.987 -22.166  0.00  0.00    +0.317 C 
BRANCH  29  30
ATOM     30  O   UNL     1      30.941  -7.054 -23.017  0.00  0.00    -0.444 OA
ATOM     31  C   UNL     1      31.182  -6.743 -24.392  0.00  0.00    +0.256 C 
ENDBRANCH  29  30
ENDBRANCH  27  29
ENDBRANCH  26  27
ENDBRANCH  25  26
ENDBRANCH  22  23
ENDBRANCH   3  22
TORSDOF 13
ENDMDL
MODEL 3
REMARK VINA RESULT:      -9.7      1.756      2.843
REMARK  Name = 9978336
REMARK  13 active torsions:
REMARK  status: ('A' for Active; 'I' for Inactive)
REMARK    1  A    between atoms: C_2  and  C_9
REMARK    2  A    between atoms: C_3  and  C_22
REMARK    3  A    between atoms: C_4  and  O_7
REMARK    4  A    between atoms: C_10  and  C_11
REMARK    5  A    between atoms: C_11  and  O_12
REMARK    6  A    between atoms: C_11  and  C_14
REMARK    7  A    between atoms: C_14  and  O_15
REMARK    8  A    between atoms: O_15  and  C_16
REMARK    9  A    between atoms: C_22  and  C_23
REMARK   10  A    between atoms: C_25  and  C_26
REMARK   11  A    between atoms: C_26  and  C_27
REMARK   12  A    between atoms: C_27  and  C_29
REMARK   13  A    between atoms: C_29  and  O_30
REMARK                            x       y       z     vdW  Elec       q    Type
REMARK                         _______ _______ _______ _____ _____    ______ ____
ROOT
ATOM      1  O   UNL     1      33.882 -11.420 -25.797  0.00  0.00    -0.296 OA
ATOM      2  C   UNL     1      33.284 -14.734 -24.724  0.00  0.00    +0.056 C 
ATOM      3  C   UNL     1      34.087 -13.447 -24.477  0.00  0.00    +0.069 C 
ATOM      4  C   UNL     1      33.306 -14.895 -26.250  0.00  0.00    +0.122 C 
ATOM      5  C   UNL     1      33.118 -13.478 -26.788  0.00  0.00    +0.094 C 
ATOM      6  C   UNL     1      33.713 -12.629 -25.695  0.00  0.00    +0.153 C 
ENDROOT
BRANCH   4   7
ATOM      7  O   UNL     1      32.236 -15.715 -26.691  0.00  0.00    -0.384 OA
ATOM      8  H   UNL     1      32.592 -16.522 -27.094  0.00  0.00    +0.210 HD
ENDBRANCH   4   7
BRANCH   2   9
ATOM      9  C   UNL     1      33.854 -15.922 -24.015  0.00  0.00    -0.026 C 
ATOM     10  C   UNL     1      34.742 -16.763 -24.563  0.00  0.00    +0.002 C 
BRANCH  10  11
ATOM     11  C   UNL     1      35.312 -17.957 -23.849  0.00  0.00    +0.176 C 
BRANCH  11  12
ATOM     12  O   UNL     1      34.596 -19.106 -24.292  0.00  0.00    -0.376 OA
ATOM     13  H   UNL     1      34.772 -19.254 -25.234  0.00  0.00    +0.211 HD
ENDBRANCH  11  12
BRANCH  11  14
ATOM     14  C   UNL     1      35.165 -17.830 -22.335  0.00  0.00    +0.239 C 
BRANCH  14  15
ATOM     15  O   UNL     1      35.889 -18.868 -21.690  0.00  0.00    -0.472 OA
BRANCH  15  16
ATOM     16  C   UNL     1      35.165 -19.749 -20.929  0.00  0.00    +0.139 C 
ATOM     17  C   UNL     1      35.825 -20.727 -20.195  0.00  0.00    +0.037 C 
ATOM     18  C   UNL     1      33.779 -19.656 -20.902  0.00  0.00    +0.037 C 
ATOM     19  C   UNL     1      35.089 -21.625 -19.422  0.00  0.00    +0.003 C 
ATOM     20  C   UNL     1      33.042 -20.553 -20.128  0.00  0.00    +0.003 C 
ATOM     21  C   UNL     1      33.697 -21.537 -19.389  0.00  0.00    +0.000 C 
ENDBRANCH  15  16
ENDBRANCH  14  15
ENDBRANCH  11  14
ENDBRANCH  10  11
ENDBRANCH   2   9
BRANCH   3  22
ATOM     22  C   UNL     1      33.724 -12.753 -23.175  0.00  0.00    +0.042 C 
BRANCH  22  23
ATOM     23  C   UNL     1      32.276 -12.937 -22.839  0.00  0.00    +0.015 C 
ATOM     24  C   UNL     1      31.612 -12.195 -22.002  0.00  0.00    -0.110 C 
ATOM     25  C   UNL     1      30.929 -11.464 -21.169  0.00  0.00    +0.015 C 
BRANCH  25  26
ATOM     26  C   UNL     1      31.487 -10.301 -20.399  0.00  0.00    +0.046 C 
BRANCH  26  27
ATOM     27  C   UNL     1      32.154  -9.272 -21.305  0.00  0.00    +0.115 C 
BRANCH  27  29
ATOM     28  O   UNL     1      32.575  -7.687 -19.531  0.00  0.00    -0.250 OA
ATOM     29  C   UNL     1      32.205  -7.898 -20.679  0.00  0.00    +0.317 C 
BRANCH  29  30
ATOM     30  O   UNL     1      31.782  -6.960 -21.574  0.00  0.00    -0.444 OA
ATOM     31  C   UNL     1      31.343  -7.467 -22.838  0.00  0.00    +0.256 C 
ENDBRANCH  29  30
ENDBRANCH  27  29
ENDBRANCH  26  27
ENDBRANCH  25  26
ENDBRANCH  22  23
ENDBRANCH   3  22
TORSDOF 13
ENDMDL
MODEL 4
REMARK VINA RESULT:      -9.4      7.821     13.140
REMARK  Name = 9978336
REMARK  13 active torsions:
REMARK  status: ('A' for Active; 'I' for Inactive)
REMARK    1  A    between atoms: C_2  and  C_9
REMARK    2  A    between atoms: C_3  and  C_22
REMARK    3  A    between atoms: C_4  and  O_7
REMARK    4  A    between atoms: C_10  and  C_11
REMARK    5  A    between atoms: C_11  and  O_12
REMARK    6  A    between atoms: C_11  and  C_14
REMARK    7  A    between atoms: C_14  and  O_15
REMARK    8  A    between atoms: O_15  and  C_16
REMARK    9  A    between atoms: C_22  and  C_23
REMARK   10  A    between atoms: C_25  and  C_26
REMARK   11  A    between atoms: C_26  and  C_27
REMARK   12  A    between atoms: C_27  and  C_29
REMARK   13  A    between atoms: C_29  and  O_30
REMARK                            x       y       z     vdW  Elec       q    Type
REMARK                         _______ _______ _______ _____ _____    ______ ____
ROOT
ATOM      1  O   UNL     1      31.489 -23.212 -12.744  0.00  0.00    -0.296 OA
ATOM      2  C   UNL     1      33.379 -23.800 -15.673  0.00  0.00    +0.056 C 
ATOM      3  C   UNL     1      33.435 -23.482 -14.170  0.00  0.00    +0.069 C 
ATOM      4  C   UNL     1      32.254 -22.897 -16.197  0.00  0.00    +0.122 C 
ATOM      5  C   UNL     1      31.175 -22.961 -15.119  0.00  0.00    +0.094 C 
ATOM      6  C   UNL     1      31.974 -23.223 -13.869  0.00  0.00    +0.153 C 
ENDROOT
BRANCH   4   7
ATOM      7  O   UNL     1      31.731 -23.394 -17.420  0.00  0.00    -0.384 OA
ATOM      8  H   UNL     1      32.422 -23.887 -17.889  0.00  0.00    +0.210 HD
ENDBRANCH   4   7
BRANCH   2   9
ATOM      9  C   UNL     1      34.680 -23.557 -16.369  0.00  0.00    -0.026 C 
ATOM     10  C   UNL     1      35.643 -22.754 -15.893  0.00  0.00    +0.002 C 
BRANCH  10  11
ATOM     11  C   UNL     1      36.949 -22.511 -16.596  0.00  0.00    +0.176 C 
BRANCH  11  12
ATOM     12  O   UNL     1      37.889 -22.069 -15.620  0.00  0.00    -0.376 OA
ATOM     13  H   UNL     1      37.492 -21.363 -15.086  0.00  0.00    +0.211 HD
ENDBRANCH  11  12
BRANCH  11  14
ATOM     14  C   UNL     1      36.815 -21.443 -17.678  0.00  0.00    +0.239 C 
BRANCH  14  15
ATOM     15  O   UNL     1      36.297 -22.021 -18.868  0.00  0.00    -0.472 OA
BRANCH  15  16
ATOM     16  C   UNL     1      35.339 -21.306 -19.538  0.00  0.00    +0.139 C 
ATOM     17  C   UNL     1      35.723 -20.353 -20.475  0.00  0.00    +0.037 C 
ATOM     18  C   UNL     1      33.995 -21.538 -19.272  0.00  0.00    +0.037 C 
ATOM     19  C   UNL     1      34.749 -19.624 -21.157  0.00  0.00    +0.003 C 
ATOM     20  C   UNL     1      33.020 -20.809 -19.954  0.00  0.00    +0.003 C 
ATOM     21  C   UNL     1      33.397 -19.852 -20.896  0.00  0.00    +0.000 C 
ENDBRANCH  15  16
ENDBRANCH  14  15
ENDBRANCH  11  14
ENDBRANCH  10  11
ENDBRANCH   2   9
BRANCH   3  22
ATOM     22  C   UNL     1      34.010 -24.615 -13.337  0.00  0.00    +0.042 C 
BRANCH  22  23
ATOM     23  C   UNL     1      34.556 -24.118 -12.034  0.00  0.00    +0.015 C 
ATOM     24  C   UNL     1      35.821 -23.949 -11.779  0.00  0.00    -0.110 C 
ATOM     25  C   UNL     1      37.081 -23.773 -11.504  0.00  0.00    +0.015 C 
BRANCH  25  26
ATOM     26  C   UNL     1      38.208 -24.043 -12.459  0.00  0.00    +0.046 C 
BRANCH  26  27
ATOM     27  C   UNL     1      38.126 -25.436 -13.076  0.00  0.00    +0.115 C 
BRANCH  27  29
ATOM     28  O   UNL     1      39.301 -24.600 -15.014  0.00  0.00    -0.250 OA
ATOM     29  C   UNL     1      38.585 -25.459 -14.514  0.00  0.00    +0.317 C 
BRANCH  29  30
ATOM     30  O   UNL     1      38.084 -26.558 -15.148  0.00  0.00    -0.444 OA
ATOM     31  C   UNL     1      36.667 -26.564 -15.342  0.00  0.00    +0.256 C 
ENDBRANCH  29  30
ENDBRANCH  27  29
ENDBRANCH  26  27
ENDBRANCH  25  26
ENDBRANCH  22  23
ENDBRANCH   3  22
TORSDOF 13
ENDMDL
MODEL 5
REMARK VINA RESULT:      -9.4      5.127     10.197
REMARK  Name = 9978336
REMARK  13 active torsions:
REMARK  status: ('A' for Active; 'I' for Inactive)
REMARK    1  A    between atoms: C_2  and  C_9
REMARK    2  A    between atoms: C_3  and  C_22
REMARK    3  A    between atoms: C_4  and  O_7
REMARK    4  A    between atoms: C_10  and  C_11
REMARK    5  A    between atoms: C_11  and  O_12
REMARK    6  A    between atoms: C_11  and  C_14
REMARK    7  A    between atoms: C_14  and  O_15
REMARK    8  A    between atoms: O_15  and  C_16
REMARK    9  A    between atoms: C_22  and  C_23
REMARK   10  A    between atoms: C_25  and  C_26
REMARK   11  A    between atoms: C_26  and  C_27
REMARK   12  A    between atoms: C_27  and  C_29
REMARK   13  A    between atoms: C_29  and  O_30
REMARK                            x       y       z     vdW  Elec       q    Type
REMARK                         _______ _______ _______ _____ _____    ______ ____
ROOT
ATOM      1  O   UNL     1      36.614 -21.014 -19.250  0.00  0.00    -0.296 OA
ATOM      2  C   UNL     1      35.439 -23.104 -16.654  0.00  0.00    +0.056 C 
ATOM      3  C   UNL     1      35.055 -22.049 -17.703  0.00  0.00    +0.069 C 
ATOM      4  C   UNL     1      36.754 -22.577 -16.065  0.00  0.00    +0.122 C 
ATOM      5  C   UNL     1      37.523 -22.034 -17.267  0.00  0.00    +0.094 C 
ATOM      6  C   UNL     1      36.419 -21.627 -18.207  0.00  0.00    +0.153 C 
ENDROOT
BRANCH   4   7
ATOM      7  O   UNL     1      37.498 -23.624 -15.460  0.00  0.00    -0.384 OA
ATOM      8  H   UNL     1      37.650 -23.414 -14.526  0.00  0.00    +0.210 HD
ENDBRANCH   4   7
BRANCH   2   9
ATOM      9  C   UNL     1      34.384 -23.301 -15.612  0.00  0.00    -0.026 C 
ATOM     10  C   UNL     1      34.567 -24.010 -14.488  0.00  0.00    +0.002 C 
BRANCH  10  11
ATOM     11  C   UNL     1      33.504 -24.208 -13.444  0.00  0.00    +0.176 C 
BRANCH  11  12
ATOM     12  O   UNL     1      34.100 -24.898 -12.349  0.00  0.00    -0.376 OA
ATOM     13  H   UNL     1      34.613 -24.273 -11.813  0.00  0.00    +0.211 HD
ENDBRANCH  11  12
BRANCH  11  14
ATOM     14  C   UNL     1      32.337 -25.033 -13.978  0.00  0.00    +0.239 C 
BRANCH  14  15
ATOM     15  O   UNL     1      31.107 -24.407 -13.640  0.00  0.00    -0.472 OA
BRANCH  15  16
ATOM     16  C   UNL     1      30.282 -24.060 -14.678  0.00  0.00    +0.139 C 
ATOM     17  C   UNL     1      30.368 -22.786 -15.227  0.00  0.00    +0.037 C 
ATOM     18  C   UNL     1      29.367 -24.983 -15.168  0.00  0.00    +0.037 C 
ATOM     19  C   UNL     1      29.528 -22.431 -16.282  0.00  0.00    +0.003 C 
ATOM     20  C   UNL     1      28.527 -24.629 -16.223  0.00  0.00    +0.003 C 
ATOM     21  C   UNL     1      28.606 -23.353 -16.780  0.00  0.00    +0.000 C 
ENDBRANCH  15  16
ENDBRANCH  14  15
ENDBRANCH  11  14
ENDBRANCH  10  11
ENDBRANCH   2   9
BRANCH   3  22
ATOM     22  C   UNL     1      34.169 -22.595 -18.809  0.00  0.00    +0.042 C 
BRANCH  22  23
ATOM     23  C   UNL     1      33.069 -21.637 -19.156  0.00  0.00    +0.015 C 
ATOM     24  C   UNL     1      33.181 -20.664 -20.012  0.00  0.00    -0.110 C 
ATOM     25  C   UNL     1      33.270 -19.684 -20.864  0.00  0.00    +0.015 C 
BRANCH  25  26
ATOM     26  C   UNL     1      34.505 -19.349 -21.650  0.00  0.00    +0.046 C 
BRANCH  26  27
ATOM     27  C   UNL     1      35.354 -18.279 -20.969  0.00  0.00    +0.115 C 
BRANCH  27  29
ATOM     28  O   UNL     1      34.962 -15.944 -20.488  0.00  0.00    -0.250 OA
ATOM     29  C   UNL     1      34.873 -16.880 -21.273  0.00  0.00    +0.317 C 
BRANCH  29  30
ATOM     30  O   UNL     1      34.336 -16.832 -22.526  0.00  0.00    -0.444 OA
ATOM     31  C   UNL     1      34.990 -15.950 -23.443  0.00  0.00    +0.256 C 
ENDBRANCH  29  30
ENDBRANCH  27  29
ENDBRANCH  26  27
ENDBRANCH  25  26
ENDBRANCH  22  23
ENDBRANCH   3  22
TORSDOF 13
ENDMDL
MODEL 6
REMARK VINA RESULT:      -9.3      6.242     11.018
REMARK  Name = 9978336
REMARK  13 active torsions:
REMARK  status: ('A' for Active; 'I' for Inactive)
REMARK    1  A    between atoms: C_2  and  C_9
REMARK    2  A    between atoms: C_3  and  C_22
REMARK    3  A    between atoms: C_4  and  O_7
REMARK    4  A    between atoms: C_10  and  C_11
REMARK    5  A    between atoms: C_11  and  O_12
REMARK    6  A    between atoms: C_11  and  C_14
REMARK    7  A    between atoms: C_14  and  O_15
REMARK    8  A    between atoms: O_15  and  C_16
REMARK    9  A    between atoms: C_22  and  C_23
REMARK   10  A    between atoms: C_25  and  C_26
REMARK   11  A    between atoms: C_26  and  C_27
REMARK   12  A    between atoms: C_27  and  C_29
REMARK   13  A    between atoms: C_29  and  O_30
REMARK                            x       y       z     vdW  Elec       q    Type
REMARK                         _______ _______ _______ _____ _____    ______ ____
ROOT
ATOM      1  O   UNL     1      31.390 -22.717 -17.246  0.00  0.00    -0.296 OA
ATOM      2  C   UNL     1      34.351 -23.371 -15.430  0.00  0.00    +0.056 C 
ATOM      3  C   UNL     1      33.667 -23.433 -16.806  0.00  0.00    +0.069 C 
ATOM      4  C   UNL     1      33.269 -23.861 -14.459  0.00  0.00    +0.122 C 
ATOM      5  C   UNL     1      31.979 -23.221 -14.965  0.00  0.00    +0.094 C 
ATOM      6  C   UNL     1      32.242 -23.074 -16.441  0.00  0.00    +0.153 C 
ENDROOT
BRANCH   4   7
ATOM      7  O   UNL     1      33.532 -23.414 -13.137  0.00  0.00    -0.384 OA
ATOM      8  H   UNL     1      32.700 -23.369 -12.641  0.00  0.00    +0.210 HD
ENDBRANCH   4   7
BRANCH   2   9
ATOM      9  C   UNL     1      35.598 -24.193 -15.361  0.00  0.00    -0.026 C 
ATOM     10  C   UNL     1      35.609 -25.534 -15.363  0.00  0.00    +0.002 C 
BRANCH  10  11
ATOM     11  C   UNL     1      36.864 -26.359 -15.292  0.00  0.00    +0.176 C 
BRANCH  11  12
ATOM     12  O   UNL     1      36.813 -27.313 -16.349  0.00  0.00    -0.376 OA
ATOM     13  H   UNL     1      36.347 -26.930 -17.108  0.00  0.00    +0.211 HD
ENDBRANCH  11  12
BRANCH  11  14
ATOM     14  C   UNL     1      36.979 -27.095 -13.960  0.00  0.00    +0.239 C 
BRANCH  14  15
ATOM     15  O   UNL     1      37.956 -26.466 -13.142  0.00  0.00    -0.472 OA
BRANCH  15  16
ATOM     16  C   UNL     1      37.584 -25.307 -12.512  0.00  0.00    +0.139 C 
ATOM     17  C   UNL     1      36.389 -25.263 -11.804  0.00  0.00    +0.037 C 
ATOM     18  C   UNL     1      38.404 -24.188 -12.589  0.00  0.00    +0.037 C 
ATOM     19  C   UNL     1      36.009 -24.084 -11.163  0.00  0.00    +0.003 C 
ATOM     20  C   UNL     1      38.025 -23.009 -11.948  0.00  0.00    +0.003 C 
ATOM     21  C   UNL     1      36.828 -22.956 -11.236  0.00  0.00    +0.000 C 
ENDBRANCH  15  16
ENDBRANCH  14  15
ENDBRANCH  11  14
ENDBRANCH  10  11
ENDBRANCH   2   9
BRANCH   3  22
ATOM     22  C   UNL     1      34.268 -22.476 -17.820  0.00  0.00    +0.042 C 
BRANCH  22  23
ATOM     23  C   UNL     1      33.266 -22.075 -18.860  0.00  0.00    +0.015 C 
ATOM     24  C   UNL     1      33.464 -21.161 -19.763  0.00  0.00    -0.110 C 
ATOM     25  C   UNL     1      33.642 -20.249 -20.675  0.00  0.00    +0.015 C 
BRANCH  25  26
ATOM     26  C   UNL     1      34.896 -19.439 -20.838  0.00  0.00    +0.046 C 
BRANCH  26  27
ATOM     27  C   UNL     1      34.939 -18.697 -22.171  0.00  0.00    +0.115 C 
BRANCH  27  29
ATOM     28  O   UNL     1      35.541 -16.481 -22.922  0.00  0.00    -0.250 OA
ATOM     29  C   UNL     1      35.222 -17.223 -22.001  0.00  0.00    +0.317 C 
BRANCH  29  30
ATOM     30  O   UNL     1      35.071 -16.865 -20.694  0.00  0.00    -0.444 OA
ATOM     31  C   UNL     1      34.539 -15.556 -20.471  0.00  0.00    +0.256 C 
ENDBRANCH  29  30
ENDBRANCH  27  29
ENDBRANCH  26  27
ENDBRANCH  25  26
ENDBRANCH  22  23
ENDBRANCH   3  22
TORSDOF 13
ENDMDL
MODEL 7
REMARK VINA RESULT:      -9.3      2.304      9.481
REMARK  Name = 9978336
REMARK  13 active torsions:
REMARK  status: ('A' for Active; 'I' for Inactive)
REMARK    1  A    between atoms: C_2  and  C_9
REMARK    2  A    between atoms: C_3  and  C_22
REMARK    3  A    between atoms: C_4  and  O_7
REMARK    4  A    between atoms: C_10  and  C_11
REMARK    5  A    between atoms: C_11  and  O_12
REMARK    6  A    between atoms: C_11  and  C_14
REMARK    7  A    between atoms: C_14  and  O_15
REMARK    8  A    between atoms: O_15  and  C_16
REMARK    9  A    between atoms: C_22  and  C_23
REMARK   10  A    between atoms: C_25  and  C_26
REMARK   11  A    between atoms: C_26  and  C_27
REMARK   12  A    between atoms: C_27  and  C_29
REMARK   13  A    between atoms: C_29  and  O_30
REMARK                            x       y       z     vdW  Elec       q    Type
REMARK                         _______ _______ _______ _____ _____    ______ ____
ROOT
ATOM      1  O   UNL     1      35.439 -16.880 -20.256  0.00  0.00    -0.296 OA
ATOM      2  C   UNL     1      33.702 -15.581 -23.047  0.00  0.00    +0.056 C 
ATOM      3  C   UNL     1      35.026 -16.176 -22.543  0.00  0.00    +0.069 C 
ATOM      4  C   UNL     1      33.289 -14.607 -21.935  0.00  0.00    +0.122 C 
ATOM      5  C   UNL     1      33.629 -15.337 -20.638  0.00  0.00    +0.094 C 
ATOM      6  C   UNL     1      34.779 -16.219 -21.049  0.00  0.00    +0.153 C 
ENDROOT
BRANCH   4   7
ATOM      7  O   UNL     1      31.894 -14.346 -21.979  0.00  0.00    -0.384 OA
ATOM      8  H   UNL     1      31.507 -14.513 -21.105  0.00  0.00    +0.210 HD
ENDBRANCH   4   7
BRANCH   2   9
ATOM      9  C   UNL     1      33.832 -14.910 -24.377  0.00  0.00    -0.026 C 
ATOM     10  C   UNL     1      32.922 -14.061 -24.877  0.00  0.00    +0.002 C 
BRANCH  10  11
ATOM     11  C   UNL     1      33.055 -13.389 -26.215  0.00  0.00    +0.176 C 
BRANCH  11  12
ATOM     12  O   UNL     1      33.763 -14.277 -27.075  0.00  0.00    -0.376 OA
ATOM     13  H   UNL     1      33.791 -13.906 -27.971  0.00  0.00    +0.211 HD
ENDBRANCH  11  12
BRANCH  11  14
ATOM     14  C   UNL     1      33.826 -12.076 -26.111  0.00  0.00    +0.239 C 
BRANCH  14  15
ATOM     15  O   UNL     1      34.232 -11.858 -24.767  0.00  0.00    -0.472 OA
BRANCH  15  16
ATOM     16  C   UNL     1      34.046 -10.598 -24.260  0.00  0.00    +0.139 C 
ATOM     17  C   UNL     1      35.003  -9.617 -24.491  0.00  0.00    +0.037 C 
ATOM     18  C   UNL     1      32.906 -10.317 -23.517  0.00  0.00    +0.037 C 
ATOM     19  C   UNL     1      34.816  -8.335 -23.974  0.00  0.00    +0.003 C 
ATOM     20  C   UNL     1      32.718  -9.035 -23.001  0.00  0.00    +0.003 C 
ATOM     21  C   UNL     1      33.673  -8.044 -23.228  0.00  0.00    +0.000 C 
ENDBRANCH  15  16
ENDBRANCH  14  15
ENDBRANCH  11  14
ENDBRANCH  10  11
ENDBRANCH   2   9
BRANCH   3  22
ATOM     22  C   UNL     1      35.330 -17.546 -23.123  0.00  0.00    +0.042 C 
BRANCH  22  23
ATOM     23  C   UNL     1      34.185 -18.493 -22.926  0.00  0.00    +0.015 C 
ATOM     24  C   UNL     1      34.128 -19.399 -21.995  0.00  0.00    -0.110 C 
ATOM     25  C   UNL     1      34.051 -20.312 -21.070  0.00  0.00    +0.015 C 
BRANCH  25  26
ATOM     26  C   UNL     1      35.109 -20.570 -20.036  0.00  0.00    +0.046 C 
BRANCH  26  27
ATOM     27  C   UNL     1      35.202 -22.045 -19.656  0.00  0.00    +0.115 C 
BRANCH  27  29
ATOM     28  O   UNL     1      32.945 -22.433 -18.888  0.00  0.00    -0.250 OA
ATOM     29  C   UNL     1      34.147 -22.452 -18.655  0.00  0.00    +0.317 C 
BRANCH  29  30
ATOM     30  O   UNL     1      34.735 -22.828 -17.483  0.00  0.00    -0.444 OA
ATOM     31  C   UNL     1      33.861 -23.422 -16.519  0.00  0.00    +0.256 C 
ENDBRANCH  29  30
ENDBRANCH  27  29
ENDBRANCH  26  27
ENDBRANCH  25  26
ENDBRANCH  22  23
ENDBRANCH   3  22
TORSDOF 13
ENDMDL
MODEL 8
REMARK VINA RESULT:      -9.3      6.044     12.647
REMARK  Name = 9978336
REMARK  13 active torsions:
REMARK  status: ('A' for Active; 'I' for Inactive)
REMARK    1  A    between atoms: C_2  and  C_9
REMARK    2  A    between atoms: C_3  and  C_22
REMARK    3  A    between atoms: C_4  and  O_7
REMARK    4  A    between atoms: C_10  and  C_11
REMARK    5  A    between atoms: C_11  and  O_12
REMARK    6  A    between atoms: C_11  and  C_14
REMARK    7  A    between atoms: C_14  and  O_15
REMARK    8  A    between atoms: O_15  and  C_16
REMARK    9  A    between atoms: C_22  and  C_23
REMARK   10  A    between atoms: C_25  and  C_26
REMARK   11  A    between atoms: C_26  and  C_27
REMARK   12  A    between atoms: C_27  and  C_29
REMARK   13  A    between atoms: C_29  and  O_30
REMARK                            x       y       z     vdW  Elec       q    Type
REMARK                         _______ _______ _______ _____ _____    ______ ____
ROOT
ATOM      1  O   UNL     1      31.861 -23.084 -12.821  0.00  0.00    -0.296 OA
ATOM      2  C   UNL     1      32.291 -23.570 -16.296  0.00  0.00    +0.056 C 
ATOM      3  C   UNL     1      32.993 -23.276 -14.960  0.00  0.00    +0.069 C 
ATOM      4  C   UNL     1      31.034 -22.690 -16.252  0.00  0.00    +0.122 C 
ATOM      5  C   UNL     1      30.536 -22.802 -14.813  0.00  0.00    +0.094 C 
ATOM      6  C   UNL     1      31.806 -23.063 -14.045  0.00  0.00    +0.153 C 
ENDROOT
BRANCH   4   7
ATOM      7  O   UNL     1      30.038 -23.180 -17.137  0.00  0.00    -0.384 OA
ATOM      8  H   UNL     1      29.350 -22.507 -17.251  0.00  0.00    +0.210 HD
ENDBRANCH   4   7
BRANCH   2   9
ATOM      9  C   UNL     1      33.152 -23.280 -17.483  0.00  0.00    -0.026 C 
ATOM     10  C   UNL     1      32.975 -22.226 -18.294  0.00  0.00    +0.002 C 
BRANCH  10  11
ATOM     11  C   UNL     1      33.841 -21.937 -19.488  0.00  0.00    +0.176 C 
BRANCH  11  12
ATOM     12  O   UNL     1      35.200 -22.017 -19.065  0.00  0.00    -0.376 OA
ATOM     13  H   UNL     1      35.564 -21.123 -18.977  0.00  0.00    +0.211 HD
ENDBRANCH  11  12
BRANCH  11  14
ATOM     14  C   UNL     1      33.576 -20.544 -20.053  0.00  0.00    +0.239 C 
BRANCH  14  15
ATOM     15  O   UNL     1      34.806 -19.864 -20.261  0.00  0.00    -0.472 OA
BRANCH  15  16
ATOM     16  C   UNL     1      34.862 -18.996 -21.320  0.00  0.00    +0.139 C 
ATOM     17  C   UNL     1      34.986 -17.632 -21.085  0.00  0.00    +0.037 C 
ATOM     18  C   UNL     1      34.792 -19.489 -22.618  0.00  0.00    +0.037 C 
ATOM     19  C   UNL     1      35.042 -16.747 -22.162  0.00  0.00    +0.003 C 
ATOM     20  C   UNL     1      34.849 -18.605 -23.695  0.00  0.00    +0.003 C 
ATOM     21  C   UNL     1      34.973 -17.235 -23.468  0.00  0.00    +0.000 C 
ENDBRANCH  15  16
ENDBRANCH  14  15
ENDBRANCH  11  14
ENDBRANCH  10  11
ENDBRANCH   2   9
BRANCH   3  22
ATOM     22  C   UNL     1      33.893 -24.407 -14.493  0.00  0.00    +0.042 C 
BRANCH  22  23
ATOM     23  C   UNL     1      35.083 -24.569 -15.389  0.00  0.00    +0.015 C 
ATOM     24  C   UNL     1      36.249 -24.995 -14.999  0.00  0.00    -0.110 C 
ATOM     25  C   UNL     1      37.423 -25.419 -14.631  0.00  0.00    +0.015 C 
BRANCH  25  26
ATOM     26  C   UNL     1      37.782 -25.822 -13.229  0.00  0.00    +0.046 C 
BRANCH  26  27
ATOM     27  C   UNL     1      38.701 -24.809 -12.551  0.00  0.00    +0.115 C 
BRANCH  27  29
ATOM     28  O   UNL     1      38.085 -22.541 -11.989  0.00  0.00    -0.250 OA
ATOM     29  C   UNL     1      37.933 -23.743 -11.806  0.00  0.00    +0.317 C 
BRANCH  29  30
ATOM     30  O   UNL     1      37.072 -24.319 -10.919  0.00  0.00    -0.444 OA
ATOM     31  C   UNL     1      35.682 -24.118 -11.191  0.00  0.00    +0.256 C 
ENDBRANCH  29  30
ENDBRANCH  27  29
ENDBRANCH  26  27
ENDBRANCH  25  26
ENDBRANCH  22  23
ENDBRANCH   3  22
TORSDOF 13
ENDMDL
MODEL 9
REMARK VINA RESULT:      -9.2      2.145      9.588
REMARK  Name = 9978336
REMARK  13 active torsions:
REMARK  status: ('A' for Active; 'I' for Inactive)
REMARK    1  A    between atoms: C_2  and  C_9
REMARK    2  A    between atoms: C_3  and  C_22
REMARK    3  A    between atoms: C_4  and  O_7
REMARK    4  A    between atoms: C_10  and  C_11
REMARK    5  A    between atoms: C_11  and  O_12
REMARK    6  A    between atoms: C_11  and  C_14
REMARK    7  A    between atoms: C_14  and  O_15
REMARK    8  A    between atoms: O_15  and  C_16
REMARK    9  A    between atoms: C_22  and  C_23
REMARK   10  A    between atoms: C_25  and  C_26
REMARK   11  A    between atoms: C_26  and  C_27
REMARK   12  A    between atoms: C_27  and  C_29
REMARK   13  A    between atoms: C_29  and  O_30
REMARK                            x       y       z     vdW  Elec       q    Type
REMARK                         _______ _______ _______ _____ _____    ______ ____
ROOT
ATOM      1  O   UNL     1      33.160 -15.314 -26.987  0.00  0.00    -0.296 OA
ATOM      2  C   UNL     1      33.835 -12.996 -24.405  0.00  0.00    +0.056 C 
ATOM      3  C   UNL     1      33.135 -14.314 -24.775  0.00  0.00    +0.069 C 
ATOM      4  C   UNL     1      33.525 -12.070 -25.589  0.00  0.00    +0.122 C 
ATOM      5  C   UNL     1      33.657 -12.963 -26.820  0.00  0.00    +0.094 C 
ATOM      6  C   UNL     1      33.304 -14.324 -26.279  0.00  0.00    +0.153 C 
ENDROOT
BRANCH   4   7
ATOM      7  O   UNL     1      34.467 -11.012 -25.668  0.00  0.00    -0.384 OA
ATOM      8  H   UNL     1      35.365 -11.373 -25.604  0.00  0.00    +0.210 HD
ENDBRANCH   4   7
BRANCH   2   9
ATOM      9  C   UNL     1      33.367 -12.434 -23.100  0.00  0.00    -0.026 C 
ATOM     10  C   UNL     1      32.158 -11.882 -22.916  0.00  0.00    +0.002 C 
BRANCH  10  11
ATOM     11  C   UNL     1      31.691 -11.316 -21.604  0.00  0.00    +0.176 C 
BRANCH  11  12
ATOM     12  O   UNL     1      30.298 -11.593 -21.487  0.00  0.00    -0.376 OA
ATOM     13  H   UNL     1      29.851 -10.834 -21.080  0.00  0.00    +0.211 HD
ENDBRANCH  11  12
BRANCH  11  14
ATOM     14  C   UNL     1      31.908  -9.807 -21.533  0.00  0.00    +0.239 C 
BRANCH  14  15
ATOM     15  O   UNL     1      31.562  -9.209 -22.774  0.00  0.00    -0.472 OA
BRANCH  15  16
ATOM     16  C   UNL     1      32.484  -8.363 -23.333  0.00  0.00    +0.139 C 
ATOM     17  C   UNL     1      33.840  -8.639 -23.200  0.00  0.00    +0.037 C 
ATOM     18  C   UNL     1      32.055  -7.237 -24.025  0.00  0.00    +0.037 C 
ATOM     19  C   UNL     1      34.779  -7.779 -23.767  0.00  0.00    +0.003 C 
ATOM     20  C   UNL     1      32.994  -6.377 -24.594  0.00  0.00    +0.003 C 
ATOM     21  C   UNL     1      34.355  -6.646 -24.464  0.00  0.00    +0.000 C 
ENDBRANCH  15  16
ENDBRANCH  14  15
ENDBRANCH  11  14
ENDBRANCH  10  11
ENDBRANCH   2   9
BRANCH   3  22
ATOM     22  C   UNL     1      33.756 -15.531 -24.111  0.00  0.00    +0.042 C 
BRANCH  22  23
ATOM     23  C   UNL     1      34.138 -15.247 -22.690  0.00  0.00    +0.015 C 
ATOM     24  C   UNL     1      34.567 -16.141 -21.848  0.00  0.00    -0.110 C 
ATOM     25  C   UNL     1      34.998 -17.019 -20.989  0.00  0.00    +0.015 C 
BRANCH  25  26
ATOM     26  C   UNL     1      35.185 -18.480 -21.284  0.00  0.00    +0.046 C 
BRANCH  26  27
ATOM     27  C   UNL     1      33.859 -19.228 -21.379  0.00  0.00    +0.115 C 
BRANCH  27  29
ATOM     28  O   UNL     1      32.663 -20.650 -19.836  0.00  0.00    -0.250 OA
ATOM     29  C   UNL     1      33.729 -20.308 -20.332  0.00  0.00    +0.317 C 
BRANCH  29  30
ATOM     30  O   UNL     1      34.957 -20.822 -20.036  0.00  0.00    -0.444 OA
ATOM     31  C   UNL     1      34.956 -21.960 -19.168  0.00  0.00    +0.256 C 
ENDBRANCH  29  30
ENDBRANCH  27  29
ENDBRANCH  26  27
ENDBRANCH  25  26
ENDBRANCH  22  23
ENDBRANCH   3  22
TORSDOF 13
ENDMDL
