MODEL 1
REMARK VINA RESULT:      -7.3      0.000      0.000
REMARK  Name = 6420120
REMARK  8 active torsions:
REMARK  status: ('A' for Active; 'I' for Inactive)
REMARK    1  A    between atoms: N_2  and  C_7
REMARK    2  A    between atoms: N_3  and  C_13
REMARK    3  A    between atoms: C_13  and  C_14
REMARK    4  A    between atoms: C_14  and  C_15
REMARK    5  A    between atoms: C_15  and  C_16
REMARK    6  A    between atoms: C_16  and  C_17
REMARK    7  A    between atoms: C_17  and  C_19
REMARK    8  A    between atoms: C_19  and  O_20
REMARK                            x       y       z     vdW  Elec       q    Type
REMARK                         _______ _______ _______ _____ _____    ______ ____
ROOT
ATOM      1  O   UNL     1      35.466 -23.822 -15.898  0.00  0.00    -0.253 OA
ATOM      2  N   UNL     1      33.617 -24.367 -14.605  0.00  0.00    -0.291 N 
ATOM      3  N   UNL     1      35.434 -25.782 -14.656  0.00  0.00    -0.289 N 
ATOM      4  C   UNL     1      34.890 -24.585 -15.125  0.00  0.00    +0.301 C 
ATOM      5  H   UNL     1      33.240 -25.038 -13.991  0.00  0.00    +0.151 HD
ATOM      6  H   UNL     1      34.900 -26.330 -14.037  0.00  0.00    +0.151 HD
ENDROOT
BRANCH   2   7
ATOM      7  C   UNL     1      32.821 -23.203 -14.924  0.00  0.00    +0.073 C 
ATOM      8  C   UNL     1      31.958 -23.449 -16.166  0.00  0.00    +0.020 C 
ATOM      9  C   UNL     1      31.963 -22.777 -13.728  0.00  0.00    +0.020 C 
ATOM     10  C   UNL     1      30.804 -24.415 -15.896  0.00  0.00    +0.002 C 
ATOM     11  C   UNL     1      30.810 -23.744 -13.461  0.00  0.00    +0.002 C 
ATOM     12  C   UNL     1      29.960 -23.964 -14.708  0.00  0.00    +0.000 C 
ENDBRANCH   2   7
BRANCH   3  13
ATOM     13  C   UNL     1      36.740 -26.250 -15.035  0.00  0.00    +0.091 C 
BRANCH  13  14
ATOM     14  C   UNL     1      37.704 -26.231 -13.853  0.00  0.00    +0.021 C 
BRANCH  14  15
ATOM     15  C   UNL     1      38.325 -24.856 -13.599  0.00  0.00    +0.002 C 
BRANCH  15  16
ATOM     16  C   UNL     1      38.115 -24.349 -12.170  0.00  0.00    +0.012 C 
BRANCH  16  17
ATOM     17  C   UNL     1      36.782 -23.613 -12.035  0.00  0.00    +0.109 C 
BRANCH  17  19
ATOM     18  O   UNL     1      35.953 -24.287  -9.847  0.00  0.00    -0.250 OA
ATOM     19  C   UNL     1      35.851 -24.306 -11.066  0.00  0.00    +0.314 C 
BRANCH  19  20
ATOM     20  O   UNL     1      34.861 -24.970 -11.719  0.00  0.00    -0.480 OA
ATOM     21  H   UNL     1      34.013 -24.580 -11.807  0.00  0.00    +0.295 HD
ENDBRANCH  19  20
ENDBRANCH  17  19
ENDBRANCH  16  17
ENDBRANCH  15  16
ENDBRANCH  14  15
ENDBRANCH  13  14
ENDBRANCH   3  13
TORSDOF 8
ENDMDL
MODEL 2
REMARK VINA RESULT:      -7.2      2.429      3.430
REMARK  Name = 6420120
REMARK  8 active torsions:
REMARK  status: ('A' for Active; 'I' for Inactive)
REMARK    1  A    between atoms: N_2  and  C_7
REMARK    2  A    between atoms: N_3  and  C_13
REMARK    3  A    between atoms: C_13  and  C_14
REMARK    4  A    between atoms: C_14  and  C_15
REMARK    5  A    between atoms: C_15  and  C_16
REMARK    6  A    between atoms: C_16  and  C_17
REMARK    7  A    between atoms: C_17  and  C_19
REMARK    8  A    between atoms: C_19  and  O_20
REMARK                            x       y       z     vdW  Elec       q    Type
REMARK                         _______ _______ _______ _____ _____    ______ ____
ROOT
ATOM      1  O   UNL     1      33.848 -24.167 -12.886  0.00  0.00    -0.253 OA
ATOM      2  N   UNL     1      32.516 -23.868 -14.764  0.00  0.00    -0.291 N 
ATOM      3  N   UNL     1      34.730 -24.455 -15.013  0.00  0.00    -0.289 N 
ATOM      4  C   UNL     1      33.709 -24.163 -14.108  0.00  0.00    +0.301 C 
ATOM      5  H   UNL     1      32.505 -23.891 -15.748  0.00  0.00    +0.151 HD
ATOM      6  H   UNL     1      34.527 -24.427 -15.976  0.00  0.00    +0.151 HD
ENDROOT
BRANCH   2   7
ATOM      7  C   UNL     1      31.295 -23.528 -14.069  0.00  0.00    +0.073 C 
ATOM      8  C   UNL     1      30.430 -22.579 -14.906  0.00  0.00    +0.020 C 
ATOM      9  C   UNL     1      30.516 -24.788 -13.676  0.00  0.00    +0.020 C 
ATOM     10  C   UNL     1      29.793 -23.275 -16.109  0.00  0.00    +0.002 C 
ATOM     11  C   UNL     1      29.879 -25.481 -14.880  0.00  0.00    +0.002 C 
ATOM     12  C   UNL     1      29.015 -24.519 -15.691  0.00  0.00    +0.000 C 
ENDBRANCH   2   7
BRANCH   3  13
ATOM     13  C   UNL     1      36.066 -24.795 -14.604  0.00  0.00    +0.091 C 
BRANCH  13  14
ATOM     14  C   UNL     1      36.470 -26.176 -15.111  0.00  0.00    +0.021 C 
BRANCH  14  15
ATOM     15  C   UNL     1      37.641 -26.788 -14.339  0.00  0.00    +0.002 C 
BRANCH  15  16
ATOM     16  C   UNL     1      38.340 -25.795 -13.408  0.00  0.00    +0.012 C 
BRANCH  16  17
ATOM     17  C   UNL     1      39.475 -25.067 -14.127  0.00  0.00    +0.109 C 
BRANCH  17  19
ATOM     18  O   UNL     1      41.212 -26.772 -14.072  0.00  0.00    -0.250 OA
ATOM     19  C   UNL     1      40.482 -26.030 -14.714  0.00  0.00    +0.314 C 
BRANCH  19  20
ATOM     20  O   UNL     1      40.487 -25.975 -16.072  0.00  0.00    -0.480 OA
ATOM     21  H   UNL     1      40.949 -25.290 -16.513  0.00  0.00    +0.295 HD
ENDBRANCH  19  20
ENDBRANCH  17  19
ENDBRANCH  16  17
ENDBRANCH  15  16
ENDBRANCH  14  15
ENDBRANCH  13  14
ENDBRANCH   3  13
TORSDOF 8
ENDMDL
MODEL 3
REMARK VINA RESULT:      -7.1      3.325      7.474
REMARK  Name = 6420120
REMARK  8 active torsions:
REMARK  status: ('A' for Active; 'I' for Inactive)
REMARK    1  A    between atoms: N_2  and  C_7
REMARK    2  A    between atoms: N_3  and  C_13
REMARK    3  A    between atoms: C_13  and  C_14
REMARK    4  A    between atoms: C_14  and  C_15
REMARK    5  A    between atoms: C_15  and  C_16
REMARK    6  A    between atoms: C_16  and  C_17
REMARK    7  A    between atoms: C_17  and  C_19
REMARK    8  A    between atoms: C_19  and  O_20
REMARK                            x       y       z     vdW  Elec       q    Type
REMARK                         _______ _______ _______ _____ _____    ______ ____
ROOT
ATOM      1  O   UNL     1      33.346 -23.278 -14.668  0.00  0.00    -0.253 OA
ATOM      2  N   UNL     1      34.704 -24.997 -13.899  0.00  0.00    -0.291 N 
ATOM      3  N   UNL     1      32.428 -25.098 -13.559  0.00  0.00    -0.289 N 
ATOM      4  C   UNL     1      33.483 -24.358 -14.095  0.00  0.00    +0.301 C 
ATOM      5  H   UNL     1      34.710 -25.862 -13.428  0.00  0.00    +0.151 HD
ATOM      6  H   UNL     1      32.631 -25.954 -13.117  0.00  0.00    +0.151 HD
ENDROOT
BRANCH   2   7
ATOM      7  C   UNL     1      35.964 -24.452 -14.354  0.00  0.00    +0.073 C 
ATOM      8  C   UNL     1      36.686 -23.714 -13.221  0.00  0.00    +0.020 C 
ATOM      9  C   UNL     1      36.851 -25.546 -14.957  0.00  0.00    +0.020 C 
ATOM     10  C   UNL     1      37.246 -24.667 -12.165  0.00  0.00    +0.002 C 
ATOM     11  C   UNL     1      37.411 -26.496 -13.899  0.00  0.00    +0.002 C 
ATOM     12  C   UNL     1      38.134 -25.739 -12.789  0.00  0.00    +0.000 C 
ENDBRANCH   2   7
BRANCH   3  13
ATOM     13  C   UNL     1      31.057 -24.668 -13.623  0.00  0.00    +0.091 C 
BRANCH  13  14
ATOM     14  C   UNL     1      30.300 -25.381 -14.739  0.00  0.00    +0.021 C 
BRANCH  14  15
ATOM     15  C   UNL     1      29.022 -24.657 -15.165  0.00  0.00    +0.002 C 
BRANCH  15  16
ATOM     16  C   UNL     1      29.262 -23.216 -15.619  0.00  0.00    +0.012 C 
BRANCH  16  17
ATOM     17  C   UNL     1      27.947 -22.446 -15.739  0.00  0.00    +0.109 C 
BRANCH  17  19
ATOM     18  O   UNL     1      27.628 -23.245 -18.016  0.00  0.00    -0.250 OA
ATOM     19  C   UNL     1      27.459 -22.380 -17.168  0.00  0.00    +0.314 C 
BRANCH  19  20
ATOM     20  O   UNL     1      26.795 -21.219 -17.412  0.00  0.00    -0.480 OA
ATOM     21  H   UNL     1      25.966 -21.236 -17.848  0.00  0.00    +0.295 HD
ENDBRANCH  19  20
ENDBRANCH  17  19
ENDBRANCH  16  17
ENDBRANCH  15  16
ENDBRANCH  14  15
ENDBRANCH  13  14
ENDBRANCH   3  13
TORSDOF 8
ENDMDL
MODEL 4
REMARK VINA RESULT:      -7.0      4.829      7.500
REMARK  Name = 6420120
REMARK  8 active torsions:
REMARK  status: ('A' for Active; 'I' for Inactive)
REMARK    1  A    between atoms: N_2  and  C_7
REMARK    2  A    between atoms: N_3  and  C_13
REMARK    3  A    between atoms: C_13  and  C_14
REMARK    4  A    between atoms: C_14  and  C_15
REMARK    5  A    between atoms: C_15  and  C_16
REMARK    6  A    between atoms: C_16  and  C_17
REMARK    7  A    between atoms: C_17  and  C_19
REMARK    8  A    between atoms: C_19  and  O_20
REMARK                            x       y       z     vdW  Elec       q    Type
REMARK                         _______ _______ _______ _____ _____    ______ ____
ROOT
ATOM      1  O   UNL     1      33.762 -23.653 -16.254  0.00  0.00    -0.253 OA
ATOM      2  N   UNL     1      31.536 -23.314 -16.817  0.00  0.00    -0.291 N 
ATOM      3  N   UNL     1      33.196 -22.670 -18.278  0.00  0.00    -0.289 N 
ATOM      4  C   UNL     1      32.908 -23.250 -17.042  0.00  0.00    +0.301 C 
ATOM      5  H   UNL     1      30.930 -22.964 -17.510  0.00  0.00    +0.151 HD
ATOM      6  H   UNL     1      32.446 -22.376 -18.845  0.00  0.00    +0.151 HD
ENDROOT
BRANCH   2   7
ATOM      7  C   UNL     1      30.957 -23.868 -15.613  0.00  0.00    +0.073 C 
ATOM      8  C   UNL     1      30.360 -22.766 -14.731  0.00  0.00    +0.020 C 
ATOM      9  C   UNL     1      29.912 -24.938 -15.947  0.00  0.00    +0.020 C 
ATOM     10  C   UNL     1      29.078 -22.175 -15.319  0.00  0.00    +0.002 C 
ATOM     11  C   UNL     1      28.632 -24.345 -16.533  0.00  0.00    +0.002 C 
ATOM     12  C   UNL     1      28.052 -23.258 -15.632  0.00  0.00    +0.000 C 
ENDBRANCH   2   7
BRANCH   3  13
ATOM     13  C   UNL     1      34.537 -22.483 -18.763  0.00  0.00    +0.091 C 
BRANCH  13  14
ATOM     14  C   UNL     1      34.632 -21.270 -19.683  0.00  0.00    +0.021 C 
BRANCH  14  15
ATOM     15  C   UNL     1      33.271 -20.754 -20.152  0.00  0.00    +0.002 C 
BRANCH  15  16
ATOM     16  C   UNL     1      33.353 -19.438 -20.928  0.00  0.00    +0.012 C 
BRANCH  16  17
ATOM     17  C   UNL     1      34.522 -19.448 -21.913  0.00  0.00    +0.109 C 
BRANCH  17  19
ATOM     18  O   UNL     1      35.590 -17.682 -20.622  0.00  0.00    -0.250 OA
ATOM     19  C   UNL     1      35.475 -18.299 -21.671  0.00  0.00    +0.314 C 
BRANCH  19  20
ATOM     20  O   UNL     1      36.207 -18.021 -22.782  0.00  0.00    -0.480 OA
ATOM     21  H   UNL     1      37.107 -18.278 -22.827  0.00  0.00    +0.295 HD
ENDBRANCH  19  20
ENDBRANCH  17  19
ENDBRANCH  16  17
ENDBRANCH  15  16
ENDBRANCH  14  15
ENDBRANCH  13  14
ENDBRANCH   3  13
TORSDOF 8
ENDMDL
MODEL 5
REMARK VINA RESULT:      -7.0      9.636     12.323
REMARK  Name = 6420120
REMARK  8 active torsions:
REMARK  status: ('A' for Active; 'I' for Inactive)
REMARK    1  A    between atoms: N_2  and  C_7
REMARK    2  A    between atoms: N_3  and  C_13
REMARK    3  A    between atoms: C_13  and  C_14
REMARK    4  A    between atoms: C_14  and  C_15
REMARK    5  A    between atoms: C_15  and  C_16
REMARK    6  A    between atoms: C_16  and  C_17
REMARK    7  A    between atoms: C_17  and  C_19
REMARK    8  A    between atoms: C_19  and  O_20
REMARK                            x       y       z     vdW  Elec       q    Type
REMARK                         _______ _______ _______ _____ _____    ______ ____
ROOT
ATOM      1  O   UNL     1      34.658 -17.184 -22.415  0.00  0.00    -0.253 OA
ATOM      2  N   UNL     1      35.228 -18.426 -20.539  0.00  0.00    -0.291 N 
ATOM      3  N   UNL     1      34.891 -16.156 -20.348  0.00  0.00    -0.289 N 
ATOM      4  C   UNL     1      34.904 -17.251 -21.212  0.00  0.00    +0.301 C 
ATOM      5  H   UNL     1      35.408 -18.379 -19.572  0.00  0.00    +0.151 HD
ATOM      6  H   UNL     1      35.101 -16.304 -19.397  0.00  0.00    +0.151 HD
ENDROOT
BRANCH   2   7
ATOM      7  C   UNL     1      35.314 -19.714 -21.191  0.00  0.00    +0.073 C 
ATOM      8  C   UNL     1      36.366 -20.603 -20.520  0.00  0.00    +0.020 C 
ATOM      9  C   UNL     1      33.946 -20.405 -21.230  0.00  0.00    +0.020 C 
ATOM     10  C   UNL     1      35.920 -21.102 -19.146  0.00  0.00    +0.002 C 
ATOM     11  C   UNL     1      33.504 -20.903 -19.855  0.00  0.00    +0.002 C 
ATOM     12  C   UNL     1      34.563 -21.794 -19.212  0.00  0.00    +0.000 C 
ENDBRANCH   2   7
BRANCH   3  13
ATOM     13  C   UNL     1      34.586 -14.819 -20.782  0.00  0.00    +0.091 C 
BRANCH  13  14
ATOM     14  C   UNL     1      33.080 -14.578 -20.829  0.00  0.00    +0.021 C 
BRANCH  14  15
ATOM     15  C   UNL     1      32.573 -14.174 -22.215  0.00  0.00    +0.002 C 
BRANCH  15  16
ATOM     16  C   UNL     1      33.680 -14.095 -23.268  0.00  0.00    +0.012 C 
BRANCH  16  17
ATOM     17  C   UNL     1      33.098 -13.944 -24.673  0.00  0.00    +0.109 C 
BRANCH  17  19
ATOM     18  O   UNL     1      33.349 -15.150 -26.773  0.00  0.00    -0.250 OA
ATOM     19  C   UNL     1      33.433 -15.126 -25.553  0.00  0.00    +0.314 C 
BRANCH  19  20
ATOM     20  O   UNL     1      33.850 -16.190 -24.817  0.00  0.00    -0.480 OA
ATOM     21  H   UNL     1      34.176 -16.958 -25.244  0.00  0.00    +0.295 HD
ENDBRANCH  19  20
ENDBRANCH  17  19
ENDBRANCH  16  17
ENDBRANCH  15  16
ENDBRANCH  14  15
ENDBRANCH  13  14
ENDBRANCH   3  13
TORSDOF 8
ENDMDL
MODEL 6
REMARK VINA RESULT:      -7.0      6.191      7.340
REMARK  Name = 6420120
REMARK  8 active torsions:
REMARK  status: ('A' for Active; 'I' for Inactive)
REMARK    1  A    between atoms: N_2  and  C_7
REMARK    2  A    between atoms: N_3  and  C_13
REMARK    3  A    between atoms: C_13  and  C_14
REMARK    4  A    between atoms: C_14  and  C_15
REMARK    5  A    between atoms: C_15  and  C_16
REMARK    6  A    between atoms: C_16  and  C_17
REMARK    7  A    between atoms: C_17  and  C_19
REMARK    8  A    between atoms: C_19  and  O_20
REMARK                            x       y       z     vdW  Elec       q    Type
REMARK                         _______ _______ _______ _____ _____    ______ ____
ROOT
ATOM      1  O   UNL     1      34.359 -21.530 -19.765  0.00  0.00    -0.253 OA
ATOM      2  N   UNL     1      35.371 -19.585 -20.530  0.00  0.00    -0.291 N 
ATOM      3  N   UNL     1      36.460 -20.915 -18.995  0.00  0.00    -0.289 N 
ATOM      4  C   UNL     1      35.308 -20.747 -19.765  0.00  0.00    +0.301 C 
ATOM      5  H   UNL     1      36.175 -19.022 -20.461  0.00  0.00    +0.151 HD
ATOM      6  H   UNL     1      37.170 -20.236 -19.059  0.00  0.00    +0.151 HD
ENDROOT
BRANCH   2   7
ATOM      7  C   UNL     1      34.311 -19.166 -21.419  0.00  0.00    +0.073 C 
ATOM      8  C   UNL     1      33.854 -17.739 -21.098  0.00  0.00    +0.020 C 
ATOM      9  C   UNL     1      34.739 -19.295 -22.885  0.00  0.00    +0.020 C 
ATOM     10  C   UNL     1      34.888 -16.688 -21.504  0.00  0.00    +0.002 C 
ATOM     11  C   UNL     1      35.771 -18.242 -23.288  0.00  0.00    +0.002 C 
ATOM     12  C   UNL     1      35.289 -16.830 -22.968  0.00  0.00    +0.000 C 
ENDBRANCH   2   7
BRANCH   3  13
ATOM     13  C   UNL     1      36.658 -22.033 -18.113  0.00  0.00    +0.091 C 
BRANCH  13  14
ATOM     14  C   UNL     1      37.063 -21.576 -16.716  0.00  0.00    +0.021 C 
BRANCH  14  15
ATOM     15  C   UNL     1      37.658 -22.695 -15.859  0.00  0.00    +0.002 C 
BRANCH  15  16
ATOM     16  C   UNL     1      36.638 -23.764 -15.461  0.00  0.00    +0.012 C 
BRANCH  16  17
ATOM     17  C   UNL     1      37.264 -24.812 -14.541  0.00  0.00    +0.109 C 
BRANCH  17  19
ATOM     18  O   UNL     1      36.185 -26.617 -15.768  0.00  0.00    -0.250 OA
ATOM     19  C   UNL     1      37.125 -26.209 -15.100  0.00  0.00    +0.314 C 
BRANCH  19  20
ATOM     20  O   UNL     1      38.192 -26.984 -14.768  0.00  0.00    -0.480 OA
ATOM     21  H   UNL     1      39.057 -26.722 -15.014  0.00  0.00    +0.295 HD
ENDBRANCH  19  20
ENDBRANCH  17  19
ENDBRANCH  16  17
ENDBRANCH  15  16
ENDBRANCH  14  15
ENDBRANCH  13  14
ENDBRANCH   3  13
TORSDOF 8
ENDMDL
MODEL 7
REMARK VINA RESULT:      -6.8     14.327     16.243
REMARK  Name = 6420120
REMARK  8 active torsions:
REMARK  status: ('A' for Active; 'I' for Inactive)
REMARK    1  A    between atoms: N_2  and  C_7
REMARK    2  A    between atoms: N_3  and  C_13
REMARK    3  A    between atoms: C_13  and  C_14
REMARK    4  A    between atoms: C_14  and  C_15
REMARK    5  A    between atoms: C_15  and  C_16
REMARK    6  A    between atoms: C_16  and  C_17
REMARK    7  A    between atoms: C_17  and  C_19
REMARK    8  A    between atoms: C_19  and  O_20
REMARK                            x       y       z     vdW  Elec       q    Type
REMARK                         _______ _______ _______ _____ _____    ______ ____
ROOT
ATOM      1  O   UNL     1      33.348 -12.817 -25.296  0.00  0.00    -0.253 OA
ATOM      2  N   UNL     1      33.679 -13.253 -23.040  0.00  0.00    -0.291 N 
ATOM      3  N   UNL     1      34.540 -11.330 -23.972  0.00  0.00    -0.289 N 
ATOM      4  C   UNL     1      33.813 -12.498 -24.202  0.00  0.00    +0.301 C 
ATOM      5  H   UNL     1      34.087 -12.913 -22.211  0.00  0.00    +0.151 HD
ATOM      6  H   UNL     1      34.874 -11.156 -23.062  0.00  0.00    +0.151 HD
ENDROOT
BRANCH   2   7
ATOM      7  C   UNL     1      32.972 -14.513 -22.991  0.00  0.00    +0.073 C 
ATOM      8  C   UNL     1      33.842 -15.655 -23.528  0.00  0.00    +0.020 C 
ATOM      9  C   UNL     1      32.477 -14.812 -21.572  0.00  0.00    +0.020 C 
ATOM     10  C   UNL     1      34.978 -16.023 -22.574  0.00  0.00    +0.002 C 
ATOM     11  C   UNL     1      33.614 -15.182 -20.622  0.00  0.00    +0.002 C 
ATOM     12  C   UNL     1      34.459 -16.327 -21.173  0.00  0.00    +0.000 C 
ENDBRANCH   2   7
BRANCH   3  13
ATOM     13  C   UNL     1      34.825 -10.368 -25.002  0.00  0.00    +0.091 C 
BRANCH  13  14
ATOM     14  C   UNL     1      34.779  -8.942 -24.461  0.00  0.00    +0.021 C 
BRANCH  14  15
ATOM     15  C   UNL     1      33.555  -8.663 -23.588  0.00  0.00    +0.002 C 
BRANCH  15  16
ATOM     16  C   UNL     1      33.788  -7.564 -22.548  0.00  0.00    +0.012 C 
BRANCH  16  17
ATOM     17  C   UNL     1      32.521  -7.290 -21.738  0.00  0.00    +0.109 C 
BRANCH  17  19
ATOM     18  O   UNL     1      32.118  -9.049 -20.103  0.00  0.00    -0.250 OA
ATOM     19  C   UNL     1      32.569  -7.945 -20.376  0.00  0.00    +0.314 C 
BRANCH  19  20
ATOM     20  O   UNL     1      33.186  -7.148 -19.465  0.00  0.00    -0.480 OA
ATOM     21  H   UNL     1      32.753  -6.383 -19.141  0.00  0.00    +0.295 HD
ENDBRANCH  19  20
ENDBRANCH  17  19
ENDBRANCH  16  17
ENDBRANCH  15  16
ENDBRANCH  14  15
ENDBRANCH  13  14
ENDBRANCH   3  13
TORSDOF 8
ENDMDL
MODEL 8
REMARK VINA RESULT:      -6.8     12.832     15.079
REMARK  Name = 6420120
REMARK  8 active torsions:
REMARK  status: ('A' for Active; 'I' for Inactive)
REMARK    1  A    between atoms: N_2  and  C_7
REMARK    2  A    between atoms: N_3  and  C_13
REMARK    3  A    between atoms: C_13  and  C_14
REMARK    4  A    between atoms: C_14  and  C_15
REMARK    5  A    between atoms: C_15  and  C_16
REMARK    6  A    between atoms: C_16  and  C_17
REMARK    7  A    between atoms: C_17  and  C_19
REMARK    8  A    between atoms: C_19  and  O_20
REMARK                            x       y       z     vdW  Elec       q    Type
REMARK                         _______ _______ _______ _____ _____    ______ ____
ROOT
ATOM      1  O   UNL     1      34.373 -13.651 -23.426  0.00  0.00    -0.253 OA
ATOM      2  N   UNL     1      34.016 -15.862 -22.817  0.00  0.00    -0.291 N 
ATOM      3  N   UNL     1      32.499 -14.245 -22.193  0.00  0.00    -0.289 N 
ATOM      4  C   UNL     1      33.694 -14.508 -22.864  0.00  0.00    +0.301 C 
ATOM      5  H   UNL     1      33.407 -16.473 -22.342  0.00  0.00    +0.151 HD
ATOM      6  H   UNL     1      32.021 -14.995 -21.771  0.00  0.00    +0.151 HD
ENDROOT
BRANCH   2   7
ATOM      7  C   UNL     1      35.202 -16.415 -23.432  0.00  0.00    +0.073 C 
ATOM      8  C   UNL     1      35.693 -17.650 -22.670  0.00  0.00    +0.020 C 
ATOM      9  C   UNL     1      34.958 -16.736 -24.910  0.00  0.00    +0.020 C 
ATOM     10  C   UNL     1      34.781 -18.861 -22.865  0.00  0.00    +0.002 C 
ATOM     11  C   UNL     1      34.046 -17.948 -25.103  0.00  0.00    +0.002 C 
ATOM     12  C   UNL     1      34.562 -19.166 -24.343  0.00  0.00    +0.000 C 
ENDBRANCH   2   7
BRANCH   3  13
ATOM     13  C   UNL     1      31.934 -12.926 -22.087  0.00  0.00    +0.091 C 
BRANCH  13  14
ATOM     14  C   UNL     1      31.972 -12.416 -20.650  0.00  0.00    +0.021 C 
BRANCH  14  15
ATOM     15  C   UNL     1      31.011 -11.255 -20.392  0.00  0.00    +0.002 C 
BRANCH  15  16
ATOM     16  C   UNL     1      31.720  -9.942 -20.055  0.00  0.00    +0.012 C 
BRANCH  16  17
ATOM     17  C   UNL     1      32.097  -9.176 -21.323  0.00  0.00    +0.109 C 
BRANCH  17  19
ATOM     18  O   UNL     1      32.727  -6.871 -21.791  0.00  0.00    -0.250 OA
ATOM     19  C   UNL     1      32.663  -7.809 -21.009  0.00  0.00    +0.314 C 
BRANCH  19  20
ATOM     20  O   UNL     1      33.106  -7.739 -19.726  0.00  0.00    -0.480 OA
ATOM     21  H   UNL     1      32.849  -7.022 -19.180  0.00  0.00    +0.295 HD
ENDBRANCH  19  20
ENDBRANCH  17  19
ENDBRANCH  16  17
ENDBRANCH  15  16
ENDBRANCH  14  15
ENDBRANCH  13  14
ENDBRANCH   3  13
TORSDOF 8
ENDMDL
MODEL 9
REMARK VINA RESULT:      -6.8      7.792      9.249
REMARK  Name = 6420120
REMARK  8 active torsions:
REMARK  status: ('A' for Active; 'I' for Inactive)
REMARK    1  A    between atoms: N_2  and  C_7
REMARK    2  A    between atoms: N_3  and  C_13
REMARK    3  A    between atoms: C_13  and  C_14
REMARK    4  A    between atoms: C_14  and  C_15
REMARK    5  A    between atoms: C_15  and  C_16
REMARK    6  A    between atoms: C_16  and  C_17
REMARK    7  A    between atoms: C_17  and  C_19
REMARK    8  A    between atoms: C_19  and  O_20
REMARK                            x       y       z     vdW  Elec       q    Type
REMARK                         _______ _______ _______ _____ _____    ______ ____
ROOT
ATOM      1  O   UNL     1      35.778 -17.928 -20.565  0.00  0.00    -0.253 OA
ATOM      2  N   UNL     1      34.152 -16.903 -21.867  0.00  0.00    -0.291 N 
ATOM      3  N   UNL     1      33.979 -19.148 -21.378  0.00  0.00    -0.289 N 
ATOM      4  C   UNL     1      34.733 -17.985 -21.212  0.00  0.00    +0.301 C 
ATOM      5  H   UNL     1      33.312 -17.050 -22.359  0.00  0.00    +0.151 HD
ATOM      6  H   UNL     1      33.153 -19.100 -21.913  0.00  0.00    +0.151 HD
ENDROOT
BRANCH   2   7
ATOM      7  C   UNL     1      34.723 -15.575 -21.861  0.00  0.00    +0.073 C 
ATOM      8  C   UNL     1      34.375 -14.820 -23.148  0.00  0.00    +0.020 C 
ATOM      9  C   UNL     1      34.281 -14.791 -20.621  0.00  0.00    +0.020 C 
ATOM     10  C   UNL     1      32.904 -14.408 -23.206  0.00  0.00    +0.002 C 
ATOM     11  C   UNL     1      32.810 -14.379 -20.682  0.00  0.00    +0.002 C 
ATOM     12  C   UNL     1      32.491 -13.620 -21.967  0.00  0.00    +0.000 C 
ENDBRANCH   2   7
BRANCH   3  13
ATOM     13  C   UNL     1      34.352 -20.413 -20.804  0.00  0.00    +0.091 C 
BRANCH  13  14
ATOM     14  C   UNL     1      33.309 -20.900 -19.804  0.00  0.00    +0.021 C 
BRANCH  14  15
ATOM     15  C   UNL     1      33.550 -22.333 -19.324  0.00  0.00    +0.002 C 
BRANCH  15  16
ATOM     16  C   UNL     1      34.531 -22.425 -18.153  0.00  0.00    +0.012 C 
BRANCH  16  17
ATOM     17  C   UNL     1      33.896 -23.123 -16.951  0.00  0.00    +0.109 C 
BRANCH  17  19
ATOM     18  O   UNL     1      35.940 -23.969 -15.935  0.00  0.00    -0.250 OA
ATOM     19  C   UNL     1      34.892 -23.346 -15.837  0.00  0.00    +0.314 C 
BRANCH  19  20
ATOM     20  O   UNL     1      34.480 -22.763 -14.680  0.00  0.00    -0.480 OA
ATOM     21  H   UNL     1      34.987 -22.074 -14.296  0.00  0.00    +0.295 HD
ENDBRANCH  19  20
ENDBRANCH  17  19
ENDBRANCH  16  17
ENDBRANCH  15  16
ENDBRANCH  14  15
ENDBRANCH  13  14
ENDBRANCH   3  13
TORSDOF 8
ENDMDL
