MODEL 1
REMARK VINA RESULT:      -6.4      0.000      0.000
REMARK  Name = 3529580
REMARK  9 active torsions:
REMARK  status: ('A' for Active; 'I' for Inactive)
REMARK    1  A    between atoms: C_1  and  S_2
REMARK    2  A    between atoms: C_1  and  C_10
REMARK    3  A    between atoms: S_2  and  N_4
REMARK    4  A    between atoms: S_2  and  C_6
REMARK    5  A    between atoms: C_6  and  C_7
REMARK    6  A    between atoms: C_7  and  C_8
REMARK    7  A    between atoms: C_10  and  CA_11
REMARK    8  A    between atoms: CA_11  and  N_12
REMARK    9  A    between atoms: CA_11  and  C_18
REMARK                            x       y       z     vdW  Elec       q    Type
REMARK                         _______ _______ _______ _____ _____    ______ ____
ROOT
ATOM      1  C   UNL     1      37.148 -25.602 -12.407  0.00  0.00    +0.081 C 
ENDROOT
BRANCH   1   2
ATOM      2  S   UNL     1      36.282 -24.328 -11.540  0.00  0.00    -0.012 S 
ATOM      3  O   UNL     1      35.423 -24.984 -10.565  0.00  0.00    -0.156 OA
BRANCH   2   4
ATOM      4  N   UNL     1      37.319 -23.227 -11.208  0.00  0.00    -0.183 NA
ATOM      5  H   UNL     1      37.642 -23.118 -10.284  0.00  0.00    +0.156 HD
ENDBRANCH   2   4
BRANCH   2   6
ATOM      6  C   UNL     1      35.212 -23.657 -12.794  0.00  0.00    +0.083 C 
BRANCH   6   7
ATOM      7  C   UNL     1      35.171 -24.552 -14.023  0.00  0.00    +0.014 C 
BRANCH   7   8
ATOM      8  C   UNL     1      35.044 -23.728 -15.304  0.00  0.00    +0.001 C 
ATOM      9  C   UNL     1      36.357 -23.051 -15.662  0.00  0.00    +0.000 C 
ENDBRANCH   7   8
ENDBRANCH   6   7
ENDBRANCH   2   6
ENDBRANCH   1   2
BRANCH   1  10
ATOM     10  C   UNL     1      38.471 -25.087 -12.964  0.00  0.00    +0.003 C 
BRANCH  10  11
ATOM     11  CA  UNL     1      38.771 -25.543 -14.397  0.00  0.00    +0.041 C 
BRANCH  11  12
ATOM     12  N   UNL     1      38.208 -26.916 -14.591  0.00  0.00    +0.389 N 
ATOM     13  H1  UNL     1      38.610 -27.332 -15.431  0.00  0.00    -0.088 HD
ATOM     14  H2  UNL     1      37.195 -26.857 -14.694  0.00  0.00    -0.088 HD
ATOM     15  H3  UNL     1      38.435 -27.494 -13.782  0.00  0.00    -0.088 HD
ENDBRANCH  11  12
BRANCH  11  18
ATOM     16  O   UNL     1      40.939 -24.628 -14.127  0.00  0.00    -0.248 OA
ATOM     17  OXT UNL     1      40.584 -26.098 -15.833  0.00  0.00    -0.248 OA
ATOM     18  C   UNL     1      40.239 -25.405 -14.836  0.00  0.00    +0.345 C 
ENDBRANCH  11  18
ENDBRANCH  10  11
ENDBRANCH   1  10
TORSDOF 9
ENDMDL
MODEL 2
REMARK VINA RESULT:      -6.2      2.699      3.528
REMARK  Name = 3529580
REMARK  9 active torsions:
REMARK  status: ('A' for Active; 'I' for Inactive)
REMARK    1  A    between atoms: C_1  and  S_2
REMARK    2  A    between atoms: C_1  and  C_10
REMARK    3  A    between atoms: S_2  and  N_4
REMARK    4  A    between atoms: S_2  and  C_6
REMARK    5  A    between atoms: C_6  and  C_7
REMARK    6  A    between atoms: C_7  and  C_8
REMARK    7  A    between atoms: C_10  and  CA_11
REMARK    8  A    between atoms: CA_11  and  N_12
REMARK    9  A    between atoms: CA_11  and  C_18
REMARK                            x       y       z     vdW  Elec       q    Type
REMARK                         _______ _______ _______ _____ _____    ______ ____
ROOT
ATOM      1  C   UNL     1      36.681 -23.444 -14.392  0.00  0.00    +0.081 C 
ENDROOT
BRANCH   1   2
ATOM      2  S   UNL     1      35.298 -24.534 -14.536  0.00  0.00    -0.012 S 
ATOM      3  O   UNL     1      35.655 -25.547 -15.518  0.00  0.00    -0.156 OA
BRANCH   2   4
ATOM      4  N   UNL     1      34.805 -24.828 -13.098  0.00  0.00    -0.183 NA
ATOM      5  H   UNL     1      35.442 -25.140 -12.414  0.00  0.00    +0.156 HD
ENDBRANCH   2   4
BRANCH   2   6
ATOM      6  C   UNL     1      34.062 -23.501 -15.296  0.00  0.00    +0.083 C 
BRANCH   6   7
ATOM      7  C   UNL     1      34.477 -23.083 -16.698  0.00  0.00    +0.014 C 
BRANCH   7   8
ATOM      8  C   UNL     1      33.285 -23.094 -17.655  0.00  0.00    +0.001 C 
ATOM      9  C   UNL     1      33.531 -22.202 -18.861  0.00  0.00    +0.000 C 
ENDBRANCH   7   8
ENDBRANCH   6   7
ENDBRANCH   2   6
ENDBRANCH   1   2
BRANCH   1  10
ATOM     10  C   UNL     1      37.997 -24.206 -14.510  0.00  0.00    +0.003 C 
BRANCH  10  11
ATOM     11  CA  UNL     1      38.430 -24.920 -13.224  0.00  0.00    +0.041 C 
BRANCH  11  12
ATOM     12  N   UNL     1      37.863 -26.305 -13.229  0.00  0.00    +0.389 N 
ATOM     13  H1  UNL     1      38.427 -26.900 -13.837  0.00  0.00    -0.088 HD
ATOM     14  H2  UNL     1      36.904 -26.279 -13.575  0.00  0.00    -0.088 HD
ATOM     15  H3  UNL     1      37.873 -26.680 -12.281  0.00  0.00    -0.088 HD
ENDBRANCH  11  12
BRANCH  11  18
ATOM     16  O   UNL     1      37.263 -24.632 -11.182  0.00  0.00    -0.248 OA
ATOM     17  OXT UNL     1      38.889 -23.129 -11.727  0.00  0.00    -0.248 OA
ATOM     18  C   UNL     1      38.164 -24.145 -11.922  0.00  0.00    +0.345 C 
ENDBRANCH  11  18
ENDBRANCH  10  11
ENDBRANCH   1  10
TORSDOF 9
ENDMDL
MODEL 3
REMARK VINA RESULT:      -6.1      1.977      4.446
REMARK  Name = 3529580
REMARK  9 active torsions:
REMARK  status: ('A' for Active; 'I' for Inactive)
REMARK    1  A    between atoms: C_1  and  S_2
REMARK    2  A    between atoms: C_1  and  C_10
REMARK    3  A    between atoms: S_2  and  N_4
REMARK    4  A    between atoms: S_2  and  C_6
REMARK    5  A    between atoms: C_6  and  C_7
REMARK    6  A    between atoms: C_7  and  C_8
REMARK    7  A    between atoms: C_10  and  CA_11
REMARK    8  A    between atoms: CA_11  and  N_12
REMARK    9  A    between atoms: CA_11  and  C_18
REMARK                            x       y       z     vdW  Elec       q    Type
REMARK                         _______ _______ _______ _____ _____    ______ ____
ROOT
ATOM      1  C   UNL     1      37.380 -26.128 -12.777  0.00  0.00    +0.081 C 
ENDROOT
BRANCH   1   2
ATOM      2  S   UNL     1      37.553 -26.277 -14.529  0.00  0.00    -0.012 S 
ATOM      3  O   UNL     1      38.885 -26.806 -14.781  0.00  0.00    -0.156 OA
BRANCH   2   4
ATOM      4  N   UNL     1      36.238 -26.899 -15.058  0.00  0.00    -0.183 NA
ATOM      5  H   UNL     1      35.449 -26.957 -14.471  0.00  0.00    +0.156 HD
ENDBRANCH   2   4
BRANCH   2   6
ATOM      6  C   UNL     1      37.567 -24.581 -15.068  0.00  0.00    +0.083 C 
BRANCH   6   7
ATOM      7  C   UNL     1      36.171 -24.109 -15.446  0.00  0.00    +0.014 C 
BRANCH   7   8
ATOM      8  C   UNL     1      36.118 -22.588 -15.578  0.00  0.00    +0.001 C 
ATOM      9  C   UNL     1      37.267 -22.062 -16.424  0.00  0.00    +0.000 C 
ENDBRANCH   7   8
ENDBRANCH   6   7
ENDBRANCH   2   6
ENDBRANCH   1   2
BRANCH   1  10
ATOM     10  C   UNL     1      37.920 -24.789 -12.283  0.00  0.00    +0.003 C 
BRANCH  10  11
ATOM     11  CA  UNL     1      36.836 -23.790 -11.859  0.00  0.00    +0.041 C 
BRANCH  11  12
ATOM     12  N   UNL     1      37.500 -22.557 -11.333  0.00  0.00    +0.389 N 
ATOM     13  H1  UNL     1      38.269 -22.821 -10.716  0.00  0.00    -0.088 HD
ATOM     14  H2  UNL     1      36.822 -22.001 -10.811  0.00  0.00    -0.088 HD
ATOM     15  H3  UNL     1      37.863 -22.007 -12.112  0.00  0.00    -0.088 HD
ENDBRANCH  11  12
BRANCH  11  18
ATOM     16  O   UNL     1      36.000 -24.261  -9.692  0.00  0.00    -0.248 OA
ATOM     17  OXT UNL     1      34.726 -24.827 -11.497  0.00  0.00    -0.248 OA
ATOM     18  C   UNL     1      35.750 -24.357 -10.928  0.00  0.00    +0.345 C 
ENDBRANCH  11  18
ENDBRANCH  10  11
ENDBRANCH   1  10
TORSDOF 9
ENDMDL
MODEL 4
REMARK VINA RESULT:      -6.1      2.767      3.718
REMARK  Name = 3529580
REMARK  9 active torsions:
REMARK  status: ('A' for Active; 'I' for Inactive)
REMARK    1  A    between atoms: C_1  and  S_2
REMARK    2  A    between atoms: C_1  and  C_10
REMARK    3  A    between atoms: S_2  and  N_4
REMARK    4  A    between atoms: S_2  and  C_6
REMARK    5  A    between atoms: C_6  and  C_7
REMARK    6  A    between atoms: C_7  and  C_8
REMARK    7  A    between atoms: C_10  and  CA_11
REMARK    8  A    between atoms: CA_11  and  N_12
REMARK    9  A    between atoms: CA_11  and  C_18
REMARK                            x       y       z     vdW  Elec       q    Type
REMARK                         _______ _______ _______ _____ _____    ______ ____
ROOT
ATOM      1  C   UNL     1      36.860 -23.592 -14.543  0.00  0.00    +0.081 C 
ENDROOT
BRANCH   1   2
ATOM      2  S   UNL     1      35.449 -24.638 -14.737  0.00  0.00    -0.012 S 
ATOM      3  O   UNL     1      35.855 -25.746 -15.589  0.00  0.00    -0.156 OA
BRANCH   2   4
ATOM      4  N   UNL     1      34.804 -24.786 -13.337  0.00  0.00    -0.183 NA
ATOM      5  H   UNL     1      35.362 -25.017 -12.560  0.00  0.00    +0.156 HD
ENDBRANCH   2   4
BRANCH   2   6
ATOM      6  C   UNL     1      34.344 -23.631 -15.703  0.00  0.00    +0.083 C 
BRANCH   6   7
ATOM      7  C   UNL     1      33.070 -23.314 -14.934  0.00  0.00    +0.014 C 
BRANCH   7   8
ATOM      8  C   UNL     1      31.856 -23.286 -15.862  0.00  0.00    +0.001 C 
ATOM      9  C   UNL     1      30.591 -22.900 -15.111  0.00  0.00    +0.000 C 
ENDBRANCH   7   8
ENDBRANCH   6   7
ENDBRANCH   2   6
ENDBRANCH   1   2
BRANCH   1  10
ATOM     10  C   UNL     1      38.145 -24.410 -14.473  0.00  0.00    +0.003 C 
BRANCH  10  11
ATOM     11  CA  UNL     1      38.415 -25.045 -13.104  0.00  0.00    +0.041 C 
BRANCH  11  12
ATOM     12  N   UNL     1      37.753 -26.387 -13.059  0.00  0.00    +0.389 N 
ATOM     13  H1  UNL     1      38.425 -27.106 -13.327  0.00  0.00    -0.088 HD
ATOM     14  H2  UNL     1      36.966 -26.400 -13.707  0.00  0.00    -0.088 HD
ATOM     15  H3  UNL     1      37.418 -26.569 -12.113  0.00  0.00    -0.088 HD
ENDBRANCH  11  12
BRANCH  11  18
ATOM     16  O   UNL     1      37.118 -24.537 -11.187  0.00  0.00    -0.248 OA
ATOM     17  OXT UNL     1      38.854 -23.159 -11.723  0.00  0.00    -0.248 OA
ATOM     18  C   UNL     1      38.094 -24.153 -11.892  0.00  0.00    +0.345 C 
ENDBRANCH  11  18
ENDBRANCH  10  11
ENDBRANCH   1  10
TORSDOF 9
ENDMDL
MODEL 5
REMARK VINA RESULT:      -6.0      2.347      2.734
REMARK  Name = 3529580
REMARK  9 active torsions:
REMARK  status: ('A' for Active; 'I' for Inactive)
REMARK    1  A    between atoms: C_1  and  S_2
REMARK    2  A    between atoms: C_1  and  C_10
REMARK    3  A    between atoms: S_2  and  N_4
REMARK    4  A    between atoms: S_2  and  C_6
REMARK    5  A    between atoms: C_6  and  C_7
REMARK    6  A    between atoms: C_7  and  C_8
REMARK    7  A    between atoms: C_10  and  CA_11
REMARK    8  A    between atoms: CA_11  and  N_12
REMARK    9  A    between atoms: CA_11  and  C_18
REMARK                            x       y       z     vdW  Elec       q    Type
REMARK                         _______ _______ _______ _____ _____    ______ ____
ROOT
ATOM      1  C   UNL     1      37.056 -24.052 -14.966  0.00  0.00    +0.081 C 
ENDROOT
BRANCH   1   2
ATOM      2  S   UNL     1      35.653 -25.081 -14.657  0.00  0.00    -0.012 S 
ATOM      3  O   UNL     1      35.650 -26.116 -15.681  0.00  0.00    -0.156 OA
BRANCH   2   4
ATOM      4  N   UNL     1      35.616 -25.345 -13.132  0.00  0.00    -0.183 NA
ATOM      5  H   UNL     1      35.150 -26.138 -12.780  0.00  0.00    +0.156 HD
ENDBRANCH   2   4
BRANCH   2   6
ATOM      6  C   UNL     1      34.286 -24.001 -15.020  0.00  0.00    +0.083 C 
BRANCH   6   7
ATOM      7  C   UNL     1      34.558 -23.161 -16.259  0.00  0.00    +0.014 C 
BRANCH   7   8
ATOM      8  C   UNL     1      33.407 -23.261 -17.260  0.00  0.00    +0.001 C 
ATOM      9  C   UNL     1      33.765 -22.608 -18.585  0.00  0.00    +0.000 C 
ENDBRANCH   7   8
ENDBRANCH   6   7
ENDBRANCH   2   6
ENDBRANCH   1   2
BRANCH   1  10
ATOM     10  C   UNL     1      38.250 -24.482 -14.120  0.00  0.00    +0.003 C 
BRANCH  10  11
ATOM     11  CA  UNL     1      39.013 -25.691 -14.675  0.00  0.00    +0.041 C 
BRANCH  11  12
ATOM     12  N   UNL     1      38.322 -26.941 -14.227  0.00  0.00    +0.389 N 
ATOM     13  H1  UNL     1      38.695 -27.739 -14.742  0.00  0.00    -0.088 HD
ATOM     14  H2  UNL     1      37.321 -26.860 -14.405  0.00  0.00    -0.088 HD
ATOM     15  H3  UNL     1      38.480 -27.077 -13.228  0.00  0.00    -0.088 HD
ENDBRANCH  11  12
BRANCH  11  18
ATOM     16  O   UNL     1      41.002 -26.787 -14.003  0.00  0.00    -0.248 OA
ATOM     17  OXT UNL     1      41.129 -24.606 -14.655  0.00  0.00    -0.248 OA
ATOM     18  C   UNL     1      40.528 -25.689 -14.411  0.00  0.00    +0.345 C 
ENDBRANCH  11  18
ENDBRANCH  10  11
ENDBRANCH   1  10
TORSDOF 9
ENDMDL
MODEL 6
REMARK VINA RESULT:      -6.0      8.846     10.244
REMARK  Name = 3529580
REMARK  9 active torsions:
REMARK  status: ('A' for Active; 'I' for Inactive)
REMARK    1  A    between atoms: C_1  and  S_2
REMARK    2  A    between atoms: C_1  and  C_10
REMARK    3  A    between atoms: S_2  and  N_4
REMARK    4  A    between atoms: S_2  and  C_6
REMARK    5  A    between atoms: C_6  and  C_7
REMARK    6  A    between atoms: C_7  and  C_8
REMARK    7  A    between atoms: C_10  and  CA_11
REMARK    8  A    between atoms: CA_11  and  N_12
REMARK    9  A    between atoms: CA_11  and  C_18
REMARK                            x       y       z     vdW  Elec       q    Type
REMARK                         _______ _______ _______ _____ _____    ______ ____
ROOT
ATOM      1  C   UNL     1      34.056 -19.778 -21.505  0.00  0.00    +0.081 C 
ENDROOT
BRANCH   1   2
ATOM      2  S   UNL     1      35.173 -18.411 -21.420  0.00  0.00    -0.012 S 
ATOM      3  O   UNL     1      34.381 -17.234 -21.094  0.00  0.00    -0.156 OA
BRANCH   2   4
ATOM      4  N   UNL     1      36.411 -18.893 -20.625  0.00  0.00    -0.183 NA
ATOM      5  H   UNL     1      37.161 -18.276 -20.461  0.00  0.00    +0.156 HD
ENDBRANCH   2   4
BRANCH   2   6
ATOM      6  C   UNL     1      35.694 -18.223 -23.111  0.00  0.00    +0.083 C 
BRANCH   6   7
ATOM      7  C   UNL     1      34.938 -19.170 -24.031  0.00  0.00    +0.014 C 
BRANCH   7   8
ATOM      8  C   UNL     1      34.195 -18.404 -25.125  0.00  0.00    +0.001 C 
ATOM      9  C   UNL     1      34.569 -16.930 -25.124  0.00  0.00    +0.000 C 
ENDBRANCH   7   8
ENDBRANCH   6   7
ENDBRANCH   2   6
ENDBRANCH   1   2
BRANCH   1  10
ATOM     10  C   UNL     1      33.567 -20.177 -20.117  0.00  0.00    +0.003 C 
BRANCH  10  11
ATOM     11  CA  UNL     1      33.824 -21.645 -19.756  0.00  0.00    +0.041 C 
BRANCH  11  12
ATOM     12  N   UNL     1      32.694 -22.135 -18.905  0.00  0.00    +0.389 N 
ATOM     13  H1  UNL     1      32.111 -21.345 -18.628  0.00  0.00    -0.088 HD
ATOM     14  H2  UNL     1      33.067 -22.590 -18.073  0.00  0.00    -0.088 HD
ATOM     15  H3  UNL     1      32.133 -22.802 -19.435  0.00  0.00    -0.088 HD
ENDBRANCH  11  12
BRANCH  11  18
ATOM     16  O   UNL     1      36.186 -21.661 -19.931  0.00  0.00    -0.248 OA
ATOM     17  OXT UNL     1      35.234 -22.411 -18.000  0.00  0.00    -0.248 OA
ATOM     18  C   UNL     1      35.216 -21.944 -19.173  0.00  0.00    +0.345 C 
ENDBRANCH  11  18
ENDBRANCH  10  11
ENDBRANCH   1  10
TORSDOF 9
ENDMDL
MODEL 7
REMARK VINA RESULT:      -6.0      9.339     10.872
REMARK  Name = 3529580
REMARK  9 active torsions:
REMARK  status: ('A' for Active; 'I' for Inactive)
REMARK    1  A    between atoms: C_1  and  S_2
REMARK    2  A    between atoms: C_1  and  C_10
REMARK    3  A    between atoms: S_2  and  N_4
REMARK    4  A    between atoms: S_2  and  C_6
REMARK    5  A    between atoms: C_6  and  C_7
REMARK    6  A    between atoms: C_7  and  C_8
REMARK    7  A    between atoms: C_10  and  CA_11
REMARK    8  A    between atoms: CA_11  and  N_12
REMARK    9  A    between atoms: CA_11  and  C_18
REMARK                            x       y       z     vdW  Elec       q    Type
REMARK                         _______ _______ _______ _____ _____    ______ ____
ROOT
ATOM      1  C   UNL     1      34.443 -19.342 -22.319  0.00  0.00    +0.081 C 
ENDROOT
BRANCH   1   2
ATOM      2  S   UNL     1      35.587 -18.019 -22.567  0.00  0.00    -0.012 S 
ATOM      3  O   UNL     1      36.848 -18.429 -21.966  0.00  0.00    -0.156 OA
BRANCH   2   4
ATOM      4  N   UNL     1      35.416 -17.546 -24.031  0.00  0.00    -0.183 NA
ATOM      5  H   UNL     1      36.115 -17.743 -24.697  0.00  0.00    +0.156 HD
ENDBRANCH   2   4
BRANCH   2   6
ATOM      6  C   UNL     1      34.926 -16.729 -21.535  0.00  0.00    +0.083 C 
BRANCH   6   7
ATOM      7  C   UNL     1      34.558 -15.500 -22.353  0.00  0.00    +0.014 C 
BRANCH   7   8
ATOM      8  C   UNL     1      33.107 -15.086 -22.108  0.00  0.00    +0.001 C 
ATOM      9  C   UNL     1      32.661 -15.429 -20.696  0.00  0.00    +0.000 C 
ENDBRANCH   7   8
ENDBRANCH   6   7
ENDBRANCH   2   6
ENDBRANCH   1   2
BRANCH   1  10
ATOM     10  C   UNL     1      33.977 -19.401 -20.868  0.00  0.00    +0.003 C 
BRANCH  10  11
ATOM     11  CA  UNL     1      33.882 -20.820 -20.293  0.00  0.00    +0.041 C 
BRANCH  11  12
ATOM     12  N   UNL     1      32.648 -20.916 -19.453  0.00  0.00    +0.389 N 
ATOM     13  H1  UNL     1      32.720 -21.723 -18.833  0.00  0.00    -0.088 HD
ATOM     14  H2  UNL     1      31.833 -21.024 -20.056  0.00  0.00    -0.088 HD
ATOM     15  H3  UNL     1      32.548 -20.067 -18.896  0.00  0.00    -0.088 HD
ENDBRANCH  11  12
BRANCH  11  18
ATOM     16  O   UNL     1      36.076 -20.476 -19.468  0.00  0.00    -0.248 OA
ATOM     17  OXT UNL     1      35.122 -22.528 -19.197  0.00  0.00    -0.248 OA
ATOM     18  C   UNL     1      35.153 -21.330 -19.592  0.00  0.00    +0.345 C 
ENDBRANCH  11  18
ENDBRANCH  10  11
ENDBRANCH   1  10
TORSDOF 9
ENDMDL
MODEL 8
REMARK VINA RESULT:      -5.9     11.559     13.197
REMARK  Name = 3529580
REMARK  9 active torsions:
REMARK  status: ('A' for Active; 'I' for Inactive)
REMARK    1  A    between atoms: C_1  and  S_2
REMARK    2  A    between atoms: C_1  and  C_10
REMARK    3  A    between atoms: S_2  and  N_4
REMARK    4  A    between atoms: S_2  and  C_6
REMARK    5  A    between atoms: C_6  and  C_7
REMARK    6  A    between atoms: C_7  and  C_8
REMARK    7  A    between atoms: C_10  and  CA_11
REMARK    8  A    between atoms: CA_11  and  N_12
REMARK    9  A    between atoms: CA_11  and  C_18
REMARK                            x       y       z     vdW  Elec       q    Type
REMARK                         _______ _______ _______ _____ _____    ______ ____
ROOT
ATOM      1  C   UNL     1      34.783 -16.661 -23.855  0.00  0.00    +0.081 C 
ENDROOT
BRANCH   1   2
ATOM      2  S   UNL     1      35.211 -18.226 -23.155  0.00  0.00    -0.012 S 
ATOM      3  O   UNL     1      34.703 -19.250 -24.057  0.00  0.00    -0.156 OA
BRANCH   2   4
ATOM      4  N   UNL     1      36.679 -18.117 -22.676  0.00  0.00    -0.183 NA
ATOM      5  H   UNL     1      37.416 -18.189 -23.326  0.00  0.00    +0.156 HD
ENDBRANCH   2   4
BRANCH   2   6
ATOM      6  C   UNL     1      34.201 -18.291 -21.690  0.00  0.00    +0.083 C 
BRANCH   6   7
ATOM      7  C   UNL     1      34.421 -19.586 -20.924  0.00  0.00    +0.014 C 
BRANCH   7   8
ATOM      8  C   UNL     1      33.096 -20.177 -20.443  0.00  0.00    +0.001 C 
ATOM      9  C   UNL     1      33.318 -21.364 -19.520  0.00  0.00    +0.000 C 
ENDBRANCH   7   8
ENDBRANCH   6   7
ENDBRANCH   2   6
ENDBRANCH   1   2
BRANCH   1  10
ATOM     10  C   UNL     1      34.622 -15.600 -22.772  0.00  0.00    +0.003 C 
BRANCH  10  11
ATOM     11  CA  UNL     1      33.542 -14.553 -23.071  0.00  0.00    +0.041 C 
BRANCH  11  12
ATOM     12  N   UNL     1      34.210 -13.282 -23.494  0.00  0.00    +0.389 N 
ATOM     13  H1  UNL     1      33.713 -12.887 -24.293  0.00  0.00    -0.088 HD
ATOM     14  H2  UNL     1      35.175 -13.476 -23.758  0.00  0.00    -0.088 HD
ATOM     15  H3  UNL     1      34.196 -12.617 -22.721  0.00  0.00    -0.088 HD
ENDBRANCH  11  12
BRANCH  11  18
ATOM     16  O   UNL     1      32.054 -13.184 -21.836  0.00  0.00    -0.248 OA
ATOM     17  OXT UNL     1      32.157 -15.405 -21.335  0.00  0.00    -0.248 OA
ATOM     18  C   UNL     1      32.488 -14.363 -21.966  0.00  0.00    +0.345 C 
ENDBRANCH  11  18
ENDBRANCH  10  11
ENDBRANCH   1  10
TORSDOF 9
ENDMDL
MODEL 9
REMARK VINA RESULT:      -5.9      1.829      2.113
REMARK  Name = 3529580
REMARK  9 active torsions:
REMARK  status: ('A' for Active; 'I' for Inactive)
REMARK    1  A    between atoms: C_1  and  S_2
REMARK    2  A    between atoms: C_1  and  C_10
REMARK    3  A    between atoms: S_2  and  N_4
REMARK    4  A    between atoms: S_2  and  C_6
REMARK    5  A    between atoms: C_6  and  C_7
REMARK    6  A    between atoms: C_7  and  C_8
REMARK    7  A    between atoms: C_10  and  CA_11
REMARK    8  A    between atoms: CA_11  and  N_12
REMARK    9  A    between atoms: CA_11  and  C_18
REMARK                            x       y       z     vdW  Elec       q    Type
REMARK                         _______ _______ _______ _____ _____    ______ ____
ROOT
ATOM      1  C   UNL     1      37.384 -25.426 -12.333  0.00  0.00    +0.081 C 
ENDROOT
BRANCH   1   2
ATOM      2  S   UNL     1      36.324 -24.247 -11.553  0.00  0.00    -0.012 S 
ATOM      3  O   UNL     1      35.348 -24.999 -10.778  0.00  0.00    -0.156 OA
BRANCH   2   4
ATOM      4  N   UNL     1      37.234 -23.130 -10.987  0.00  0.00    -0.183 NA
ATOM      5  H   UNL     1      38.126 -22.977 -11.376  0.00  0.00    +0.156 HD
ENDBRANCH   2   4
BRANCH   2   6
ATOM      6  C   UNL     1      35.444 -23.538 -12.929  0.00  0.00    +0.083 C 
BRANCH   6   7
ATOM      7  C   UNL     1      34.237 -24.382 -13.307  0.00  0.00    +0.014 C 
BRANCH   7   8
ATOM      8  C   UNL     1      33.410 -23.707 -14.401  0.00  0.00    +0.001 C 
ATOM      9  C   UNL     1      34.280 -23.286 -15.575  0.00  0.00    +0.000 C 
ENDBRANCH   7   8
ENDBRANCH   6   7
ENDBRANCH   2   6
ENDBRANCH   1   2
BRANCH   1  10
ATOM     10  C   UNL     1      38.436 -24.735 -13.194  0.00  0.00    +0.003 C 
BRANCH  10  11
ATOM     11  CA  UNL     1      38.363 -25.088 -14.684  0.00  0.00    +0.041 C 
BRANCH  11  12
ATOM     12  N   UNL     1      37.947 -23.869 -15.446  0.00  0.00    +0.389 N 
ATOM     13  H1  UNL     1      37.939 -24.078 -16.445  0.00  0.00    -0.088 HD
ATOM     14  H2  UNL     1      38.606 -23.112 -15.264  0.00  0.00    -0.088 HD
ATOM     15  H3  UNL     1      37.013 -23.585 -15.151  0.00  0.00    -0.088 HD
ENDBRANCH  11  12
BRANCH  11  18
ATOM     16  O   UNL     1      38.101 -27.442 -14.748  0.00  0.00    -0.248 OA
ATOM     17  OXT UNL     1      36.392 -26.136 -15.507  0.00  0.00    -0.248 OA
ATOM     18  C   UNL     1      37.540 -26.343 -15.022  0.00  0.00    +0.345 C 
ENDBRANCH  11  18
ENDBRANCH  10  11
ENDBRANCH   1  10
TORSDOF 9
ENDMDL
