MODEL 1
REMARK VINA RESULT:      -8.1      0.000      0.000
REMARK  Name = 446980
REMARK  9 active torsions:
REMARK  status: ('A' for Active; 'I' for Inactive)
REMARK    1  A    between atoms: O_1  and  C_3
REMARK    2  A    between atoms: O_1  and  P_12
REMARK    3  A    between atoms: C_2  and  C_9
REMARK    4  A    between atoms: P_12  and  O_14
REMARK    5  A    between atoms: P_12  and  C_16
REMARK    6  A    between atoms: C_16  and  C_17
REMARK    7  A    between atoms: C_17  and  C_18
REMARK    8  A    between atoms: C_18  and  C_19
REMARK    9  A    between atoms: C_19  and  C_20
REMARK                            x       y       z     vdW  Elec       q    Type
REMARK                         _______ _______ _______ _____ _____    ______ ____
ROOT
ATOM      1  O   UNL     1      34.457 -22.697 -17.379  0.00  0.00    -0.297 OA
ENDROOT
BRANCH   1   3
ATOM      2  C   UNL     1      34.259 -23.361 -15.062  0.00  0.00    +0.028 C 
ATOM      3  C   UNL     1      33.691 -23.501 -16.485  0.00  0.00    +0.124 C 
ATOM      4  C   UNL     1      33.379 -24.104 -14.049  0.00  0.00    +0.002 C 
ATOM      5  C   UNL     1      31.355 -23.803 -15.540  0.00  0.00    +0.002 C 
ATOM      6  C   UNL     1      32.228 -23.056 -16.553  0.00  0.00    +0.030 C 
ATOM      7  C   UNL     1      31.921 -23.653 -14.123  0.00  0.00    +0.000 C 
ATOM      8  C   UNL     1      29.912 -23.307 -15.600  0.00  0.00    +0.000 C 
BRANCH   2   9
ATOM      9  C   UNL     1      35.701 -23.869 -14.985  0.00  0.00    +0.002 C 
ATOM     10  C   UNL     1      36.361 -23.405 -13.690  0.00  0.00    +0.000 C 
ATOM     11  C   UNL     1      35.738 -25.390 -15.096  0.00  0.00    +0.000 C 
ENDBRANCH   2   9
ENDBRANCH   1   3
BRANCH   1  12
ATOM     12  P   UNL     1      34.007 -22.519 -18.917  0.00  0.00    +0.340 P 
ATOM     13  O   UNL     1      32.707 -21.790 -19.093  0.00  0.00    -0.258 OA
BRANCH  12  14
ATOM     14  O   UNL     1      34.006 -24.022 -19.514  0.00  0.00    -0.323 OA
ATOM     15  H   UNL     1      33.999 -24.660 -18.784  0.00  0.00    +0.220 HD
ENDBRANCH  12  14
BRANCH  12  16
ATOM     16  C   UNL     1      35.383 -21.740 -19.738  0.00  0.00    +0.116 C 
BRANCH  16  17
ATOM     17  C   UNL     1      35.027 -20.421 -20.410  0.00  0.00    +0.013 C 
BRANCH  17  18
ATOM     18  C   UNL     1      36.265 -19.583 -20.732  0.00  0.00    +0.001 C 
BRANCH  18  19
ATOM     19  C   UNL     1      35.958 -18.525 -21.794  0.00  0.00    +0.000 C 
BRANCH  19  20
ATOM     20  C   UNL     1      34.674 -18.858 -22.556  0.00  0.00    +0.000 C 
ATOM     21  C   UNL     1      34.942 -19.050 -24.040  0.00  0.00    +0.000 C 
ENDBRANCH  19  20
ENDBRANCH  18  19
ENDBRANCH  17  18
ENDBRANCH  16  17
ENDBRANCH  12  16
ENDBRANCH   1  12
TORSDOF 9
ENDMDL
MODEL 2
REMARK VINA RESULT:      -8.0      6.194     10.791
REMARK  Name = 446980
REMARK  9 active torsions:
REMARK  status: ('A' for Active; 'I' for Inactive)
REMARK    1  A    between atoms: O_1  and  C_3
REMARK    2  A    between atoms: O_1  and  P_12
REMARK    3  A    between atoms: C_2  and  C_9
REMARK    4  A    between atoms: P_12  and  O_14
REMARK    5  A    between atoms: P_12  and  C_16
REMARK    6  A    between atoms: C_16  and  C_17
REMARK    7  A    between atoms: C_17  and  C_18
REMARK    8  A    between atoms: C_18  and  C_19
REMARK    9  A    between atoms: C_19  and  C_20
REMARK                            x       y       z     vdW  Elec       q    Type
REMARK                         _______ _______ _______ _____ _____    ______ ____
ROOT
ATOM      1  O   UNL     1      32.990 -14.783 -21.890  0.00  0.00    -0.297 OA
ENDROOT
BRANCH   1   3
ATOM      2  C   UNL     1      32.557 -12.745 -23.118  0.00  0.00    +0.028 C 
ATOM      3  C   UNL     1      32.997 -13.362 -21.780  0.00  0.00    +0.124 C 
ATOM      4  C   UNL     1      32.422 -11.222 -22.998  0.00  0.00    +0.002 C 
ATOM      5  C   UNL     1      31.936 -11.430 -20.523  0.00  0.00    +0.002 C 
ATOM      6  C   UNL     1      32.064 -12.952 -20.638  0.00  0.00    +0.030 C 
ATOM      7  C   UNL     1      31.489 -10.823 -21.857  0.00  0.00    +0.000 C 
ATOM      8  C   UNL     1      30.965 -11.053 -19.406  0.00  0.00    +0.000 C 
BRANCH   2   9
ATOM      9  C   UNL     1      33.530 -13.104 -24.244  0.00  0.00    +0.002 C 
ATOM     10  C   UNL     1      32.887 -14.096 -25.209  0.00  0.00    +0.000 C 
ATOM     11  C   UNL     1      33.980 -11.848 -24.982  0.00  0.00    +0.000 C 
ENDBRANCH   2   9
ENDBRANCH   1   3
BRANCH   1  12
ATOM     12  P   UNL     1      34.282 -15.649 -21.466  0.00  0.00    +0.340 P 
ATOM     13  O   UNL     1      34.972 -15.151 -20.230  0.00  0.00    -0.258 OA
BRANCH  12  14
ATOM     14  O   UNL     1      35.216 -15.654 -22.786  0.00  0.00    -0.323 OA
ATOM     15  H   UNL     1      34.960 -14.920 -23.366  0.00  0.00    +0.220 HD
ENDBRANCH  12  14
BRANCH  12  16
ATOM     16  C   UNL     1      33.718 -17.334 -21.342  0.00  0.00    +0.116 C 
BRANCH  16  17
ATOM     17  C   UNL     1      34.840 -18.341 -21.134  0.00  0.00    +0.013 C 
BRANCH  17  18
ATOM     18  C   UNL     1      34.375 -19.781 -21.358  0.00  0.00    +0.001 C 
BRANCH  18  19
ATOM     19  C   UNL     1      33.152 -20.109 -20.500  0.00  0.00    +0.000 C 
BRANCH  19  20
ATOM     20  C   UNL     1      33.426 -21.292 -19.570  0.00  0.00    +0.000 C 
ATOM     21  C   UNL     1      34.914 -21.590 -19.473  0.00  0.00    +0.000 C 
ENDBRANCH  19  20
ENDBRANCH  18  19
ENDBRANCH  17  18
ENDBRANCH  16  17
ENDBRANCH  12  16
ENDBRANCH   1  12
TORSDOF 9
ENDMDL
MODEL 3
REMARK VINA RESULT:      -7.9      7.159     10.737
REMARK  Name = 446980
REMARK  9 active torsions:
REMARK  status: ('A' for Active; 'I' for Inactive)
REMARK    1  A    between atoms: O_1  and  C_3
REMARK    2  A    between atoms: O_1  and  P_12
REMARK    3  A    between atoms: C_2  and  C_9
REMARK    4  A    between atoms: P_12  and  O_14
REMARK    5  A    between atoms: P_12  and  C_16
REMARK    6  A    between atoms: C_16  and  C_17
REMARK    7  A    between atoms: C_17  and  C_18
REMARK    8  A    between atoms: C_18  and  C_19
REMARK    9  A    between atoms: C_19  and  C_20
REMARK                            x       y       z     vdW  Elec       q    Type
REMARK                         _______ _______ _______ _____ _____    ______ ____
ROOT
ATOM      1  O   UNL     1      32.960 -14.674 -21.796  0.00  0.00    -0.297 OA
ENDROOT
BRANCH   1   3
ATOM      2  C   UNL     1      32.540 -12.641 -23.037  0.00  0.00    +0.028 C 
ATOM      3  C   UNL     1      32.968 -13.253 -21.692  0.00  0.00    +0.124 C 
ATOM      4  C   UNL     1      32.406 -11.118 -22.925  0.00  0.00    +0.002 C 
ATOM      5  C   UNL     1      31.898 -11.314 -20.453  0.00  0.00    +0.002 C 
ATOM      6  C   UNL     1      32.026 -12.837 -20.560  0.00  0.00    +0.030 C 
ATOM      7  C   UNL     1      31.463 -10.712 -21.793  0.00  0.00    +0.000 C 
ATOM      8  C   UNL     1      30.917 -10.931 -19.346  0.00  0.00    +0.000 C 
BRANCH   2   9
ATOM      9  C   UNL     1      33.523 -13.007 -24.152  0.00  0.00    +0.002 C 
ATOM     10  C   UNL     1      32.899 -14.026 -25.100  0.00  0.00    +0.000 C 
ATOM     11  C   UNL     1      33.956 -11.757 -24.913  0.00  0.00    +0.000 C 
ENDBRANCH   2   9
ENDBRANCH   1   3
BRANCH   1  12
ATOM     12  P   UNL     1      34.256 -15.538 -21.381  0.00  0.00    +0.340 P 
ATOM     13  O   UNL     1      34.946 -15.048 -20.141  0.00  0.00    -0.258 OA
BRANCH  12  14
ATOM     14  O   UNL     1      35.189 -15.528 -22.702  0.00  0.00    -0.323 OA
ATOM     15  H   UNL     1      35.665 -16.371 -22.768  0.00  0.00    +0.220 HD
ENDBRANCH  12  14
BRANCH  12  16
ATOM     16  C   UNL     1      33.699 -17.227 -21.270  0.00  0.00    +0.116 C 
BRANCH  16  17
ATOM     17  C   UNL     1      34.833 -18.242 -21.217  0.00  0.00    +0.013 C 
BRANCH  17  18
ATOM     18  C   UNL     1      34.680 -19.335 -22.276  0.00  0.00    +0.001 C 
BRANCH  18  19
ATOM     19  C   UNL     1      35.391 -18.951 -23.575  0.00  0.00    +0.000 C 
BRANCH  19  20
ATOM     20  C   UNL     1      34.412 -18.892 -24.748  0.00  0.00    +0.000 C 
ATOM     21  C   UNL     1      34.293 -17.481 -25.303  0.00  0.00    +0.000 C 
ENDBRANCH  19  20
ENDBRANCH  18  19
ENDBRANCH  17  18
ENDBRANCH  16  17
ENDBRANCH  12  16
ENDBRANCH   1  12
TORSDOF 9
ENDMDL
MODEL 4
REMARK VINA RESULT:      -7.8      9.685     13.465
REMARK  Name = 446980
REMARK  9 active torsions:
REMARK  status: ('A' for Active; 'I' for Inactive)
REMARK    1  A    between atoms: O_1  and  C_3
REMARK    2  A    between atoms: O_1  and  P_12
REMARK    3  A    between atoms: C_2  and  C_9
REMARK    4  A    between atoms: P_12  and  O_14
REMARK    5  A    between atoms: P_12  and  C_16
REMARK    6  A    between atoms: C_16  and  C_17
REMARK    7  A    between atoms: C_17  and  C_18
REMARK    8  A    between atoms: C_18  and  C_19
REMARK    9  A    between atoms: C_19  and  C_20
REMARK                            x       y       z     vdW  Elec       q    Type
REMARK                         _______ _______ _______ _____ _____    ______ ____
ROOT
ATOM      1  O   UNL     1      32.887 -10.965 -22.720  0.00  0.00    -0.297 OA
ENDROOT
BRANCH   1   3
ATOM      2  C   UNL     1      33.727 -12.738 -24.134  0.00  0.00    +0.028 C 
ATOM      3  C   UNL     1      32.672 -12.323 -23.095  0.00  0.00    +0.124 C 
ATOM      4  C   UNL     1      33.613 -14.232 -24.460  0.00  0.00    +0.002 C 
ATOM      5  C   UNL     1      32.626 -14.688 -22.174  0.00  0.00    +0.002 C 
ATOM      6  C   UNL     1      32.744 -13.197 -21.840  0.00  0.00    +0.030 C 
ATOM      7  C   UNL     1      33.686 -15.096 -23.203  0.00  0.00    +0.000 C 
ATOM      8  C   UNL     1      32.747 -15.535 -20.909  0.00  0.00    +0.000 C 
BRANCH   2   9
ATOM      9  C   UNL     1      33.608 -11.905 -25.412  0.00  0.00    +0.002 C 
ATOM     10  C   UNL     1      34.824 -10.998 -25.574  0.00  0.00    +0.000 C 
ATOM     11  C   UNL     1      33.446 -12.812 -26.628  0.00  0.00    +0.000 C 
ENDBRANCH   2   9
ENDBRANCH   1   3
BRANCH   1  12
ATOM     12  P   UNL     1      31.679 -10.069 -22.140  0.00  0.00    +0.340 P 
ATOM     13  O   UNL     1      31.941  -9.500 -20.776  0.00  0.00    -0.258 OA
BRANCH  12  14
ATOM     14  O   UNL     1      30.386 -11.039 -22.212  0.00  0.00    -0.323 OA
ATOM     15  H   UNL     1      29.594 -10.508 -22.392  0.00  0.00    +0.220 HD
ENDBRANCH  12  14
BRANCH  12  16
ATOM     16  C   UNL     1      31.350  -8.835 -23.381  0.00  0.00    +0.116 C 
BRANCH  16  17
ATOM     17  C   UNL     1      31.209  -7.426 -22.820  0.00  0.00    +0.013 C 
BRANCH  17  18
ATOM     18  C   UNL     1      32.538  -6.668 -22.821  0.00  0.00    +0.001 C 
BRANCH  18  19
ATOM     19  C   UNL     1      32.950  -6.272 -24.240  0.00  0.00    +0.000 C 
BRANCH  19  20
ATOM     20  C   UNL     1      34.300  -6.882 -24.618  0.00  0.00    +0.000 C 
ATOM     21  C   UNL     1      34.886  -7.691 -23.470  0.00  0.00    +0.000 C 
ENDBRANCH  19  20
ENDBRANCH  18  19
ENDBRANCH  17  18
ENDBRANCH  16  17
ENDBRANCH  12  16
ENDBRANCH   1  12
TORSDOF 9
ENDMDL
MODEL 5
REMARK VINA RESULT:      -7.7      4.666      9.682
REMARK  Name = 446980
REMARK  9 active torsions:
REMARK  status: ('A' for Active; 'I' for Inactive)
REMARK    1  A    between atoms: O_1  and  C_3
REMARK    2  A    between atoms: O_1  and  P_12
REMARK    3  A    between atoms: C_2  and  C_9
REMARK    4  A    between atoms: P_12  and  O_14
REMARK    5  A    between atoms: P_12  and  C_16
REMARK    6  A    between atoms: C_16  and  C_17
REMARK    7  A    between atoms: C_17  and  C_18
REMARK    8  A    between atoms: C_18  and  C_19
REMARK    9  A    between atoms: C_19  and  C_20
REMARK                            x       y       z     vdW  Elec       q    Type
REMARK                         _______ _______ _______ _____ _____    ______ ____
ROOT
ATOM      1  O   UNL     1      35.097 -16.257 -22.463  0.00  0.00    -0.297 OA
ENDROOT
BRANCH   1   3
ATOM      2  C   UNL     1      33.581 -14.377 -22.329  0.00  0.00    +0.028 C 
ATOM      3  C   UNL     1      33.938 -15.682 -23.061  0.00  0.00    +0.124 C 
ATOM      4  C   UNL     1      32.422 -13.659 -23.030  0.00  0.00    +0.002 C 
ATOM      5  C   UNL     1      33.059 -14.719 -25.239  0.00  0.00    +0.002 C 
ATOM      6  C   UNL     1      34.222 -15.435 -24.545  0.00  0.00    +0.030 C 
ATOM      7  C   UNL     1      32.714 -13.416 -24.510  0.00  0.00    +0.000 C 
ATOM      8  C   UNL     1      33.389 -14.446 -26.705  0.00  0.00    +0.000 C 
BRANCH   2   9
ATOM      9  C   UNL     1      33.235 -14.639 -20.862  0.00  0.00    +0.002 C 
ATOM     10  C   UNL     1      32.601 -13.401 -20.234  0.00  0.00    +0.000 C 
ATOM     11  C   UNL     1      32.305 -15.842 -20.739  0.00  0.00    +0.000 C 
ENDBRANCH   2   9
ENDBRANCH   1   3
BRANCH   1  12
ATOM     12  P   UNL     1      35.312 -17.855 -22.453  0.00  0.00    +0.340 P 
ATOM     13  O   UNL     1      36.744 -18.277 -22.305  0.00  0.00    -0.258 OA
BRANCH  12  14
ATOM     14  O   UNL     1      34.611 -18.365 -23.818  0.00  0.00    -0.323 OA
ATOM     15  H   UNL     1      34.959 -17.858 -24.569  0.00  0.00    +0.220 HD
ENDBRANCH  12  14
BRANCH  12  16
ATOM     16  C   UNL     1      34.244 -18.481 -21.171  0.00  0.00    +0.116 C 
BRANCH  16  17
ATOM     17  C   UNL     1      33.987 -19.978 -21.267  0.00  0.00    +0.013 C 
BRANCH  17  18
ATOM     18  C   UNL     1      33.161 -20.499 -20.090  0.00  0.00    +0.001 C 
BRANCH  18  19
ATOM     19  C   UNL     1      33.890 -21.627 -19.357  0.00  0.00    +0.000 C 
BRANCH  19  20
ATOM     20  C   UNL     1      35.365 -21.687 -19.754  0.00  0.00    +0.000 C 
ATOM     21  C   UNL     1      36.272 -21.649 -18.534  0.00  0.00    +0.000 C 
ENDBRANCH  19  20
ENDBRANCH  18  19
ENDBRANCH  17  18
ENDBRANCH  16  17
ENDBRANCH  12  16
ENDBRANCH   1  12
TORSDOF 9
ENDMDL
MODEL 6
REMARK VINA RESULT:      -7.7      0.944      3.165
REMARK  Name = 446980
REMARK  9 active torsions:
REMARK  status: ('A' for Active; 'I' for Inactive)
REMARK    1  A    between atoms: O_1  and  C_3
REMARK    2  A    between atoms: O_1  and  P_12
REMARK    3  A    between atoms: C_2  and  C_9
REMARK    4  A    between atoms: P_12  and  O_14
REMARK    5  A    between atoms: P_12  and  C_16
REMARK    6  A    between atoms: C_16  and  C_17
REMARK    7  A    between atoms: C_17  and  C_18
REMARK    8  A    between atoms: C_18  and  C_19
REMARK    9  A    between atoms: C_19  and  C_20
REMARK                            x       y       z     vdW  Elec       q    Type
REMARK                         _______ _______ _______ _____ _____    ______ ____
ROOT
ATOM      1  O   UNL     1      33.845 -23.907 -17.227  0.00  0.00    -0.297 OA
ENDROOT
BRANCH   1   3
ATOM      2  C   UNL     1      33.066 -24.182 -14.953  0.00  0.00    +0.028 C 
ATOM      3  C   UNL     1      34.044 -23.453 -15.890  0.00  0.00    +0.124 C 
ATOM      4  C   UNL     1      33.342 -23.820 -13.489  0.00  0.00    +0.002 C 
ATOM      5  C   UNL     1      35.768 -23.343 -14.031  0.00  0.00    +0.002 C 
ATOM      6  C   UNL     1      35.500 -23.709 -15.495  0.00  0.00    +0.030 C 
ATOM      7  C   UNL     1      34.797 -24.080 -13.103  0.00  0.00    +0.000 C 
ATOM      8  C   UNL     1      37.216 -23.652 -13.654  0.00  0.00    +0.000 C 
BRANCH   2   9
ATOM      9  C   UNL     1      31.612 -23.870 -15.313  0.00  0.00    +0.002 C 
ATOM     10  C   UNL     1      30.700 -25.017 -14.890  0.00  0.00    +0.000 C 
ATOM     11  C   UNL     1      31.170 -22.562 -14.663  0.00  0.00    +0.000 C 
ENDBRANCH   2   9
ENDBRANCH   1   3
BRANCH   1  12
ATOM     12  P   UNL     1      33.774 -22.860 -18.451  0.00  0.00    +0.340 P 
ATOM     13  O   UNL     1      32.511 -22.050 -18.489  0.00  0.00    -0.258 OA
BRANCH  12  14
ATOM     14  O   UNL     1      34.017 -23.764 -19.769  0.00  0.00    -0.323 OA
ATOM     15  H   UNL     1      34.214 -23.188 -20.524  0.00  0.00    +0.220 HD
ENDBRANCH  12  14
BRANCH  12  16
ATOM     16  C   UNL     1      35.254 -21.876 -18.335  0.00  0.00    +0.116 C 
BRANCH  16  17
ATOM     17  C   UNL     1      35.909 -21.597 -19.680  0.00  0.00    +0.013 C 
BRANCH  17  18
ATOM     18  C   UNL     1      35.244 -20.434 -20.418  0.00  0.00    +0.001 C 
BRANCH  18  19
ATOM     19  C   UNL     1      36.270 -19.373 -20.821  0.00  0.00    +0.000 C 
BRANCH  19  20
ATOM     20  C   UNL     1      35.718 -18.450 -21.908  0.00  0.00    +0.000 C 
ATOM     21  C   UNL     1      34.720 -19.174 -22.799  0.00  0.00    +0.000 C 
ENDBRANCH  19  20
ENDBRANCH  18  19
ENDBRANCH  17  18
ENDBRANCH  16  17
ENDBRANCH  12  16
ENDBRANCH   1  12
TORSDOF 9
ENDMDL
MODEL 7
REMARK VINA RESULT:      -7.7      3.557      6.632
REMARK  Name = 446980
REMARK  9 active torsions:
REMARK  status: ('A' for Active; 'I' for Inactive)
REMARK    1  A    between atoms: O_1  and  C_3
REMARK    2  A    between atoms: O_1  and  P_12
REMARK    3  A    between atoms: C_2  and  C_9
REMARK    4  A    between atoms: P_12  and  O_14
REMARK    5  A    between atoms: P_12  and  C_16
REMARK    6  A    between atoms: C_16  and  C_17
REMARK    7  A    between atoms: C_17  and  C_18
REMARK    8  A    between atoms: C_18  and  C_19
REMARK    9  A    between atoms: C_19  and  C_20
REMARK                            x       y       z     vdW  Elec       q    Type
REMARK                         _______ _______ _______ _____ _____    ______ ____
ROOT
ATOM      1  O   UNL     1      33.868 -24.361 -14.642  0.00  0.00    -0.297 OA
ENDROOT
BRANCH   1   3
ATOM      2  C   UNL     1      36.253 -24.426 -14.244  0.00  0.00    +0.028 C 
ATOM      3  C   UNL     1      35.052 -23.567 -14.674  0.00  0.00    +0.124 C 
ATOM      4  C   UNL     1      37.564 -23.645 -14.396  0.00  0.00    +0.002 C 
ATOM      5  C   UNL     1      36.544 -22.231 -16.232  0.00  0.00    +0.002 C 
ATOM      6  C   UNL     1      35.234 -23.012 -16.089  0.00  0.00    +0.030 C 
ATOM      7  C   UNL     1      37.738 -23.095 -15.811  0.00  0.00    +0.000 C 
ATOM      8  C   UNL     1      36.720 -21.729 -17.664  0.00  0.00    +0.000 C 
BRANCH   2   9
ATOM      9  C   UNL     1      36.096 -24.924 -12.806  0.00  0.00    +0.002 C 
ATOM     10  C   UNL     1      37.252 -25.846 -12.431  0.00  0.00    +0.000 C 
ATOM     11  C   UNL     1      36.009 -23.747 -11.839  0.00  0.00    +0.000 C 
ENDBRANCH   2   9
ENDBRANCH   1   3
BRANCH   1  12
ATOM     12  P   UNL     1      32.449 -23.709 -14.241  0.00  0.00    +0.340 P 
ATOM     13  O   UNL     1      31.939 -22.702 -15.229  0.00  0.00    -0.258 OA
BRANCH  12  14
ATOM     14  O   UNL     1      32.684 -23.115 -12.754  0.00  0.00    -0.323 OA
ATOM     15  H   UNL     1      32.179 -23.640 -12.114  0.00  0.00    +0.220 HD
ENDBRANCH  12  14
BRANCH  12  16
ATOM     16  C   UNL     1      31.343 -25.080 -13.978  0.00  0.00    +0.116 C 
BRANCH  16  17
ATOM     17  C   UNL     1      29.893 -24.771 -14.327  0.00  0.00    +0.013 C 
BRANCH  17  18
ATOM     18  C   UNL     1      29.550 -25.156 -15.766  0.00  0.00    +0.001 C 
BRANCH  18  19
ATOM     19  C   UNL     1      28.861 -24.004 -16.500  0.00  0.00    +0.000 C 
BRANCH  19  20
ATOM     20  C   UNL     1      28.498 -22.871 -15.539  0.00  0.00    +0.000 C 
ATOM     21  C   UNL     1      27.153 -22.254 -15.889  0.00  0.00    +0.000 C 
ENDBRANCH  19  20
ENDBRANCH  18  19
ENDBRANCH  17  18
ENDBRANCH  16  17
ENDBRANCH  12  16
ENDBRANCH   1  12
TORSDOF 9
ENDMDL
MODEL 8
REMARK VINA RESULT:      -7.7      7.080     11.788
REMARK  Name = 446980
REMARK  9 active torsions:
REMARK  status: ('A' for Active; 'I' for Inactive)
REMARK    1  A    between atoms: O_1  and  C_3
REMARK    2  A    between atoms: O_1  and  P_12
REMARK    3  A    between atoms: C_2  and  C_9
REMARK    4  A    between atoms: P_12  and  O_14
REMARK    5  A    between atoms: P_12  and  C_16
REMARK    6  A    between atoms: C_16  and  C_17
REMARK    7  A    between atoms: C_17  and  C_18
REMARK    8  A    between atoms: C_18  and  C_19
REMARK    9  A    between atoms: C_19  and  C_20
REMARK                            x       y       z     vdW  Elec       q    Type
REMARK                         _______ _______ _______ _____ _____    ______ ____
ROOT
ATOM      1  O   UNL     1      32.634 -13.600 -23.283  0.00  0.00    -0.297 OA
ENDROOT
BRANCH   1   3
ATOM      2  C   UNL     1      32.900 -11.213 -23.566  0.00  0.00    +0.028 C 
ATOM      3  C   UNL     1      32.842 -12.384 -22.570  0.00  0.00    +0.124 C 
ATOM      4  C   UNL     1      32.986  -9.872 -22.826  0.00  0.00    +0.002 C 
ATOM      5  C   UNL     1      31.801 -10.866 -20.822  0.00  0.00    +0.002 C 
ATOM      6  C   UNL     1      31.707 -12.206 -21.559  0.00  0.00    +0.030 C 
ATOM      7  C   UNL     1      31.850  -9.704 -21.819  0.00  0.00    +0.000 C 
ATOM      8  C   UNL     1      30.632 -10.698 -19.854  0.00  0.00    +0.000 C 
BRANCH   2   9
ATOM      9  C   UNL     1      34.076 -11.362 -24.533  0.00  0.00    +0.002 C 
ATOM     10  C   UNL     1      33.590 -11.852 -25.893  0.00  0.00    +0.000 C 
ATOM     11  C   UNL     1      34.825 -10.040 -24.672  0.00  0.00    +0.000 C 
ENDBRANCH   2   9
ENDBRANCH   1   3
BRANCH   1  12
ATOM     12  P   UNL     1      33.545 -14.896 -22.986  0.00  0.00    +0.340 P 
ATOM     13  O   UNL     1      32.998 -15.795 -21.917  0.00  0.00    -0.258 OA
BRANCH  12  14
ATOM     14  O   UNL     1      35.009 -14.293 -22.655  0.00  0.00    -0.323 OA
ATOM     15  H   UNL     1      35.524 -14.948 -22.158  0.00  0.00    +0.220 HD
ENDBRANCH  12  14
BRANCH  12  16
ATOM     16  C   UNL     1      33.768 -15.704 -24.558  0.00  0.00    +0.116 C 
BRANCH  16  17
ATOM     17  C   UNL     1      34.932 -16.686 -24.581  0.00  0.00    +0.013 C 
BRANCH  17  18
ATOM     18  C   UNL     1      34.523 -18.054 -25.127  0.00  0.00    +0.001 C 
BRANCH  18  19
ATOM     19  C   UNL     1      34.620 -19.134 -24.047  0.00  0.00    +0.000 C 
BRANCH  19  20
ATOM     20  C   UNL     1      35.352 -18.617 -22.808  0.00  0.00    +0.000 C 
ATOM     21  C   UNL     1      34.612 -18.983 -21.531  0.00  0.00    +0.000 C 
ENDBRANCH  19  20
ENDBRANCH  18  19
ENDBRANCH  17  18
ENDBRANCH  16  17
ENDBRANCH  12  16
ENDBRANCH   1  12
TORSDOF 9
ENDMDL
MODEL 9
REMARK VINA RESULT:      -7.5      9.851     13.971
REMARK  Name = 446980
REMARK  9 active torsions:
REMARK  status: ('A' for Active; 'I' for Inactive)
REMARK    1  A    between atoms: O_1  and  C_3
REMARK    2  A    between atoms: O_1  and  P_12
REMARK    3  A    between atoms: C_2  and  C_9
REMARK    4  A    between atoms: P_12  and  O_14
REMARK    5  A    between atoms: P_12  and  C_16
REMARK    6  A    between atoms: C_16  and  C_17
REMARK    7  A    between atoms: C_17  and  C_18
REMARK    8  A    between atoms: C_18  and  C_19
REMARK    9  A    between atoms: C_19  and  C_20
REMARK                            x       y       z     vdW  Elec       q    Type
REMARK                         _______ _______ _______ _____ _____    ______ ____
ROOT
ATOM      1  O   UNL     1      32.712 -10.384 -24.004  0.00  0.00    -0.297 OA
ENDROOT
BRANCH   1   3
ATOM      2  C   UNL     1      32.633  -8.196 -22.975  0.00  0.00    +0.028 C 
ATOM      3  C   UNL     1      32.937  -9.691 -22.779  0.00  0.00    +0.124 C 
ATOM      4  C   UNL     1      32.733  -7.441 -21.644  0.00  0.00    +0.002 C 
ATOM      5  C   UNL     1      32.157  -9.550 -20.368  0.00  0.00    +0.002 C 
ATOM      6  C   UNL     1      32.050 -10.309 -21.695  0.00  0.00    +0.030 C 
ATOM      7  C   UNL     1      31.845  -8.063 -20.569  0.00  0.00    +0.000 C 
ATOM      8  C   UNL     1      31.229 -10.160 -19.320  0.00  0.00    +0.000 C 
BRANCH   2   9
ATOM      9  C   UNL     1      33.567  -7.569 -24.013  0.00  0.00    +0.002 C 
ATOM     10  C   UNL     1      33.030  -6.215 -24.465  0.00  0.00    +0.000 C 
ATOM     11  C   UNL     1      34.977  -7.429 -23.448  0.00  0.00    +0.000 C 
ENDBRANCH   2   9
ENDBRANCH   1   3
BRANCH   1  12
ATOM     12  P   UNL     1      33.863 -11.307 -24.653  0.00  0.00    +0.340 P 
ATOM     13  O   UNL     1      35.168 -10.599 -24.864  0.00  0.00    -0.258 OA
BRANCH  12  14
ATOM     14  O   UNL     1      33.199 -11.887 -26.009  0.00  0.00    -0.323 OA
ATOM     15  H   UNL     1      33.243 -12.856 -26.002  0.00  0.00    +0.220 HD
ENDBRANCH  12  14
BRANCH  12  16
ATOM     16  C   UNL     1      33.987 -12.739 -23.600  0.00  0.00    +0.116 C 
BRANCH  16  17
ATOM     17  C   UNL     1      32.682 -13.511 -23.461  0.00  0.00    +0.013 C 
BRANCH  17  18
ATOM     18  C   UNL     1      32.246 -13.652 -22.002  0.00  0.00    +0.001 C 
BRANCH  18  19
ATOM     19  C   UNL     1      32.561 -15.048 -21.461  0.00  0.00    +0.000 C 
BRANCH  19  20
ATOM     20  C   UNL     1      33.832 -15.041 -20.611  0.00  0.00    +0.000 C 
ATOM     21  C   UNL     1      34.778 -16.160 -21.016  0.00  0.00    +0.000 C 
ENDBRANCH  19  20
ENDBRANCH  18  19
ENDBRANCH  17  18
ENDBRANCH  16  17
ENDBRANCH  12  16
ENDBRANCH   1  12
TORSDOF 9
ENDMDL
