MODEL 1
REMARK VINA RESULT:      -8.9      0.000      0.000
REMARK  Name = 71652
REMARK  5 active torsions:
REMARK  status: ('A' for Active; 'I' for Inactive)
REMARK    1  A    between atoms: C_7  and  C_22
REMARK    2  A    between atoms: C_12  and  S_16
REMARK    3  A    between atoms: S_16  and  N_19
REMARK    4  A    between atoms: C_22  and  C_24
REMARK    5  A    between atoms: C_24  and  C_26
REMARK                            x       y       z     vdW  Elec       q    Type
REMARK                         _______ _______ _______ _____ _____    ______ ____
ROOT
ATOM      1 CL   UNL     1      37.724 -22.865 -14.238  0.00  0.00    -0.081 Cl
ATOM      2  S   UNL     1      33.641 -22.552 -18.975  0.00  0.00    +0.063 S 
ATOM      3  O   UNL     1      32.374 -22.140 -18.403  0.00  0.00    -0.153 OA
ATOM      4  O   UNL     1      33.772 -23.781 -19.731  0.00  0.00    -0.153 OA
ATOM      5  N   UNL     1      34.273 -21.249 -19.881  0.00  0.00    -0.163 NA
ATOM      6  N   UNL     1      36.511 -21.380 -18.944  0.00  0.00    -0.320 N 
ATOM      7  C   UNL     1      35.724 -21.331 -20.161  0.00  0.00    +0.147 C 
ATOM      8  C   UNL     1      36.092 -22.064 -17.813  0.00  0.00    +0.065 C 
ATOM      9  C   UNL     1      34.823 -22.646 -17.667  0.00  0.00    +0.136 C 
ATOM     10  C   UNL     1      34.430 -23.296 -16.493  0.00  0.00    +0.042 C 
ATOM     11  C   UNL     1      36.960 -22.151 -16.712  0.00  0.00    +0.028 C 
ATOM     12  C   UNL     1      35.319 -23.376 -15.426  0.00  0.00    +0.134 C 
ATOM     13  C   UNL     1      36.584 -22.802 -15.534  0.00  0.00    +0.078 C 
ATOM     14  H   UNL     1      34.098 -20.388 -19.362  0.00  0.00    +0.151 HD
ATOM     15  H   UNL     1      37.375 -20.909 -18.920  0.00  0.00    +0.148 HD
ENDROOT
BRANCH  12  16
ATOM     16  S   UNL     1      34.792 -24.201 -13.974  0.00  0.00    +0.058 S 
ATOM     17  O   UNL     1      35.264 -23.444 -12.825  0.00  0.00    -0.153 OA
ATOM     18  O   UNL     1      33.377 -24.509 -14.111  0.00  0.00    -0.153 OA
BRANCH  16  19
ATOM     19  N   UNL     1      35.686 -25.651 -14.087  0.00  0.00    -0.203 NA
ATOM     20  H   UNL     1      35.173 -26.324 -14.656  0.00  0.00    +0.144 HD
ATOM     21  H   UNL     1      35.832 -26.035 -13.154  0.00  0.00    +0.144 HD
ENDBRANCH  16  19
ENDBRANCH  12  16
BRANCH   7  22
ATOM     22  C   UNL     1      36.129 -20.114 -20.984  0.00  0.00    +0.035 C 
ATOM     23  C   UNL     1      37.252 -19.351 -20.268  0.00  0.00    +0.003 C 
BRANCH  22  24
ATOM     24  C   UNL     1      34.908 -19.219 -21.359  0.00  0.00    +0.003 C 
ATOM     25  C   UNL     1      34.540 -19.290 -22.847  0.00  0.00    +0.000 C 
BRANCH  24  26
ATOM     26  C   UNL     1      35.073 -17.736 -20.959  0.00  0.00    +0.000 C 
ATOM     27  C   UNL     1      35.046 -16.769 -22.134  0.00  0.00    +0.000 C 
ENDBRANCH  24  26
ENDBRANCH  22  24
ENDBRANCH   7  22
TORSDOF 5
ENDMDL
MODEL 2
REMARK VINA RESULT:      -8.7      4.495      6.471
REMARK  Name = 71652
REMARK  5 active torsions:
REMARK  status: ('A' for Active; 'I' for Inactive)
REMARK    1  A    between atoms: C_7  and  C_22
REMARK    2  A    between atoms: C_12  and  S_16
REMARK    3  A    between atoms: S_16  and  N_19
REMARK    4  A    between atoms: C_22  and  C_24
REMARK    5  A    between atoms: C_24  and  C_26
REMARK                            x       y       z     vdW  Elec       q    Type
REMARK                         _______ _______ _______ _____ _____    ______ ____
ROOT
ATOM      1 CL   UNL     1      30.062 -23.806 -12.797  0.00  0.00    -0.081 Cl
ATOM      2  S   UNL     1      33.730 -22.971 -17.802  0.00  0.00    +0.063 S 
ATOM      3  O   UNL     1      33.280 -21.754 -18.447  0.00  0.00    -0.153 OA
ATOM      4  O   UNL     1      33.779 -24.236 -18.509  0.00  0.00    -0.153 OA
ATOM      5  N   UNL     1      35.242 -22.665 -17.067  0.00  0.00    -0.163 NA
ATOM      6  N   UNL     1      34.671 -23.679 -14.933  0.00  0.00    -0.320 N 
ATOM      7  C   UNL     1      35.632 -23.635 -16.019  0.00  0.00    +0.147 C 
ATOM      8  C   UNL     1      33.305 -23.560 -15.143  0.00  0.00    +0.065 C 
ATOM      9  C   UNL     1      32.721 -23.238 -16.378  0.00  0.00    +0.136 C 
ATOM     10  C   UNL     1      31.339 -23.092 -16.535  0.00  0.00    +0.042 C 
ATOM     11  C   UNL     1      32.435 -23.719 -14.052  0.00  0.00    +0.028 C 
ATOM     12  C   UNL     1      30.504 -23.270 -15.437  0.00  0.00    +0.134 C 
ATOM     13  C   UNL     1      31.051 -23.582 -14.195  0.00  0.00    +0.078 C 
ATOM     14  H   UNL     1      35.206 -21.738 -16.644  0.00  0.00    +0.151 HD
ATOM     15  H   UNL     1      35.000 -23.798 -14.013  0.00  0.00    +0.148 HD
ENDROOT
BRANCH  12  16
ATOM     16  S   UNL     1      28.779 -23.083 -15.675  0.00  0.00    +0.058 S 
ATOM     17  O   UNL     1      28.141 -24.358 -15.385  0.00  0.00    -0.153 OA
ATOM     18  O   UNL     1      28.350 -21.880 -14.980  0.00  0.00    -0.153 OA
BRANCH  16  19
ATOM     19  N   UNL     1      28.716 -22.801 -17.358  0.00  0.00    -0.203 NA
ATOM     20  H   UNL     1      29.628 -22.483 -17.683  0.00  0.00    +0.144 HD
ATOM     21  H   UNL     1      28.015 -22.088 -17.557  0.00  0.00    +0.144 HD
ENDBRANCH  16  19
ENDBRANCH  12  16
BRANCH   7  22
ATOM     22  C   UNL     1      36.999 -23.237 -15.475  0.00  0.00    +0.035 C 
ATOM     23  C   UNL     1      37.758 -22.412 -16.523  0.00  0.00    +0.003 C 
BRANCH  22  24
ATOM     24  C   UNL     1      37.805 -24.462 -14.943  0.00  0.00    +0.003 C 
ATOM     25  C   UNL     1      37.797 -24.574 -13.412  0.00  0.00    +0.000 C 
BRANCH  24  26
ATOM     26  C   UNL     1      39.268 -24.511 -15.436  0.00  0.00    +0.000 C 
ATOM     27  C   UNL     1      40.145 -25.499 -14.682  0.00  0.00    +0.000 C 
ENDBRANCH  24  26
ENDBRANCH  22  24
ENDBRANCH   7  22
TORSDOF 5
ENDMDL
MODEL 3
REMARK VINA RESULT:      -8.1      9.036     12.095
REMARK  Name = 71652
REMARK  5 active torsions:
REMARK  status: ('A' for Active; 'I' for Inactive)
REMARK    1  A    between atoms: C_7  and  C_22
REMARK    2  A    between atoms: C_12  and  S_16
REMARK    3  A    between atoms: S_16  and  N_19
REMARK    4  A    between atoms: C_22  and  C_24
REMARK    5  A    between atoms: C_24  and  C_26
REMARK                            x       y       z     vdW  Elec       q    Type
REMARK                         _______ _______ _______ _____ _____    ______ ____
ROOT
ATOM      1 CL   UNL     1      34.702 -15.172 -24.118  0.00  0.00    -0.081 Cl
ATOM      2  S   UNL     1      31.439 -10.994 -20.785  0.00  0.00    +0.063 S 
ATOM      3  O   UNL     1      31.941 -11.065 -19.428  0.00  0.00    -0.153 OA
ATOM      4  O   UNL     1      30.038 -11.206 -21.092  0.00  0.00    -0.153 OA
ATOM      5  N   UNL     1      31.964  -9.523 -21.479  0.00  0.00    -0.163 NA
ATOM      6  N   UNL     1      32.750 -10.514 -23.554  0.00  0.00    -0.320 N 
ATOM      7  C   UNL     1      31.922  -9.483 -22.958  0.00  0.00    +0.147 C 
ATOM      8  C   UNL     1      32.870 -11.782 -23.005  0.00  0.00    +0.065 C 
ATOM      9  C   UNL     1      32.342 -12.157 -21.760  0.00  0.00    +0.136 C 
ATOM     10  C   UNL     1      32.519 -13.438 -21.228  0.00  0.00    +0.042 C 
ATOM     11  C   UNL     1      33.607 -12.755 -23.700  0.00  0.00    +0.028 C 
ATOM     12  C   UNL     1      33.243 -14.382 -21.949  0.00  0.00    +0.134 C 
ATOM     13  C   UNL     1      33.788 -14.041 -23.185  0.00  0.00    +0.078 C 
ATOM     14  H   UNL     1      32.926  -9.360 -21.184  0.00  0.00    +0.151 HD
ATOM     15  H   UNL     1      33.245 -10.306 -24.379  0.00  0.00    +0.148 HD
ENDROOT
BRANCH  12  16
ATOM     16  S   UNL     1      33.441 -15.977 -21.252  0.00  0.00    +0.058 S 
ATOM     17  O   UNL     1      32.234 -16.299 -20.507  0.00  0.00    -0.153 OA
ATOM     18  O   UNL     1      33.914 -16.875 -22.294  0.00  0.00    -0.153 OA
BRANCH  16  19
ATOM     19  N   UNL     1      34.713 -15.690 -20.151  0.00  0.00    -0.203 NA
ATOM     20  H   UNL     1      35.140 -14.786 -20.353  0.00  0.00    +0.144 HD
ATOM     21  H   UNL     1      35.414 -16.425 -20.242  0.00  0.00    +0.144 HD
ENDBRANCH  16  19
ENDBRANCH  12  16
BRANCH   7  22
ATOM     22  C   UNL     1      32.402  -8.112 -23.420  0.00  0.00    +0.035 C 
ATOM     23  C   UNL     1      33.738  -7.774 -22.746  0.00  0.00    +0.003 C 
BRANCH  22  24
ATOM     24  C   UNL     1      31.314  -7.011 -23.234  0.00  0.00    +0.003 C 
ATOM     25  C   UNL     1      31.136  -6.121 -24.472  0.00  0.00    +0.000 C 
BRANCH  24  26
ATOM     26  C   UNL     1      31.541  -6.106 -22.003  0.00  0.00    +0.000 C 
ATOM     27  C   UNL     1      30.387  -5.161 -21.704  0.00  0.00    +0.000 C 
ENDBRANCH  24  26
ENDBRANCH  22  24
ENDBRANCH   7  22
TORSDOF 5
ENDMDL
MODEL 4
REMARK VINA RESULT:      -8.0      7.474     10.713
REMARK  Name = 71652
REMARK  5 active torsions:
REMARK  status: ('A' for Active; 'I' for Inactive)
REMARK    1  A    between atoms: C_7  and  C_22
REMARK    2  A    between atoms: C_12  and  S_16
REMARK    3  A    between atoms: S_16  and  N_19
REMARK    4  A    between atoms: C_22  and  C_24
REMARK    5  A    between atoms: C_24  and  C_26
REMARK                            x       y       z     vdW  Elec       q    Type
REMARK                         _______ _______ _______ _____ _____    ______ ____
ROOT
ATOM      1 CL   UNL     1      33.140 -10.115 -24.366  0.00  0.00    -0.081 Cl
ATOM      2  S   UNL     1      33.202 -15.488 -21.152  0.00  0.00    +0.063 S 
ATOM      3  O   UNL     1      31.823 -15.791 -20.826  0.00  0.00    -0.153 OA
ATOM      4  O   UNL     1      34.217 -15.358 -20.126  0.00  0.00    -0.153 OA
ATOM      5  N   UNL     1      33.729 -16.591 -22.346  0.00  0.00    -0.163 NA
ATOM      6  N   UNL     1      34.724 -14.909 -23.791  0.00  0.00    -0.320 N 
ATOM      7  C   UNL     1      34.932 -16.167 -23.098  0.00  0.00    +0.147 C 
ATOM      8  C   UNL     1      33.975 -13.875 -23.249  0.00  0.00    +0.065 C 
ATOM      9  C   UNL     1      33.225 -13.978 -22.067  0.00  0.00    +0.136 C 
ATOM     10  C   UNL     1      32.455 -12.920 -21.577  0.00  0.00    +0.042 C 
ATOM     11  C   UNL     1      33.910 -12.652 -23.937  0.00  0.00    +0.028 C 
ATOM     12  C   UNL     1      32.423 -11.717 -22.275  0.00  0.00    +0.134 C 
ATOM     13  C   UNL     1      33.149 -11.583 -23.456  0.00  0.00    +0.078 C 
ATOM     14  H   UNL     1      32.968 -16.724 -23.012  0.00  0.00    +0.151 HD
ATOM     15  H   UNL     1      35.129 -14.786 -24.680  0.00  0.00    +0.148 HD
ENDROOT
BRANCH  12  16
ATOM     16  S   UNL     1      31.450 -10.413 -21.627  0.00  0.00    +0.058 S 
ATOM     17  O   UNL     1      32.348  -9.378 -21.138  0.00  0.00    -0.153 OA
ATOM     18  O   UNL     1      30.421 -10.084 -22.600  0.00  0.00    -0.153 OA
BRANCH  16  19
ATOM     19  N   UNL     1      30.721 -11.190 -20.292  0.00  0.00    -0.203 NA
ATOM     20  H   UNL     1      29.759 -11.434 -20.526  0.00  0.00    +0.144 HD
ATOM     21  H   UNL     1      30.728 -10.563 -19.488  0.00  0.00    +0.144 HD
ENDBRANCH  16  19
ENDBRANCH  12  16
BRANCH   7  22
ATOM     22  C   UNL     1      35.282 -17.254 -24.107  0.00  0.00    +0.035 C 
ATOM     23  C   UNL     1      34.118 -17.450 -25.088  0.00  0.00    +0.003 C 
BRANCH  22  24
ATOM     24  C   UNL     1      35.745 -18.574 -23.418  0.00  0.00    +0.003 C 
ATOM     25  C   UNL     1      34.602 -19.575 -23.197  0.00  0.00    +0.000 C 
BRANCH  24  26
ATOM     26  C   UNL     1      36.480 -18.357 -22.076  0.00  0.00    +0.000 C 
ATOM     27  C   UNL     1      35.998 -19.260 -20.950  0.00  0.00    +0.000 C 
ENDBRANCH  24  26
ENDBRANCH  22  24
ENDBRANCH   7  22
TORSDOF 5
ENDMDL
MODEL 5
REMARK VINA RESULT:      -8.0     10.433     13.838
REMARK  Name = 71652
REMARK  5 active torsions:
REMARK  status: ('A' for Active; 'I' for Inactive)
REMARK    1  A    between atoms: C_7  and  C_22
REMARK    2  A    between atoms: C_12  and  S_16
REMARK    3  A    between atoms: S_16  and  N_19
REMARK    4  A    between atoms: C_22  and  C_24
REMARK    5  A    between atoms: C_24  and  C_26
REMARK                            x       y       z     vdW  Elec       q    Type
REMARK                         _______ _______ _______ _____ _____    ______ ____
ROOT
ATOM      1 CL   UNL     1      34.607  -6.799 -24.652  0.00  0.00    -0.081 Cl
ATOM      2  S   UNL     1      31.618 -11.583 -21.936  0.00  0.00    +0.063 S 
ATOM      3  O   UNL     1      30.201 -11.358 -22.144  0.00  0.00    -0.153 OA
ATOM      4  O   UNL     1      32.178 -11.736 -20.607  0.00  0.00    -0.153 OA
ATOM      5  N   UNL     1      32.107 -12.891 -22.920  0.00  0.00    -0.163 NA
ATOM      6  N   UNL     1      34.076 -11.783 -23.815  0.00  0.00    -0.320 N 
ATOM      7  C   UNL     1      33.565 -12.975 -23.165  0.00  0.00    +0.147 C 
ATOM      8  C   UNL     1      33.602 -10.513 -23.521  0.00  0.00    +0.065 C 
ATOM      9  C   UNL     1      32.497 -10.254 -22.695  0.00  0.00    +0.136 C 
ATOM     10  C   UNL     1      32.031  -8.957 -22.456  0.00  0.00    +0.042 C 
ATOM     11  C   UNL     1      34.223  -9.403 -24.116  0.00  0.00    +0.028 C 
ATOM     12  C   UNL     1      32.677  -7.879 -23.050  0.00  0.00    +0.134 C 
ATOM     13  C   UNL     1      33.773  -8.101 -23.882  0.00  0.00    +0.078 C 
ATOM     14  H   UNL     1      31.638 -12.802 -23.821  0.00  0.00    +0.151 HD
ATOM     15  H   UNL     1      34.786 -11.879 -24.490  0.00  0.00    +0.148 HD
ENDROOT
BRANCH  12  16
ATOM     16  S   UNL     1      32.067  -6.270 -22.723  0.00  0.00    +0.058 S 
ATOM     17  O   UNL     1      32.448  -5.908 -21.367  0.00  0.00    -0.153 OA
ATOM     18  O   UNL     1      32.432  -5.408 -23.836  0.00  0.00    -0.153 OA
BRANCH  16  19
ATOM     19  N   UNL     1      30.383  -6.550 -22.771  0.00  0.00    -0.203 NA
ATOM     20  H   UNL     1      30.037  -6.379 -23.715  0.00  0.00    +0.144 HD
ATOM     21  H   UNL     1      29.916  -5.922 -22.118  0.00  0.00    +0.144 HD
ENDBRANCH  16  19
ENDBRANCH  12  16
BRANCH   7  22
ATOM     22  C   UNL     1      33.841 -14.192 -24.039  0.00  0.00    +0.035 C 
ATOM     23  C   UNL     1      32.782 -14.290 -25.146  0.00  0.00    +0.003 C 
BRANCH  22  24
ATOM     24  C   UNL     1      33.991 -15.500 -23.203  0.00  0.00    +0.003 C 
ATOM     25  C   UNL     1      34.279 -15.240 -21.718  0.00  0.00    +0.000 C 
BRANCH  24  26
ATOM     26  C   UNL     1      35.057 -16.475 -23.752  0.00  0.00    +0.000 C 
ATOM     27  C   UNL     1      34.566 -17.356 -24.891  0.00  0.00    +0.000 C 
ENDBRANCH  24  26
ENDBRANCH  22  24
ENDBRANCH   7  22
TORSDOF 5
ENDMDL
MODEL 6
REMARK VINA RESULT:      -7.7      3.182      4.013
REMARK  Name = 71652
REMARK  5 active torsions:
REMARK  status: ('A' for Active; 'I' for Inactive)
REMARK    1  A    between atoms: C_7  and  C_22
REMARK    2  A    between atoms: C_12  and  S_16
REMARK    3  A    between atoms: S_16  and  N_19
REMARK    4  A    between atoms: C_22  and  C_24
REMARK    5  A    between atoms: C_24  and  C_26
REMARK                            x       y       z     vdW  Elec       q    Type
REMARK                         _______ _______ _______ _____ _____    ______ ____
ROOT
ATOM      1 CL   UNL     1      28.864 -23.430 -16.182  0.00  0.00    -0.081 Cl
ATOM      2  S   UNL     1      35.115 -23.102 -16.302  0.00  0.00    +0.063 S 
ATOM      3  O   UNL     1      35.605 -24.438 -16.030  0.00  0.00    -0.153 OA
ATOM      4  O   UNL     1      35.497 -21.968 -15.484  0.00  0.00    -0.153 OA
ATOM      5  N   UNL     1      35.404 -22.745 -17.948  0.00  0.00    -0.163 NA
ATOM      6  N   UNL     1      33.172 -21.894 -18.395  0.00  0.00    -0.320 N 
ATOM      7  C   UNL     1      34.595 -21.632 -18.496  0.00  0.00    +0.147 C 
ATOM      8  C   UNL     1      32.610 -22.549 -17.310  0.00  0.00    +0.065 C 
ATOM      9  C   UNL     1      33.350 -23.155 -16.283  0.00  0.00    +0.136 C 
ATOM     10  C   UNL     1      32.741 -23.837 -15.226  0.00  0.00    +0.042 C 
ATOM     11  C   UNL     1      31.212 -22.669 -17.240  0.00  0.00    +0.028 C 
ATOM     12  C   UNL     1      31.354 -23.926 -15.179  0.00  0.00    +0.134 C 
ATOM     13  C   UNL     1      30.589 -23.344 -16.186  0.00  0.00    +0.078 C 
ATOM     14  H   UNL     1      35.201 -23.583 -18.493  0.00  0.00    +0.151 HD
ATOM     15  H   UNL     1      32.583 -21.595 -19.126  0.00  0.00    +0.148 HD
ENDROOT
BRANCH  12  16
ATOM     16  S   UNL     1      30.627 -24.786 -13.837  0.00  0.00    +0.058 S 
ATOM     17  O   UNL     1      30.185 -23.806 -12.857  0.00  0.00    -0.153 OA
ATOM     18  O   UNL     1      29.686 -25.757 -14.372  0.00  0.00    -0.153 OA
BRANCH  16  19
ATOM     19  N   UNL     1      31.984 -25.616 -13.216  0.00  0.00    -0.203 NA
ATOM     20  H   UNL     1      32.265 -26.346 -13.871  0.00  0.00    +0.144 HD
ATOM     21  H   UNL     1      31.744 -26.037 -12.319  0.00  0.00    +0.144 HD
ENDBRANCH  16  19
ENDBRANCH  12  16
BRANCH   7  22
ATOM     22  C   UNL     1      34.976 -21.429 -19.957  0.00  0.00    +0.035 C 
ATOM     23  C   UNL     1      36.488 -21.627 -20.135  0.00  0.00    +0.003 C 
BRANCH  22  24
ATOM     24  C   UNL     1      34.455 -20.072 -20.522  0.00  0.00    +0.003 C 
ATOM     25  C   UNL     1      32.993 -20.130 -20.985  0.00  0.00    +0.000 C 
BRANCH  24  26
ATOM     26  C   UNL     1      35.316 -19.499 -21.670  0.00  0.00    +0.000 C 
ATOM     27  C   UNL     1      34.520 -19.096 -22.902  0.00  0.00    +0.000 C 
ENDBRANCH  24  26
ENDBRANCH  22  24
ENDBRANCH   7  22
TORSDOF 5
ENDMDL
MODEL 7
REMARK VINA RESULT:      -7.7      9.250     12.405
REMARK  Name = 71652
REMARK  5 active torsions:
REMARK  status: ('A' for Active; 'I' for Inactive)
REMARK    1  A    between atoms: C_7  and  C_22
REMARK    2  A    between atoms: C_12  and  S_16
REMARK    3  A    between atoms: S_16  and  N_19
REMARK    4  A    between atoms: C_22  and  C_24
REMARK    5  A    between atoms: C_24  and  C_26
REMARK                            x       y       z     vdW  Elec       q    Type
REMARK                         _______ _______ _______ _____ _____    ______ ____
ROOT
ATOM      1 CL   UNL     1      32.186 -15.697 -20.914  0.00  0.00    -0.081 Cl
ATOM      2  S   UNL     1      33.963 -10.917 -24.546  0.00  0.00    +0.063 S 
ATOM      3  O   UNL     1      33.762 -11.342 -25.917  0.00  0.00    -0.153 OA
ATOM      4  O   UNL     1      35.258 -10.477 -24.066  0.00  0.00    -0.153 OA
ATOM      5  N   UNL     1      32.780  -9.744 -24.166  0.00  0.00    -0.163 NA
ATOM      6  N   UNL     1      32.137 -10.744 -22.045  0.00  0.00    -0.320 N 
ATOM      7  C   UNL     1      32.559  -9.529 -22.717  0.00  0.00    +0.147 C 
ATOM      8  C   UNL     1      32.635 -11.993 -22.384  0.00  0.00    +0.065 C 
ATOM      9  C   UNL     1      33.466 -12.240 -23.488  0.00  0.00    +0.136 C 
ATOM     10  C   UNL     1      33.914 -13.524 -23.813  0.00  0.00    +0.042 C 
ATOM     11  C   UNL     1      32.255 -13.106 -21.615  0.00  0.00    +0.028 C 
ATOM     12  C   UNL     1      33.530 -14.602 -23.023  0.00  0.00    +0.134 C 
ATOM     13  C   UNL     1      32.699 -14.394 -21.925  0.00  0.00    +0.078 C 
ATOM     14  H   UNL     1      31.896 -10.040 -24.581  0.00  0.00    +0.151 HD
ATOM     15  H   UNL     1      31.473 -10.678 -21.322  0.00  0.00    +0.148 HD
ENDROOT
BRANCH  12  16
ATOM     16  S   UNL     1      34.115 -16.194 -23.460  0.00  0.00    +0.058 S 
ATOM     17  O   UNL     1      33.850 -17.095 -22.349  0.00  0.00    -0.153 OA
ATOM     18  O   UNL     1      33.621 -16.514 -24.790  0.00  0.00    -0.153 OA
BRANCH  16  19
ATOM     19  N   UNL     1      35.796 -15.904 -23.550  0.00  0.00    -0.203 NA
ATOM     20  H   UNL     1      36.296 -16.661 -23.085  0.00  0.00    +0.144 HD
ATOM     21  H   UNL     1      36.013 -15.020 -23.092  0.00  0.00    +0.144 HD
ENDBRANCH  16  19
ENDBRANCH  12  16
BRANCH   7  22
ATOM     22  C   UNL     1      31.495  -8.453 -22.543  0.00  0.00    +0.035 C 
ATOM     23  C   UNL     1      30.857  -8.126 -23.901  0.00  0.00    +0.003 C 
BRANCH  22  24
ATOM     24  C   UNL     1      32.038  -7.199 -21.793  0.00  0.00    +0.003 C 
ATOM     25  C   UNL     1      32.460  -7.494 -20.346  0.00  0.00    +0.000 C 
BRANCH  24  26
ATOM     26  C   UNL     1      31.064  -5.999 -21.790  0.00  0.00    +0.000 C 
ATOM     27  C   UNL     1      31.496  -4.846 -22.683  0.00  0.00    +0.000 C 
ENDBRANCH  24  26
ENDBRANCH  22  24
ENDBRANCH   7  22
TORSDOF 5
ENDMDL
MODEL 8
REMARK VINA RESULT:      -7.6     10.615     12.745
REMARK  Name = 71652
REMARK  5 active torsions:
REMARK  status: ('A' for Active; 'I' for Inactive)
REMARK    1  A    between atoms: C_7  and  C_22
REMARK    2  A    between atoms: C_12  and  S_16
REMARK    3  A    between atoms: S_16  and  N_19
REMARK    4  A    between atoms: C_22  and  C_24
REMARK    5  A    between atoms: C_24  and  C_26
REMARK                            x       y       z     vdW  Elec       q    Type
REMARK                         _______ _______ _______ _____ _____    ______ ____
ROOT
ATOM      1 CL   UNL     1      30.907  -9.687 -19.609  0.00  0.00    -0.081 Cl
ATOM      2  S   UNL     1      33.884 -11.755 -24.714  0.00  0.00    +0.063 S 
ATOM      3  O   UNL     1      35.105 -10.981 -24.823  0.00  0.00    -0.153 OA
ATOM      4  O   UNL     1      32.910 -11.796 -25.787  0.00  0.00    -0.153 OA
ATOM      5  N   UNL     1      34.293 -13.346 -24.247  0.00  0.00    -0.163 NA
ATOM      6  N   UNL     1      32.623 -13.506 -22.488  0.00  0.00    -0.320 N 
ATOM      7  C   UNL     1      33.177 -14.133 -23.673  0.00  0.00    +0.147 C 
ATOM      8  C   UNL     1      32.497 -12.131 -22.362  0.00  0.00    +0.065 C 
ATOM      9  C   UNL     1      33.017 -11.203 -23.278  0.00  0.00    +0.136 C 
ATOM     10  C   UNL     1      32.898  -9.823 -23.092  0.00  0.00    +0.042 C 
ATOM     11  C   UNL     1      31.854 -11.610 -21.227  0.00  0.00    +0.028 C 
ATOM     12  C   UNL     1      32.243  -9.340 -21.964  0.00  0.00    +0.134 C 
ATOM     13  C   UNL     1      31.722 -10.232 -21.030  0.00  0.00    +0.078 C 
ATOM     14  H   UNL     1      35.034 -13.290 -23.548  0.00  0.00    +0.151 HD
ATOM     15  H   UNL     1      32.326 -14.079 -21.744  0.00  0.00    +0.148 HD
ENDROOT
BRANCH  12  16
ATOM     16  S   UNL     1      32.110  -7.604 -21.768  0.00  0.00    +0.058 S 
ATOM     17  O   UNL     1      30.898  -7.164 -22.440  0.00  0.00    -0.153 OA
ATOM     18  O   UNL     1      32.321  -7.285 -20.365  0.00  0.00    -0.153 OA
BRANCH  16  19
ATOM     19  N   UNL     1      33.464  -7.076 -22.664  0.00  0.00    -0.203 NA
ATOM     20  H   UNL     1      33.160  -6.426 -23.388  0.00  0.00    +0.144 HD
ATOM     21  H   UNL     1      33.920  -7.879 -23.096  0.00  0.00    +0.144 HD
ENDBRANCH  16  19
ENDBRANCH  12  16
BRANCH   7  22
ATOM     22  C   UNL     1      33.693 -15.523 -23.323  0.00  0.00    +0.035 C 
ATOM     23  C   UNL     1      34.489 -15.469 -22.012  0.00  0.00    +0.003 C 
BRANCH  22  24
ATOM     24  C   UNL     1      34.477 -16.178 -24.501  0.00  0.00    +0.003 C 
ATOM     25  C   UNL     1      33.637 -16.332 -25.777  0.00  0.00    +0.000 C 
BRANCH  24  26
ATOM     26  C   UNL     1      35.104 -17.547 -24.153  0.00  0.00    +0.000 C 
ATOM     27  C   UNL     1      34.363 -18.738 -24.742  0.00  0.00    +0.000 C 
ENDBRANCH  24  26
ENDBRANCH  22  24
ENDBRANCH   7  22
TORSDOF 5
ENDMDL
MODEL 9
REMARK VINA RESULT:      -7.5      8.994     12.163
REMARK  Name = 71652
REMARK  5 active torsions:
REMARK  status: ('A' for Active; 'I' for Inactive)
REMARK    1  A    between atoms: C_7  and  C_22
REMARK    2  A    between atoms: C_12  and  S_16
REMARK    3  A    between atoms: S_16  and  N_19
REMARK    4  A    between atoms: C_22  and  C_24
REMARK    5  A    between atoms: C_24  and  C_26
REMARK                            x       y       z     vdW  Elec       q    Type
REMARK                         _______ _______ _______ _____ _____    ______ ____
ROOT
ATOM      1 CL   UNL     1      34.625 -14.639 -24.266  0.00  0.00    -0.081 Cl
ATOM      2  S   UNL     1      31.363 -10.903 -20.445  0.00  0.00    +0.063 S 
ATOM      3  O   UNL     1      31.977 -11.011 -19.137  0.00  0.00    -0.153 OA
ATOM      4  O   UNL     1      29.960 -11.200 -20.655  0.00  0.00    -0.153 OA
ATOM      5  N   UNL     1      31.726  -9.362 -21.087  0.00  0.00    -0.163 NA
ATOM      6  N   UNL     1      32.408 -10.176 -23.273  0.00  0.00    -0.320 N 
ATOM      7  C   UNL     1      31.561  -9.243 -22.553  0.00  0.00    +0.147 C 
ATOM      8  C   UNL     1      32.660 -11.460 -22.812  0.00  0.00    +0.065 C 
ATOM      9  C   UNL     1      32.262 -11.941 -21.555  0.00  0.00    +0.136 C 
ATOM     10  C   UNL     1      32.570 -13.232 -21.118  0.00  0.00    +0.042 C 
ATOM     11  C   UNL     1      33.403 -12.336 -23.620  0.00  0.00    +0.028 C 
ATOM     12  C   UNL     1      33.296 -14.079 -21.948  0.00  0.00    +0.134 C 
ATOM     13  C   UNL     1      33.715 -13.632 -23.199  0.00  0.00    +0.078 C 
ATOM     14  H   UNL     1      32.696  -9.144 -20.858  0.00  0.00    +0.151 HD
ATOM     15  H   UNL     1      32.818  -9.887 -24.119  0.00  0.00    +0.148 HD
ENDROOT
BRANCH  12  16
ATOM     16  S   UNL     1      33.660 -15.691 -21.366  0.00  0.00    +0.058 S 
ATOM     17  O   UNL     1      33.805 -16.567 -22.519  0.00  0.00    -0.153 OA
ATOM     18  O   UNL     1      34.731 -15.593 -20.388  0.00  0.00    -0.153 OA
BRANCH  16  19
ATOM     19  N   UNL     1      32.206 -16.075 -20.557  0.00  0.00    -0.203 NA
ATOM     20  H   UNL     1      31.536 -16.457 -21.224  0.00  0.00    +0.144 HD
ATOM     21  H   UNL     1      31.822 -15.232 -20.131  0.00  0.00    +0.144 HD
ENDBRANCH  16  19
ENDBRANCH  12  16
BRANCH   7  22
ATOM     22  C   UNL     1      31.906  -7.818 -22.966  0.00  0.00    +0.035 C 
ATOM     23  C   UNL     1      30.709  -7.179 -23.685  0.00  0.00    +0.003 C 
BRANCH  22  24
ATOM     24  C   UNL     1      33.234  -7.741 -23.780  0.00  0.00    +0.003 C 
ATOM     25  C   UNL     1      34.484  -7.663 -22.893  0.00  0.00    +0.000 C 
BRANCH  24  26
ATOM     26  C   UNL     1      33.278  -6.582 -24.801  0.00  0.00    +0.000 C 
ATOM     27  C   UNL     1      34.655  -6.333 -25.399  0.00  0.00    +0.000 C 
ENDBRANCH  24  26
ENDBRANCH  22  24
ENDBRANCH   7  22
TORSDOF 5
ENDMDL
