MODEL 1
REMARK VINA RESULT:     -10.9      0.000      0.000
REMARK  Name = 24801863
REMARK  4 active torsions:
REMARK  status: ('A' for Active; 'I' for Inactive)
REMARK    1  A    between atoms: N_1  and  C_19
REMARK    2  A    between atoms: C_5  and  C_11
REMARK    3  A    between atoms: N_18  and  C_25
REMARK    4  A    between atoms: C_25  and  C_28
REMARK                            x       y       z     vdW  Elec       q    Type
REMARK                         _______ _______ _______ _____ _____    ______ ____
ROOT
ATOM      1  N   UNL     1      34.848 -17.083 -23.958  0.00  0.00    -0.270 N 
ATOM      2  N   UNL     1      33.942 -14.946 -23.936  0.00  0.00    -0.336 NA
ATOM      3  N   UNL     1      33.752 -16.366 -25.874  0.00  0.00    -0.170 NA
ATOM      4  C   UNL     1      34.150 -16.088 -24.617  0.00  0.00    +0.145 C 
ATOM      5  C   UNL     1      33.258 -13.998 -24.609  0.00  0.00    +0.161 C 
ATOM      6  C   UNL     1      33.073 -15.373 -26.488  0.00  0.00    +0.114 C 
ATOM      7  C   UNL     1      32.795 -14.157 -25.899  0.00  0.00    +0.056 C 
ATOM      8  H   UNL     1      35.013 -17.930 -24.433  0.00  0.00    +0.159 HD
ENDROOT
BRANCH   5  11
ATOM      9  N   UNL     1      33.656 -11.584 -24.135  0.00  0.00    -0.246 N 
ATOM     10  N   UNL     1      32.295 -11.229 -22.395  0.00  0.00    -0.227 NA
ATOM     11  C   UNL     1      33.038 -12.779 -23.876  0.00  0.00    +0.107 C 
ATOM     12  C   UNL     1      33.170 -10.667 -23.206  0.00  0.00    +0.139 C 
ATOM     13  C   UNL     1      32.210 -12.535 -22.806  0.00  0.00    +0.118 C 
ATOM     14  C   UNL     1      34.593 -11.264 -25.114  0.00  0.00    +0.071 C 
ATOM     15  C   UNL     1      33.676  -9.337 -23.281  0.00  0.00    +0.035 C 
ATOM     16  C   UNL     1      35.066 -10.008 -25.178  0.00  0.00    +0.017 C 
ATOM     17  C   UNL     1      34.584  -9.021 -24.225  0.00  0.00    +0.004 C 
ENDBRANCH   5  11
BRANCH   1  19
ATOM     18  N   UNL     1      34.153 -19.079 -20.968  0.00  0.00    +0.393 N 
ATOM     19  C   UNL     1      35.350 -16.948 -22.603  0.00  0.00    +0.075 C 
ATOM     20  C   UNL     1      36.117 -18.206 -22.196  0.00  0.00    -0.003 C 
ATOM     21  C   UNL     1      34.193 -16.694 -21.635  0.00  0.00    -0.003 C 
ATOM     22  C   UNL     1      35.190 -19.403 -21.956  0.00  0.00    -0.075 C 
ATOM     23  C   UNL     1      33.333 -17.943 -21.413  0.00  0.00    -0.075 C 
ATOM     24  H   UNL     1      34.617 -18.810 -20.101  0.00  0.00    -0.079 HD
BRANCH  18  25
ATOM     25  C   UNL     1      33.312 -20.246 -20.707  0.00  0.00    +0.010 C 
BRANCH  25  28
ATOM     26  O   UNL     1      35.171 -20.977 -19.349  0.00  0.00    -0.277 OA
ATOM     27  N   UNL     1      33.120 -22.044 -19.121  0.00  0.00    -0.304 N 
ATOM     28  C   UNL     1      33.992 -21.114 -19.669  0.00  0.00    +0.201 C 
ATOM     29  C   UNL     1      33.504 -22.979 -18.088  0.00  0.00    +0.111 C 
ATOM     30  H   UNL     1      32.193 -22.069 -19.453  0.00  0.00    +0.149 HD
ENDBRANCH  25  28
ENDBRANCH  18  25
ENDBRANCH   1  19
TORSDOF 4
ENDMDL
MODEL 2
REMARK VINA RESULT:     -10.7      1.966      3.793
REMARK  Name = 24801863
REMARK  4 active torsions:
REMARK  status: ('A' for Active; 'I' for Inactive)
REMARK    1  A    between atoms: N_1  and  C_19
REMARK    2  A    between atoms: C_5  and  C_11
REMARK    3  A    between atoms: N_18  and  C_25
REMARK    4  A    between atoms: C_25  and  C_28
REMARK                            x       y       z     vdW  Elec       q    Type
REMARK                         _______ _______ _______ _____ _____    ______ ____
ROOT
ATOM      1  N   UNL     1      35.287 -17.921 -20.600  0.00  0.00    -0.270 N 
ATOM      2  N   UNL     1      34.606 -16.622 -22.400  0.00  0.00    -0.336 NA
ATOM      3  N   UNL     1      34.833 -15.682 -20.193  0.00  0.00    -0.170 NA
ATOM      4  C   UNL     1      34.891 -16.689 -21.086  0.00  0.00    +0.145 C 
ATOM      5  C   UNL     1      34.224 -15.406 -22.840  0.00  0.00    +0.161 C 
ATOM      6  C   UNL     1      34.443 -14.493 -20.701  0.00  0.00    +0.114 C 
ATOM      7  C   UNL     1      34.124 -14.294 -22.028  0.00  0.00    +0.056 C 
ATOM      8  H   UNL     1      35.503 -17.997 -19.643  0.00  0.00    +0.159 HD
ENDROOT
BRANCH   5  11
ATOM      9  N   UNL     1      33.772 -14.183 -24.964  0.00  0.00    -0.246 N 
ATOM     10  N   UNL     1      33.450 -15.868 -26.400  0.00  0.00    -0.227 NA
ATOM     11  C   UNL     1      33.921 -15.341 -24.245  0.00  0.00    +0.107 C 
ATOM     12  C   UNL     1      33.486 -14.556 -26.275  0.00  0.00    +0.139 C 
ATOM     13  C   UNL     1      33.719 -16.358 -25.148  0.00  0.00    +0.118 C 
ATOM     14  C   UNL     1      33.871 -12.860 -24.544  0.00  0.00    +0.071 C 
ATOM     15  C   UNL     1      33.287 -13.507 -27.219  0.00  0.00    +0.035 C 
ATOM     16  C   UNL     1      33.682 -11.876 -25.439  0.00  0.00    +0.017 C 
ATOM     17  C   UNL     1      33.381 -12.224 -26.819  0.00  0.00    +0.004 C 
ENDBRANCH   5  11
BRANCH   1  19
ATOM     18  N   UNL     1      35.371 -21.457 -19.655  0.00  0.00    +0.393 N 
ATOM     19  C   UNL     1      35.401 -19.109 -21.425  0.00  0.00    +0.075 C 
ATOM     20  C   UNL     1      34.167 -19.995 -21.249  0.00  0.00    -0.003 C 
ATOM     21  C   UNL     1      36.669 -19.884 -21.061  0.00  0.00    -0.003 C 
ATOM     22  C   UNL     1      34.139 -20.692 -19.884  0.00  0.00    -0.075 C 
ATOM     23  C   UNL     1      36.553 -20.586 -19.703  0.00  0.00    -0.075 C 
ATOM     24  H   UNL     1      35.458 -22.145 -20.402  0.00  0.00    -0.079 HD
BRANCH  18  25
ATOM     25  C   UNL     1      35.306 -22.161 -18.375  0.00  0.00    +0.010 C 
BRANCH  25  28
ATOM     26  O   UNL     1      33.742 -23.798 -19.217  0.00  0.00    -0.277 OA
ATOM     27  N   UNL     1      33.291 -22.744 -17.196  0.00  0.00    -0.304 N 
ATOM     28  C   UNL     1      34.039 -22.990 -18.339  0.00  0.00    +0.201 C 
ATOM     29  C   UNL     1      32.050 -23.422 -16.900  0.00  0.00    +0.111 C 
ATOM     30  H   UNL     1      33.623 -22.073 -16.557  0.00  0.00    +0.149 HD
ENDBRANCH  25  28
ENDBRANCH  18  25
ENDBRANCH   1  19
TORSDOF 4
ENDMDL
MODEL 3
REMARK VINA RESULT:     -10.3      2.168      3.330
REMARK  Name = 24801863
REMARK  4 active torsions:
REMARK  status: ('A' for Active; 'I' for Inactive)
REMARK    1  A    between atoms: N_1  and  C_19
REMARK    2  A    between atoms: C_5  and  C_11
REMARK    3  A    between atoms: N_18  and  C_25
REMARK    4  A    between atoms: C_25  and  C_28
REMARK                            x       y       z     vdW  Elec       q    Type
REMARK                         _______ _______ _______ _____ _____    ______ ____
ROOT
ATOM      1  N   UNL     1      35.184 -19.116 -22.540  0.00  0.00    -0.270 N 
ATOM      2  N   UNL     1      34.397 -17.017 -23.143  0.00  0.00    -0.336 NA
ATOM      3  N   UNL     1      34.899 -18.690 -24.803  0.00  0.00    -0.170 NA
ATOM      4  C   UNL     1      34.811 -18.236 -23.538  0.00  0.00    +0.145 C 
ATOM      5  C   UNL     1      34.040 -16.184 -24.142  0.00  0.00    +0.161 C 
ATOM      6  C   UNL     1      34.527 -17.805 -25.752  0.00  0.00    +0.114 C 
ATOM      7  C   UNL     1      34.085 -16.527 -25.478  0.00  0.00    +0.056 C 
ATOM      8  H   UNL     1      35.489 -20.015 -22.802  0.00  0.00    +0.159 HD
ENDROOT
BRANCH   5  11
ATOM      9  N   UNL     1      33.139 -14.584 -22.458  0.00  0.00    -0.246 N 
ATOM     10  N   UNL     1      33.050 -12.684 -23.635  0.00  0.00    -0.227 NA
ATOM     11  C   UNL     1      33.599 -14.884 -23.714  0.00  0.00    +0.107 C 
ATOM     12  C   UNL     1      32.816 -13.229 -22.458  0.00  0.00    +0.139 C 
ATOM     13  C   UNL     1      33.534 -13.702 -24.415  0.00  0.00    +0.118 C 
ATOM     14  C   UNL     1      32.993 -15.411 -21.347  0.00  0.00    +0.071 C 
ATOM     15  C   UNL     1      32.310 -12.684 -21.242  0.00  0.00    +0.035 C 
ATOM     16  C   UNL     1      32.514 -14.889 -20.205  0.00  0.00    +0.017 C 
ATOM     17  C   UNL     1      32.165 -13.478 -20.164  0.00  0.00    +0.004 C 
ENDBRANCH   5  11
BRANCH   1  19
ATOM     18  N   UNL     1      34.463 -21.228 -19.638  0.00  0.00    +0.393 N 
ATOM     19  C   UNL     1      35.151 -18.788 -21.127  0.00  0.00    +0.075 C 
ATOM     20  C   UNL     1      36.190 -19.613 -20.368  0.00  0.00    -0.003 C 
ATOM     21  C   UNL     1      33.753 -19.042 -20.559  0.00  0.00    -0.003 C 
ATOM     22  C   UNL     1      35.791 -21.088 -20.248  0.00  0.00    -0.075 C 
ATOM     23  C   UNL     1      33.438 -20.537 -20.431  0.00  0.00    -0.075 C 
ATOM     24  H   UNL     1      34.493 -20.793 -18.716  0.00  0.00    -0.079 HD
BRANCH  18  25
ATOM     25  C   UNL     1      34.120 -22.641 -19.478  0.00  0.00    +0.010 C 
BRANCH  25  28
ATOM     26  O   UNL     1      34.583 -23.097 -17.151  0.00  0.00    -0.277 OA
ATOM     27  N   UNL     1      32.378 -22.834 -17.831  0.00  0.00    -0.304 N 
ATOM     28  C   UNL     1      33.749 -22.892 -18.031  0.00  0.00    +0.201 C 
ATOM     29  C   UNL     1      31.757 -23.010 -16.538  0.00  0.00    +0.111 C 
ATOM     30  H   UNL     1      31.798 -22.664 -18.609  0.00  0.00    +0.149 HD
ENDBRANCH  25  28
ENDBRANCH  18  25
ENDBRANCH   1  19
TORSDOF 4
ENDMDL
MODEL 4
REMARK VINA RESULT:     -10.2      4.066      9.679
REMARK  Name = 24801863
REMARK  4 active torsions:
REMARK  status: ('A' for Active; 'I' for Inactive)
REMARK    1  A    between atoms: N_1  and  C_19
REMARK    2  A    between atoms: C_5  and  C_11
REMARK    3  A    between atoms: N_18  and  C_25
REMARK    4  A    between atoms: C_25  and  C_28
REMARK                            x       y       z     vdW  Elec       q    Type
REMARK                         _______ _______ _______ _____ _____    ______ ____
ROOT
ATOM      1  N   UNL     1      33.536 -10.980 -24.722  0.00  0.00    -0.270 N 
ATOM      2  N   UNL     1      33.911 -13.049 -23.736  0.00  0.00    -0.336 NA
ATOM      3  N   UNL     1      33.221 -12.866 -26.038  0.00  0.00    -0.170 NA
ATOM      4  C   UNL     1      33.557 -12.358 -24.836  0.00  0.00    +0.145 C 
ATOM      5  C   UNL     1      33.920 -14.389 -23.884  0.00  0.00    +0.161 C 
ATOM      6  C   UNL     1      33.252 -14.213 -26.115  0.00  0.00    +0.114 C 
ATOM      7  C   UNL     1      33.597 -15.033 -25.061  0.00  0.00    +0.056 C 
ATOM      8  H   UNL     1      33.282 -10.451 -25.512  0.00  0.00    +0.159 HD
ENDROOT
BRANCH   5  11
ATOM      9  N   UNL     1      34.685 -16.437 -22.688  0.00  0.00    -0.246 N 
ATOM     10  N   UNL     1      34.772 -15.723 -20.569  0.00  0.00    -0.227 NA
ATOM     11  C   UNL     1      34.300 -15.122 -22.705  0.00  0.00    +0.107 C 
ATOM     12  C   UNL     1      34.964 -16.759 -21.361  0.00  0.00    +0.139 C 
ATOM     13  C   UNL     1      34.361 -14.709 -21.395  0.00  0.00    +0.118 C 
ATOM     14  C   UNL     1      34.803 -17.340 -23.740  0.00  0.00    +0.071 C 
ATOM     15  C   UNL     1      35.390 -18.093 -21.094  0.00  0.00    +0.035 C 
ATOM     16  C   UNL     1      35.205 -18.596 -23.480  0.00  0.00    +0.017 C 
ATOM     17  C   UNL     1      35.506 -18.972 -22.108  0.00  0.00    +0.004 C 
ENDBRANCH   5  11
BRANCH   1  19
ATOM     18  N   UNL     1      32.246  -7.822 -23.393  0.00  0.00    +0.393 N 
ATOM     19  C   UNL     1      33.868 -10.272 -23.500  0.00  0.00    +0.075 C 
ATOM     20  C   UNL     1      32.630 -10.139 -22.613  0.00  0.00    -0.003 C 
ATOM     21  C   UNL     1      34.437  -8.891 -23.829  0.00  0.00    -0.003 C 
ATOM     22  C   UNL     1      31.618  -9.131 -23.169  0.00  0.00    -0.075 C 
ATOM     23  C   UNL     1      33.363  -7.925 -24.342  0.00  0.00    -0.075 C 
ATOM     24  H   UNL     1      32.619  -7.495 -22.503  0.00  0.00    -0.079 HD
BRANCH  18  25
ATOM     25  C   UNL     1      31.256  -6.856 -23.870  0.00  0.00    +0.010 C 
BRANCH  25  28
ATOM     26  O   UNL     1      31.934  -5.506 -21.985  0.00  0.00    -0.277 OA
ATOM     27  N   UNL     1      30.993  -4.465 -23.837  0.00  0.00    -0.304 N 
ATOM     28  C   UNL     1      31.434  -5.560 -23.107  0.00  0.00    +0.201 C 
ATOM     29  C   UNL     1      31.073  -3.106 -23.353  0.00  0.00    +0.111 C 
ATOM     30  H   UNL     1      30.607  -4.623 -24.729  0.00  0.00    +0.149 HD
ENDBRANCH  25  28
ENDBRANCH  18  25
ENDBRANCH   1  19
TORSDOF 4
ENDMDL
MODEL 5
REMARK VINA RESULT:      -9.9      4.716     10.412
REMARK  Name = 24801863
REMARK  4 active torsions:
REMARK  status: ('A' for Active; 'I' for Inactive)
REMARK    1  A    between atoms: N_1  and  C_19
REMARK    2  A    between atoms: C_5  and  C_11
REMARK    3  A    between atoms: N_18  and  C_25
REMARK    4  A    between atoms: C_25  and  C_28
REMARK                            x       y       z     vdW  Elec       q    Type
REMARK                         _______ _______ _______ _____ _____    ______ ____
ROOT
ATOM      1  N   UNL     1      32.117  -9.915 -22.157  0.00  0.00    -0.270 N 
ATOM      2  N   UNL     1      32.572 -12.035 -22.985  0.00  0.00    -0.336 NA
ATOM      3  N   UNL     1      31.885 -11.706 -20.699  0.00  0.00    -0.170 NA
ATOM      4  C   UNL     1      32.195 -11.278 -21.938  0.00  0.00    +0.145 C 
ATOM      5  C   UNL     1      32.637 -13.359 -22.736  0.00  0.00    +0.161 C 
ATOM      6  C   UNL     1      31.971 -13.041 -20.520  0.00  0.00    +0.114 C 
ATOM      7  C   UNL     1      32.345 -13.924 -21.512  0.00  0.00    +0.056 C 
ATOM      8  H   UNL     1      31.842  -9.338 -21.408  0.00  0.00    +0.159 HD
ENDROOT
BRANCH   5  11
ATOM      9  N   UNL     1      33.740 -15.339 -23.772  0.00  0.00    -0.246 N 
ATOM     10  N   UNL     1      33.386 -14.972 -25.951  0.00  0.00    -0.227 NA
ATOM     11  C   UNL     1      33.040 -14.164 -23.859  0.00  0.00    +0.107 C 
ATOM     12  C   UNL     1      33.927 -15.795 -25.075  0.00  0.00    +0.139 C 
ATOM     13  C   UNL     1      32.836 -13.962 -25.204  0.00  0.00    +0.118 C 
ATOM     14  C   UNL     1      34.208 -16.011 -22.647  0.00  0.00    +0.071 C 
ATOM     15  C   UNL     1      34.641 -17.019 -25.238  0.00  0.00    +0.035 C 
ATOM     16  C   UNL     1      34.880 -17.163 -22.808  0.00  0.00    +0.017 C 
ATOM     17  C   UNL     1      35.097 -17.674 -24.153  0.00  0.00    +0.004 C 
ENDBRANCH   5  11
BRANCH   1  19
ATOM     18  N   UNL     1      32.042  -6.387 -23.134  0.00  0.00    +0.393 N 
ATOM     19  C   UNL     1      32.418  -9.289 -23.430  0.00  0.00    +0.075 C 
ATOM     20  C   UNL     1      33.588  -8.315 -23.277  0.00  0.00    -0.003 C 
ATOM     21  C   UNL     1      31.185  -8.558 -23.964  0.00  0.00    -0.003 C 
ATOM     22  C   UNL     1      33.196  -7.048 -22.510  0.00  0.00    -0.075 C 
ATOM     23  C   UNL     1      30.876  -7.281 -23.173  0.00  0.00    -0.075 C 
ATOM     24  H   UNL     1      32.293  -6.156 -24.095  0.00  0.00    -0.079 HD
BRANCH  18  25
ATOM     25  C   UNL     1      31.715  -5.151 -22.425  0.00  0.00    +0.010 C 
BRANCH  25  28
ATOM     26  O   UNL     1      30.555  -3.177 -23.194  0.00  0.00    -0.277 OA
ATOM     27  N   UNL     1      31.998  -4.273 -24.646  0.00  0.00    -0.304 N 
ATOM     28  C   UNL     1      31.337  -4.092 -23.440  0.00  0.00    +0.201 C 
ATOM     29  C   UNL     1      31.840  -3.388 -25.777  0.00  0.00    +0.111 C 
ATOM     30  H   UNL     1      32.605  -5.044 -24.736  0.00  0.00    +0.149 HD
ENDBRANCH  25  28
ENDBRANCH  18  25
ENDBRANCH   1  19
TORSDOF 4
ENDMDL
MODEL 6
REMARK VINA RESULT:      -9.9      1.300      2.082
REMARK  Name = 24801863
REMARK  4 active torsions:
REMARK  status: ('A' for Active; 'I' for Inactive)
REMARK    1  A    between atoms: N_1  and  C_19
REMARK    2  A    between atoms: C_5  and  C_11
REMARK    3  A    between atoms: N_18  and  C_25
REMARK    4  A    between atoms: C_25  and  C_28
REMARK                            x       y       z     vdW  Elec       q    Type
REMARK                         _______ _______ _______ _____ _____    ______ ____
ROOT
ATOM      1  N   UNL     1      34.352 -16.740 -23.628  0.00  0.00    -0.270 N 
ATOM      2  N   UNL     1      33.931 -14.487 -24.003  0.00  0.00    -0.336 NA
ATOM      3  N   UNL     1      33.432 -16.149 -25.675  0.00  0.00    -0.170 NA
ATOM      4  C   UNL     1      33.885 -15.749 -24.472  0.00  0.00    +0.145 C 
ATOM      5  C   UNL     1      33.468 -13.547 -24.851  0.00  0.00    +0.161 C 
ATOM      6  C   UNL     1      32.983 -15.157 -26.473  0.00  0.00    +0.114 C 
ATOM      7  C   UNL     1      32.977 -13.826 -26.111  0.00  0.00    +0.056 C 
ATOM      8  H   UNL     1      34.328 -17.671 -23.946  0.00  0.00    +0.159 HD
ENDROOT
BRANCH   5  11
ATOM      9  N   UNL     1      32.789 -11.732 -23.284  0.00  0.00    -0.246 N 
ATOM     10  N   UNL     1      34.018 -10.012 -24.016  0.00  0.00    -0.227 NA
ATOM     11  C   UNL     1      33.519 -12.201 -24.345  0.00  0.00    +0.107 C 
ATOM     12  C   UNL     1      33.128 -10.391 -23.121  0.00  0.00    +0.139 C 
ATOM     13  C   UNL     1      34.263 -11.128 -24.775  0.00  0.00    +0.118 C 
ATOM     14  C   UNL     1      31.871 -12.398 -22.477  0.00  0.00    +0.071 C 
ATOM     15  C   UNL     1      32.485  -9.684 -22.064  0.00  0.00    +0.035 C 
ATOM     16  C   UNL     1      31.269 -11.724 -21.482  0.00  0.00    +0.017 C 
ATOM     17  C   UNL     1      31.595 -10.322 -21.279  0.00  0.00    +0.004 C 
ENDBRANCH   5  11
BRANCH   1  19
ATOM     18  N   UNL     1      34.914 -19.023 -20.822  0.00  0.00    +0.393 N 
ATOM     19  C   UNL     1      34.876 -16.481 -22.300  0.00  0.00    +0.075 C 
ATOM     20  C   UNL     1      36.157 -17.285 -22.072  0.00  0.00    -0.003 C 
ATOM     21  C   UNL     1      33.830 -16.836 -21.242  0.00  0.00    -0.003 C 
ATOM     22  C   UNL     1      35.883 -18.783 -21.899  0.00  0.00    -0.075 C 
ATOM     23  C   UNL     1      33.637 -18.350 -21.098  0.00  0.00    -0.075 C 
ATOM     24  H   UNL     1      35.296 -18.632 -19.962  0.00  0.00    -0.079 HD
BRANCH  18  25
ATOM     25  C   UNL     1      34.706 -20.458 -20.632  0.00  0.00    +0.010 C 
BRANCH  25  28
ATOM     26  O   UNL     1      37.017 -20.931 -20.113  0.00  0.00    -0.277 OA
ATOM     27  N   UNL     1      35.370 -21.567 -18.603  0.00  0.00    -0.304 N 
ATOM     28  C   UNL     1      35.835 -21.006 -19.785  0.00  0.00    +0.201 C 
ATOM     29  C   UNL     1      36.240 -22.138 -17.601  0.00  0.00    +0.111 C 
ATOM     30  H   UNL     1      34.399 -21.576 -18.440  0.00  0.00    +0.149 HD
ENDBRANCH  25  28
ENDBRANCH  18  25
ENDBRANCH   1  19
TORSDOF 4
ENDMDL
MODEL 7
REMARK VINA RESULT:      -9.8      2.502      4.845
REMARK  Name = 24801863
REMARK  4 active torsions:
REMARK  status: ('A' for Active; 'I' for Inactive)
REMARK    1  A    between atoms: N_1  and  C_19
REMARK    2  A    between atoms: C_5  and  C_11
REMARK    3  A    between atoms: N_18  and  C_25
REMARK    4  A    between atoms: C_25  and  C_28
REMARK                            x       y       z     vdW  Elec       q    Type
REMARK                         _______ _______ _______ _____ _____    ______ ____
ROOT
ATOM      1  N   UNL     1      33.955 -12.517 -24.791  0.00  0.00    -0.270 N 
ATOM      2  N   UNL     1      33.449 -10.516 -23.729  0.00  0.00    -0.336 NA
ATOM      3  N   UNL     1      35.173 -10.641 -25.408  0.00  0.00    -0.170 NA
ATOM      4  C   UNL     1      34.203 -11.166 -24.636  0.00  0.00    +0.145 C 
ATOM      5  C   UNL     1      33.718  -9.200 -23.604  0.00  0.00    +0.161 C 
ATOM      6  C   UNL     1      35.389  -9.320 -25.232  0.00  0.00    +0.114 C 
ATOM      7  C   UNL     1      34.686  -8.542 -24.336  0.00  0.00    +0.056 C 
ATOM      8  H   UNL     1      34.491 -13.017 -25.449  0.00  0.00    +0.159 HD
ENDROOT
BRANCH   5  11
ATOM      9  N   UNL     1      32.334  -7.280 -22.823  0.00  0.00    -0.246 N 
ATOM     10  N   UNL     1      31.761  -7.938 -20.763  0.00  0.00    -0.227 NA
ATOM     11  C   UNL     1      32.909  -8.510 -22.634  0.00  0.00    +0.107 C 
ATOM     12  C   UNL     1      31.643  -6.974 -21.653  0.00  0.00    +0.139 C 
ATOM     13  C   UNL     1      32.543  -8.890 -21.365  0.00  0.00    +0.118 C 
ATOM     14  C   UNL     1      32.381  -6.440 -23.932  0.00  0.00    +0.071 C 
ATOM     15  C   UNL     1      30.955  -5.725 -21.615  0.00  0.00    +0.035 C 
ATOM     16  C   UNL     1      31.731  -5.266 -23.888  0.00  0.00    +0.017 C 
ATOM     17  C   UNL     1      30.997  -4.908 -22.684  0.00  0.00    +0.004 C 
ENDBRANCH   5  11
BRANCH   1  19
ATOM     18  N   UNL     1      34.136 -15.763 -23.107  0.00  0.00    +0.393 N 
ATOM     19  C   UNL     1      32.948 -13.239 -24.037  0.00  0.00    +0.075 C 
ATOM     20  C   UNL     1      33.415 -13.450 -22.597  0.00  0.00    -0.003 C 
ATOM     21  C   UNL     1      32.654 -14.585 -24.704  0.00  0.00    -0.003 C 
ATOM     22  C   UNL     1      34.537 -14.490 -22.494  0.00  0.00    -0.075 C 
ATOM     23  C   UNL     1      33.802 -15.586 -24.526  0.00  0.00    -0.075 C 
ATOM     24  H   UNL     1      33.300 -16.095 -22.626  0.00  0.00    -0.079 HD
BRANCH  18  25
ATOM     25  C   UNL     1      35.194 -16.761 -22.951  0.00  0.00    +0.010 C 
BRANCH  25  28
ATOM     26  O   UNL     1      35.263 -17.203 -20.577  0.00  0.00    -0.277 OA
ATOM     27  N   UNL     1      34.224 -18.736 -21.979  0.00  0.00    -0.304 N 
ATOM     28  C   UNL     1      34.920 -17.569 -21.699  0.00  0.00    +0.201 C 
ATOM     29  C   UNL     1      33.811 -19.676 -20.962  0.00  0.00    +0.111 C 
ATOM     30  H   UNL     1      34.000 -18.934 -22.917  0.00  0.00    +0.149 HD
ENDBRANCH  25  28
ENDBRANCH  18  25
ENDBRANCH   1  19
TORSDOF 4
ENDMDL
MODEL 8
REMARK VINA RESULT:      -9.7      1.994      3.384
REMARK  Name = 24801863
REMARK  4 active torsions:
REMARK  status: ('A' for Active; 'I' for Inactive)
REMARK    1  A    between atoms: N_1  and  C_19
REMARK    2  A    between atoms: C_5  and  C_11
REMARK    3  A    between atoms: N_18  and  C_25
REMARK    4  A    between atoms: C_25  and  C_28
REMARK                            x       y       z     vdW  Elec       q    Type
REMARK                         _______ _______ _______ _____ _____    ______ ____
ROOT
ATOM      1  N   UNL     1      34.929 -19.960 -22.209  0.00  0.00    -0.270 N 
ATOM      2  N   UNL     1      34.613 -17.797 -22.990  0.00  0.00    -0.336 NA
ATOM      3  N   UNL     1      34.760 -19.666 -24.504  0.00  0.00    -0.170 NA
ATOM      4  C   UNL     1      34.760 -19.104 -23.280  0.00  0.00    +0.145 C 
ATOM      5  C   UNL     1      34.450 -16.991 -24.059  0.00  0.00    +0.161 C 
ATOM      6  C   UNL     1      34.593 -18.801 -25.527  0.00  0.00    +0.114 C 
ATOM      7  C   UNL     1      34.432 -17.441 -25.363  0.00  0.00    +0.056 C 
ATOM      8  H   UNL     1      35.037 -20.921 -22.393  0.00  0.00    +0.159 HD
ENDROOT
BRANCH   5  11
ATOM      9  N   UNL     1      33.922 -14.624 -24.635  0.00  0.00    -0.246 N 
ATOM     10  N   UNL     1      34.218 -13.598 -22.669  0.00  0.00    -0.227 NA
ATOM     11  C   UNL     1      34.293 -15.596 -23.742  0.00  0.00    +0.107 C 
ATOM     12  C   UNL     1      33.889 -13.421 -23.933  0.00  0.00    +0.139 C 
ATOM     13  C   UNL     1      34.469 -14.941 -22.546  0.00  0.00    +0.118 C 
ATOM     14  C   UNL     1      33.618 -14.734 -25.989  0.00  0.00    +0.071 C 
ATOM     15  C   UNL     1      33.523 -12.254 -24.664  0.00  0.00    +0.035 C 
ATOM     16  C   UNL     1      33.275 -13.629 -26.671  0.00  0.00    +0.017 C 
ATOM     17  C   UNL     1      33.229 -12.353 -25.975  0.00  0.00    +0.004 C 
ENDBRANCH   5  11
BRANCH   1  19
ATOM     18  N   UNL     1      34.221 -21.804 -19.126  0.00  0.00    +0.393 N 
ATOM     19  C   UNL     1      34.955 -19.520 -20.826  0.00  0.00    +0.075 C 
ATOM     20  C   UNL     1      35.986 -20.326 -20.035  0.00  0.00    -0.003 C 
ATOM     21  C   UNL     1      33.568 -19.669 -20.199  0.00  0.00    -0.003 C 
ATOM     22  C   UNL     1      35.533 -21.769 -19.785  0.00  0.00    -0.075 C 
ATOM     23  C   UNL     1      33.199 -21.135 -19.942  0.00  0.00    -0.075 C 
ATOM     24  H   UNL     1      34.298 -21.299 -18.244  0.00  0.00    -0.079 HD
BRANCH  18  25
ATOM     25  C   UNL     1      33.827 -23.184 -18.844  0.00  0.00    +0.010 C 
BRANCH  25  28
ATOM     26  O   UNL     1      34.612 -23.578 -16.593  0.00  0.00    -0.277 OA
ATOM     27  N   UNL     1      32.350 -23.183 -16.945  0.00  0.00    -0.304 N 
ATOM     28  C   UNL     1      33.668 -23.349 -17.347  0.00  0.00    +0.201 C 
ATOM     29  C   UNL     1      31.926 -23.261 -15.566  0.00  0.00    +0.111 C 
ATOM     30  H   UNL     1      31.670 -23.003 -17.635  0.00  0.00    +0.149 HD
ENDBRANCH  25  28
ENDBRANCH  18  25
ENDBRANCH   1  19
TORSDOF 4
ENDMDL
MODEL 9
REMARK VINA RESULT:      -9.6      9.209     12.136
REMARK  Name = 24801863
REMARK  4 active torsions:
REMARK  status: ('A' for Active; 'I' for Inactive)
REMARK    1  A    between atoms: N_1  and  C_19
REMARK    2  A    between atoms: C_5  and  C_11
REMARK    3  A    between atoms: N_18  and  C_25
REMARK    4  A    between atoms: C_25  and  C_28
REMARK                            x       y       z     vdW  Elec       q    Type
REMARK                         _______ _______ _______ _____ _____    ______ ____
ROOT
ATOM      1  N   UNL     1      31.936 -24.787 -14.415  0.00  0.00    -0.270 N 
ATOM      2  N   UNL     1      33.940 -23.789 -15.030  0.00  0.00    -0.336 NA
ATOM      3  N   UNL     1      33.549 -24.521 -12.767  0.00  0.00    -0.170 NA
ATOM      4  C   UNL     1      33.196 -24.346 -14.055  0.00  0.00    +0.145 C 
ATOM      5  C   UNL     1      35.163 -23.371 -14.644  0.00  0.00    +0.161 C 
ATOM      6  C   UNL     1      34.784 -24.080 -12.451  0.00  0.00    +0.114 C 
ATOM      7  C   UNL     1      35.643 -23.491 -13.356  0.00  0.00    +0.056 C 
ATOM      8  H   UNL     1      31.372 -25.200 -13.721  0.00  0.00    +0.159 HD
ENDROOT
BRANCH   5  11
ATOM      9  N   UNL     1      35.507 -22.514 -16.959  0.00  0.00    -0.246 N 
ATOM     10  N   UNL     1      37.641 -21.845 -16.885  0.00  0.00    -0.227 NA
ATOM     11  C   UNL     1      35.953 -22.777 -15.689  0.00  0.00    +0.107 C 
ATOM     12  C   UNL     1      36.573 -21.944 -17.652  0.00  0.00    +0.139 C 
ATOM     13  C   UNL     1      37.262 -22.358 -15.671  0.00  0.00    +0.118 C 
ATOM     14  C   UNL     1      34.255 -22.739 -17.522  0.00  0.00    +0.071 C 
ATOM     15  C   UNL     1      36.343 -21.582 -19.011  0.00  0.00    +0.035 C 
ATOM     16  C   UNL     1      34.046 -22.395 -18.804  0.00  0.00    +0.017 C 
ATOM     17  C   UNL     1      35.133 -21.798 -19.563  0.00  0.00    +0.004 C 
ENDBRANCH   5  11
BRANCH   1  19
ATOM     18  N   UNL     1      28.947 -23.058 -15.631  0.00  0.00    +0.393 N 
ATOM     19  C   UNL     1      31.400 -24.675 -15.758  0.00  0.00    +0.075 C 
ATOM     20  C   UNL     1      31.354 -23.208 -16.187  0.00  0.00    -0.003 C 
ATOM     21  C   UNL     1      30.001 -25.291 -15.821  0.00  0.00    -0.003 C 
ATOM     22  C   UNL     1      30.259 -22.420 -15.460  0.00  0.00    -0.075 C 
ATOM     23  C   UNL     1      28.952 -24.430 -15.107  0.00  0.00    -0.075 C 
ATOM     24  H   UNL     1      28.747 -23.103 -16.629  0.00  0.00    -0.079 HD
BRANCH  18  25
ATOM     25  C   UNL     1      27.905 -22.265 -14.979  0.00  0.00    +0.010 C 
BRANCH  25  28
ATOM     26  O   UNL     1      25.572 -22.085 -15.581  0.00  0.00    -0.277 OA
ATOM     27  N   UNL     1      27.182 -21.932 -17.249  0.00  0.00    -0.304 N 
ATOM     28  C   UNL     1      26.748 -22.096 -15.942  0.00  0.00    +0.201 C 
ATOM     29  C   UNL     1      26.284 -21.724 -18.362  0.00  0.00    +0.111 C 
ATOM     30  H   UNL     1      28.150 -21.960 -17.427  0.00  0.00    +0.149 HD
ENDBRANCH  25  28
ENDBRANCH  18  25
ENDBRANCH   1  19
TORSDOF 4
ENDMDL
