MODEL 1
REMARK VINA RESULT:     -10.3      0.000      0.000
REMARK  Name = 44129631
REMARK  3 active torsions:
REMARK  status: ('A' for Active; 'I' for Inactive)
REMARK    1  A    between atoms: C_5  and  C_15
REMARK    2  A    between atoms: C_11  and  S_20
REMARK    3  A    between atoms: S_20  and  N_23
REMARK                            x       y       z     vdW  Elec       q    Type
REMARK                         _______ _______ _______ _____ _____    ______ ____
ROOT
ATOM      1  S   UNL     1      33.463 -21.762 -19.408  0.00  0.00    +0.060 S 
ATOM      2  O   UNL     1      32.318 -21.278 -18.664  0.00  0.00    -0.153 OA
ATOM      3  O   UNL     1      33.382 -22.946 -20.241  0.00  0.00    -0.153 OA
ATOM      4  N   UNL     1      34.098 -20.470 -20.324  0.00  0.00    -0.180 NA
ATOM      5  C   UNL     1      35.503 -20.627 -20.758  0.00  0.00    +0.080 C 
ATOM      6  C   UNL     1      36.387 -20.519 -19.513  0.00  0.00    +0.045 C 
ATOM      7  C   UNL     1      36.027 -21.481 -18.405  0.00  0.00    -0.002 C 
ATOM      8  C   UNL     1      34.761 -22.063 -18.251  0.00  0.00    +0.119 C 
ATOM      9  C   UNL     1      36.998 -21.763 -17.431  0.00  0.00    -0.006 C 
ATOM     10  C   UNL     1      34.469 -22.908 -17.176  0.00  0.00    +0.039 C 
ATOM     11  C   UNL     1      35.453 -23.182 -16.230  0.00  0.00    +0.120 C 
ATOM     12  C   UNL     1      36.716 -22.609 -16.356  0.00  0.00    -0.003 C 
ATOM     13  C   UNL     1      37.792 -22.876 -15.355  0.00  0.00    +0.032 C 
ATOM     14  H   UNL     1      34.037 -19.623 -19.758  0.00  0.00    +0.149 HD
ENDROOT
BRANCH   5  15
ATOM     15  C   UNL     1      35.830 -19.545 -21.772  0.00  0.00    +0.016 C 
ATOM     16  C   UNL     1      34.883 -19.536 -22.968  0.00  0.00    +0.001 C 
ATOM     17  C   UNL     1      35.668 -18.133 -21.219  0.00  0.00    +0.001 C 
ATOM     18  C   UNL     1      35.081 -18.155 -23.587  0.00  0.00    +0.000 C 
ATOM     19  C   UNL     1      35.598 -17.255 -22.464  0.00  0.00    +0.000 C 
ENDBRANCH   5  15
BRANCH  11  20
ATOM     20  S   UNL     1      35.068 -24.246 -14.895  0.00  0.00    +0.063 S 
ATOM     21  O   UNL     1      35.560 -25.577 -15.216  0.00  0.00    -0.153 OA
ATOM     22  O   UNL     1      35.481 -23.597 -13.659  0.00  0.00    -0.153 OA
BRANCH  20  23
ATOM     23  N   UNL     1      33.358 -24.253 -14.971  0.00  0.00    -0.160 NA
ATOM     24  N   UNL     1      30.561 -23.871 -14.420  0.00  0.00    +0.387 N 
ATOM     25  C   UNL     1      32.717 -22.919 -15.152  0.00  0.00    +0.073 C 
ATOM     26  C   UNL     1      32.672 -25.046 -13.911  0.00  0.00    +0.073 C 
ATOM     27  C   UNL     1      31.236 -23.104 -15.476  0.00  0.00    -0.058 C 
ATOM     28  C   UNL     1      31.191 -25.190 -14.258  0.00  0.00    -0.058 C 
ATOM     29  C   UNL     1      29.137 -24.015 -14.719  0.00  0.00    -0.101 C 
ATOM     30  H   UNL     1      30.654 -23.360 -13.541  0.00  0.00    -0.080 HD
ENDBRANCH  20  23
ENDBRANCH  11  20
TORSDOF 3
ENDMDL
MODEL 2
REMARK VINA RESULT:      -9.6      2.574      4.154
REMARK  Name = 44129631
REMARK  3 active torsions:
REMARK  status: ('A' for Active; 'I' for Inactive)
REMARK    1  A    between atoms: C_5  and  C_15
REMARK    2  A    between atoms: C_11  and  S_20
REMARK    3  A    between atoms: S_20  and  N_23
REMARK                            x       y       z     vdW  Elec       q    Type
REMARK                         _______ _______ _______ _____ _____    ______ ____
ROOT
ATOM      1  S   UNL     1      36.628 -21.829 -17.657  0.00  0.00    +0.060 S 
ATOM      2  O   UNL     1      37.498 -22.978 -17.512  0.00  0.00    -0.153 OA
ATOM      3  O   UNL     1      36.844 -20.613 -16.898  0.00  0.00    -0.153 OA
ATOM      4  N   UNL     1      36.514 -21.444 -19.316  0.00  0.00    -0.180 NA
ATOM      5  C   UNL     1      35.336 -20.638 -19.703  0.00  0.00    +0.080 C 
ATOM      6  C   UNL     1      34.099 -21.525 -19.558  0.00  0.00    +0.045 C 
ATOM      7  C   UNL     1      33.933 -22.149 -18.192  0.00  0.00    -0.002 C 
ATOM      8  C   UNL     1      34.985 -22.354 -17.289  0.00  0.00    +0.119 C 
ATOM      9  C   UNL     1      32.658 -22.610 -17.825  0.00  0.00    -0.006 C 
ATOM     10  C   UNL     1      34.781 -22.982 -16.056  0.00  0.00    +0.039 C 
ATOM     11  C   UNL     1      33.505 -23.419 -15.711  0.00  0.00    +0.120 C 
ATOM     12  C   UNL     1      32.444 -23.235 -16.594  0.00  0.00    -0.003 C 
ATOM     13  C   UNL     1      31.065 -23.699 -16.258  0.00  0.00    +0.032 C 
ATOM     14  H   UNL     1      36.482 -22.320 -19.840  0.00  0.00    +0.149 HD
ENDROOT
BRANCH   5  15
ATOM     15  C   UNL     1      35.516 -20.156 -21.132  0.00  0.00    +0.016 C 
ATOM     16  C   UNL     1      34.217 -19.681 -21.775  0.00  0.00    +0.001 C 
ATOM     17  C   UNL     1      36.404 -18.921 -21.243  0.00  0.00    +0.001 C 
ATOM     18  C   UNL     1      34.676 -18.843 -22.965  0.00  0.00    +0.000 C 
ATOM     19  C   UNL     1      36.089 -18.363 -22.627  0.00  0.00    +0.000 C 
ENDBRANCH   5  15
BRANCH  11  20
ATOM     20  S   UNL     1      33.271 -24.199 -14.162  0.00  0.00    +0.063 S 
ATOM     21  O   UNL     1      32.685 -23.231 -13.248  0.00  0.00    -0.153 OA
ATOM     22  O   UNL     1      32.611 -25.477 -14.388  0.00  0.00    -0.153 OA
BRANCH  20  23
ATOM     23  N   UNL     1      34.893 -24.490 -13.698  0.00  0.00    -0.160 NA
ATOM     24  N   UNL     1      37.312 -25.661 -12.673  0.00  0.00    +0.387 N 
ATOM     25  C   UNL     1      35.587 -25.583 -14.437  0.00  0.00    +0.073 C 
ATOM     26  C   UNL     1      35.132 -24.589 -12.230  0.00  0.00    +0.073 C 
ATOM     27  C   UNL     1      37.080 -25.546 -14.120  0.00  0.00    -0.058 C 
ATOM     28  C   UNL     1      36.635 -24.571 -11.955  0.00  0.00    -0.058 C 
ATOM     29  C   UNL     1      38.744 -25.659 -12.380  0.00  0.00    -0.101 C 
ATOM     30  H   UNL     1      36.920 -26.548 -12.355  0.00  0.00    -0.080 HD
ENDBRANCH  20  23
ENDBRANCH  11  20
TORSDOF 3
ENDMDL
MODEL 3
REMARK VINA RESULT:      -9.5      7.018     11.976
REMARK  Name = 44129631
REMARK  3 active torsions:
REMARK  status: ('A' for Active; 'I' for Inactive)
REMARK    1  A    between atoms: C_5  and  C_15
REMARK    2  A    between atoms: C_11  and  S_20
REMARK    3  A    between atoms: S_20  and  N_23
REMARK                            x       y       z     vdW  Elec       q    Type
REMARK                         _______ _______ _______ _____ _____    ______ ____
ROOT
ATOM      1  S   UNL     1      33.908 -15.004 -21.002  0.00  0.00    +0.060 S 
ATOM      2  O   UNL     1      32.768 -14.349 -20.393  0.00  0.00    -0.153 OA
ATOM      3  O   UNL     1      35.263 -14.723 -20.572  0.00  0.00    -0.153 OA
ATOM      4  N   UNL     1      33.643 -16.690 -20.968  0.00  0.00    -0.180 NA
ATOM      5  C   UNL     1      34.434 -17.478 -21.938  0.00  0.00    +0.080 C 
ATOM      6  C   UNL     1      33.900 -17.162 -23.337  0.00  0.00    +0.045 C 
ATOM      7  C   UNL     1      33.885 -15.690 -23.682  0.00  0.00    -0.002 C 
ATOM      8  C   UNL     1      33.858 -14.661 -22.732  0.00  0.00    +0.119 C 
ATOM      9  C   UNL     1      33.828 -15.329 -25.038  0.00  0.00    -0.006 C 
ATOM     10  C   UNL     1      33.795 -13.316 -23.109  0.00  0.00    +0.039 C 
ATOM     11  C   UNL     1      33.752 -12.983 -24.461  0.00  0.00    +0.120 C 
ATOM     12  C   UNL     1      33.768 -13.989 -25.425  0.00  0.00    -0.003 C 
ATOM     13  C   UNL     1      33.716 -13.666 -26.883  0.00  0.00    +0.032 C 
ATOM     14  H   UNL     1      32.655 -16.858 -21.158  0.00  0.00    +0.149 HD
ENDROOT
BRANCH   5  15
ATOM     15  C   UNL     1      34.294 -18.953 -21.606  0.00  0.00    +0.016 C 
ATOM     16  C   UNL     1      35.443 -19.490 -20.758  0.00  0.00    +0.001 C 
ATOM     17  C   UNL     1      33.079 -19.261 -20.737  0.00  0.00    +0.001 C 
ATOM     18  C   UNL     1      34.896 -20.788 -20.171  0.00  0.00    +0.000 C 
ATOM     19  C   UNL     1      33.374 -20.645 -20.168  0.00  0.00    +0.000 C 
ENDBRANCH   5  15
BRANCH  11  20
ATOM     20  S   UNL     1      33.676 -11.294 -24.913  0.00  0.00    +0.063 S 
ATOM     21  O   UNL     1      35.017 -10.857 -25.269  0.00  0.00    -0.153 OA
ATOM     22  O   UNL     1      32.581 -11.122 -25.856  0.00  0.00    -0.153 OA
BRANCH  20  23
ATOM     23  N   UNL     1      33.237 -10.580 -23.420  0.00  0.00    -0.160 NA
ATOM     24  N   UNL     1      31.930  -9.066 -21.354  0.00  0.00    +0.387 N 
ATOM     25  C   UNL     1      31.933 -11.027 -22.853  0.00  0.00    +0.073 C 
ATOM     26  C   UNL     1      33.382  -9.099 -23.351  0.00  0.00    +0.073 C 
ATOM     27  C   UNL     1      31.804 -10.529 -21.415  0.00  0.00    -0.058 C 
ATOM     28  C   UNL     1      33.225  -8.637 -21.902  0.00  0.00    -0.058 C 
ATOM     29  C   UNL     1      31.771  -8.593 -19.980  0.00  0.00    -0.101 C 
ATOM     30  H   UNL     1      31.188  -8.655 -21.922  0.00  0.00    -0.080 HD
ENDBRANCH  20  23
ENDBRANCH  11  20
TORSDOF 3
ENDMDL
MODEL 4
REMARK VINA RESULT:      -9.3      6.695     10.619
REMARK  Name = 44129631
REMARK  3 active torsions:
REMARK  status: ('A' for Active; 'I' for Inactive)
REMARK    1  A    between atoms: C_5  and  C_15
REMARK    2  A    between atoms: C_11  and  S_20
REMARK    3  A    between atoms: S_20  and  N_23
REMARK                            x       y       z     vdW  Elec       q    Type
REMARK                         _______ _______ _______ _____ _____    ______ ____
ROOT
ATOM      1  S   UNL     1      32.985 -14.156 -20.761  0.00  0.00    +0.060 S 
ATOM      2  O   UNL     1      34.300 -14.473 -20.244  0.00  0.00    -0.153 OA
ATOM      3  O   UNL     1      31.813 -14.918 -20.377  0.00  0.00    -0.153 OA
ATOM      4  N   UNL     1      32.688 -12.495 -20.498  0.00  0.00    -0.180 NA
ATOM      5  C   UNL     1      31.644 -11.892 -21.355  0.00  0.00    +0.080 C 
ATOM      6  C   UNL     1      32.193 -11.833 -22.782  0.00  0.00    +0.045 C 
ATOM      7  C   UNL     1      32.671 -13.160 -23.324  0.00  0.00    -0.002 C 
ATOM      8  C   UNL     1      33.070 -14.238 -22.522  0.00  0.00    +0.119 C 
ATOM      9  C   UNL     1      32.785 -13.305 -24.716  0.00  0.00    -0.006 C 
ATOM     10  C   UNL     1      33.552 -15.427 -23.078  0.00  0.00    +0.039 C 
ATOM     11  C   UNL     1      33.643 -15.550 -24.462  0.00  0.00    +0.120 C 
ATOM     12  C   UNL     1      33.261 -14.490 -25.280  0.00  0.00    -0.003 C 
ATOM     13  C   UNL     1      33.354 -14.587 -26.769  0.00  0.00    +0.032 C 
ATOM     14  H   UNL     1      33.559 -11.990 -20.661  0.00  0.00    +0.149 HD
ENDROOT
BRANCH   5  15
ATOM     15  C   UNL     1      31.310 -10.508 -20.826  0.00  0.00    +0.016 C 
ATOM     16  C   UNL     1      31.904 -10.232 -19.448  0.00  0.00    +0.001 C 
ATOM     17  C   UNL     1      31.906  -9.383 -21.667  0.00  0.00    +0.001 C 
ATOM     18  C   UNL     1      31.856  -8.712 -19.321  0.00  0.00    +0.000 C 
ATOM     19  C   UNL     1      31.845  -8.166 -20.749  0.00  0.00    +0.000 C 
ENDBRANCH   5  15
BRANCH  11  20
ATOM     20  S   UNL     1      34.246 -17.048 -25.138  0.00  0.00    +0.063 S 
ATOM     21  O   UNL     1      33.147 -17.714 -25.820  0.00  0.00    -0.153 OA
ATOM     22  O   UNL     1      35.479 -16.763 -25.855  0.00  0.00    -0.153 OA
BRANCH  20  23
ATOM     23  N   UNL     1      34.623 -17.917 -23.712  0.00  0.00    -0.160 NA
ATOM     24  N   UNL     1      35.912 -19.545 -21.722  0.00  0.00    +0.387 N 
ATOM     25  C   UNL     1      35.782 -17.397 -22.931  0.00  0.00    +0.073 C 
ATOM     26  C   UNL     1      34.689 -19.398 -23.863  0.00  0.00    +0.073 C 
ATOM     27  C   UNL     1      35.829 -18.086 -21.569  0.00  0.00    -0.058 C 
ATOM     28  C   UNL     1      34.758 -20.049 -22.482  0.00  0.00    -0.058 C 
ATOM     29  C   UNL     1      35.991 -20.196 -20.416  0.00  0.00    -0.101 C 
ATOM     30  H   UNL     1      36.761 -19.766 -22.243  0.00  0.00    -0.080 HD
ENDBRANCH  20  23
ENDBRANCH  11  20
TORSDOF 3
ENDMDL
MODEL 5
REMARK VINA RESULT:      -9.2      2.480      4.108
REMARK  Name = 44129631
REMARK  3 active torsions:
REMARK  status: ('A' for Active; 'I' for Inactive)
REMARK    1  A    between atoms: C_5  and  C_15
REMARK    2  A    between atoms: C_11  and  S_20
REMARK    3  A    between atoms: S_20  and  N_23
REMARK                            x       y       z     vdW  Elec       q    Type
REMARK                         _______ _______ _______ _____ _____    ______ ____
ROOT
ATOM      1  S   UNL     1      33.603 -22.440 -19.150  0.00  0.00    +0.060 S 
ATOM      2  O   UNL     1      32.372 -22.161 -18.439  0.00  0.00    -0.153 OA
ATOM      3  O   UNL     1      33.793 -23.676 -19.884  0.00  0.00    -0.153 OA
ATOM      4  N   UNL     1      33.946 -21.118 -20.174  0.00  0.00    -0.180 NA
ATOM      5  C   UNL     1      35.355 -20.995 -20.606  0.00  0.00    +0.080 C 
ATOM      6  C   UNL     1      36.181 -20.595 -19.382  0.00  0.00    +0.045 C 
ATOM      7  C   UNL     1      36.031 -21.519 -18.196  0.00  0.00    -0.002 C 
ATOM      8  C   UNL     1      34.924 -22.351 -17.984  0.00  0.00    +0.119 C 
ATOM      9  C   UNL     1      37.031 -21.499 -17.210  0.00  0.00    -0.006 C 
ATOM     10  C   UNL     1      34.815 -23.150 -16.842  0.00  0.00    +0.039 C 
ATOM     11  C   UNL     1      35.826 -23.122 -15.885  0.00  0.00    +0.120 C 
ATOM     12  C   UNL     1      36.933 -22.297 -16.068  0.00  0.00    -0.003 C 
ATOM     13  C   UNL     1      38.032 -22.237 -15.057  0.00  0.00    +0.032 C 
ATOM     14  H   UNL     1      33.693 -20.262 -19.679  0.00  0.00    +0.149 HD
ENDROOT
BRANCH   5  15
ATOM     15  C   UNL     1      35.445 -19.955 -21.708  0.00  0.00    +0.016 C 
ATOM     16  C   UNL     1      34.106 -19.297 -22.025  0.00  0.00    +0.001 C 
ATOM     17  C   UNL     1      36.314 -18.758 -21.334  0.00  0.00    +0.001 C 
ATOM     18  C   UNL     1      34.486 -18.023 -22.774  0.00  0.00    +0.000 C 
ATOM     19  C   UNL     1      35.912 -17.683 -22.339  0.00  0.00    +0.000 C 
ENDBRANCH   5  15
BRANCH  11  20
ATOM     20  S   UNL     1      35.673 -24.133 -14.464  0.00  0.00    +0.063 S 
ATOM     21  O   UNL     1      35.383 -23.276 -13.325  0.00  0.00    -0.153 OA
ATOM     22  O   UNL     1      34.785 -25.240 -14.784  0.00  0.00    -0.153 OA
BRANCH  20  23
ATOM     23  N   UNL     1      37.271 -24.729 -14.318  0.00  0.00    -0.160 NA
ATOM     24  N   UNL     1      39.577 -26.369 -13.804  0.00  0.00    +0.387 N 
ATOM     25  C   UNL     1      37.616 -25.867 -15.217  0.00  0.00    +0.073 C 
ATOM     26  C   UNL     1      37.738 -24.976 -12.924  0.00  0.00    +0.073 C 
ATOM     27  C   UNL     1      39.123 -26.109 -15.178  0.00  0.00    -0.058 C 
ATOM     28  C   UNL     1      39.244 -25.236 -12.929  0.00  0.00    -0.058 C 
ATOM     29  C   UNL     1      41.014 -26.634 -13.779  0.00  0.00    -0.101 C 
ATOM     30  H   UNL     1      39.092 -27.197 -13.457  0.00  0.00    -0.080 HD
ENDBRANCH  20  23
ENDBRANCH  11  20
TORSDOF 3
ENDMDL
MODEL 6
REMARK VINA RESULT:      -8.8      5.078      8.680
REMARK  Name = 44129631
REMARK  3 active torsions:
REMARK  status: ('A' for Active; 'I' for Inactive)
REMARK    1  A    between atoms: C_5  and  C_15
REMARK    2  A    between atoms: C_11  and  S_20
REMARK    3  A    between atoms: S_20  and  N_23
REMARK                            x       y       z     vdW  Elec       q    Type
REMARK                         _______ _______ _______ _____ _____    ______ ____
ROOT
ATOM      1  S   UNL     1      33.606 -14.601 -20.461  0.00  0.00    +0.060 S 
ATOM      2  O   UNL     1      34.884 -14.505 -19.783  0.00  0.00    -0.153 OA
ATOM      3  O   UNL     1      32.470 -15.260 -19.849  0.00  0.00    -0.153 OA
ATOM      4  N   UNL     1      33.146 -13.037 -20.968  0.00  0.00    -0.180 NA
ATOM      5  C   UNL     1      32.150 -12.990 -22.060  0.00  0.00    +0.080 C 
ATOM      6  C   UNL     1      32.836 -13.483 -23.336  0.00  0.00    +0.045 C 
ATOM      7  C   UNL     1      33.477 -14.846 -23.214  0.00  0.00    -0.002 C 
ATOM      8  C   UNL     1      33.880 -15.419 -22.000  0.00  0.00    +0.119 C 
ATOM      9  C   UNL     1      33.746 -15.559 -24.393  0.00  0.00    -0.006 C 
ATOM     10  C   UNL     1      34.514 -16.664 -21.951  0.00  0.00    +0.039 C 
ATOM     11  C   UNL     1      34.758 -17.358 -23.134  0.00  0.00    +0.120 C 
ATOM     12  C   UNL     1      34.375 -16.805 -24.354  0.00  0.00    -0.003 C 
ATOM     13  C   UNL     1      34.629 -17.519 -25.642  0.00  0.00    +0.032 C 
ATOM     14  H   UNL     1      33.985 -12.550 -21.286  0.00  0.00    +0.149 HD
ENDROOT
BRANCH   5  15
ATOM     15  C   UNL     1      31.649 -11.564 -22.209  0.00  0.00    +0.016 C 
ATOM     16  C   UNL     1      31.617 -10.797 -20.891  0.00  0.00    +0.001 C 
ATOM     17  C   UNL     1      32.560 -10.694 -23.069  0.00  0.00    +0.001 C 
ATOM     18  C   UNL     1      31.546  -9.333 -21.316  0.00  0.00    +0.000 C 
ATOM     19  C   UNL     1      32.142  -9.269 -22.723  0.00  0.00    +0.000 C 
ENDBRANCH   5  15
BRANCH  11  20
ATOM     20  S   UNL     1      35.550 -18.916 -23.052  0.00  0.00    +0.063 S 
ATOM     21  O   UNL     1      35.165 -19.685 -24.225  0.00  0.00    -0.153 OA
ATOM     22  O   UNL     1      36.958 -18.699 -22.755  0.00  0.00    -0.153 OA
BRANCH  20  23
ATOM     23  N   UNL     1      34.792 -19.590 -21.672  0.00  0.00    -0.160 NA
ATOM     24  N   UNL     1      33.418 -21.334 -19.844  0.00  0.00    +0.387 N 
ATOM     25  C   UNL     1      35.483 -20.766 -21.070  0.00  0.00    +0.073 C 
ATOM     26  C   UNL     1      33.326 -19.827 -21.798  0.00  0.00    +0.073 C 
ATOM     27  C   UNL     1      34.860 -21.084 -19.713  0.00  0.00    -0.058 C 
ATOM     28  C   UNL     1      32.743 -20.164 -20.426  0.00  0.00    -0.058 C 
ATOM     29  C   UNL     1      32.834 -21.671 -18.547  0.00  0.00    -0.101 C 
ATOM     30  H   UNL     1      33.285 -22.127 -20.472  0.00  0.00    -0.080 HD
ENDBRANCH  20  23
ENDBRANCH  11  20
TORSDOF 3
ENDMDL
MODEL 7
REMARK VINA RESULT:      -8.5     10.655     15.015
REMARK  Name = 44129631
REMARK  3 active torsions:
REMARK  status: ('A' for Active; 'I' for Inactive)
REMARK    1  A    between atoms: C_5  and  C_15
REMARK    2  A    between atoms: C_11  and  S_20
REMARK    3  A    between atoms: S_20  and  N_23
REMARK                            x       y       z     vdW  Elec       q    Type
REMARK                         _______ _______ _______ _____ _____    ______ ____
ROOT
ATOM      1  S   UNL     1      33.935 -11.631 -25.162  0.00  0.00    +0.060 S 
ATOM      2  O   UNL     1      35.185 -10.911 -25.294  0.00  0.00    -0.153 OA
ATOM      3  O   UNL     1      32.936 -11.616 -26.211  0.00  0.00    -0.153 OA
ATOM      4  N   UNL     1      34.286 -13.248 -24.740  0.00  0.00    -0.180 NA
ATOM      5  C   UNL     1      33.178 -13.995 -24.108  0.00  0.00    +0.080 C 
ATOM      6  C   UNL     1      32.958 -13.406 -22.712  0.00  0.00    +0.045 C 
ATOM      7  C   UNL     1      32.716 -11.915 -22.694  0.00  0.00    -0.002 C 
ATOM      8  C   UNL     1      33.131 -11.039 -23.707  0.00  0.00    +0.119 C 
ATOM      9  C   UNL     1      32.096 -11.358 -21.564  0.00  0.00    -0.006 C 
ATOM     10  C   UNL     1      32.924  -9.660 -23.614  0.00  0.00    +0.039 C 
ATOM     11  C   UNL     1      32.295  -9.134 -22.488  0.00  0.00    +0.120 C 
ATOM     12  C   UNL     1      31.882  -9.982 -21.463  0.00  0.00    -0.003 C 
ATOM     13  C   UNL     1      31.211  -9.450 -20.239  0.00  0.00    +0.032 C 
ATOM     14  H   UNL     1      35.071 -13.239 -24.089  0.00  0.00    +0.149 HD
ENDROOT
BRANCH   5  15
ATOM     15  C   UNL     1      33.549 -15.466 -24.043  0.00  0.00    +0.016 C 
ATOM     16  C   UNL     1      33.934 -16.050 -25.398  0.00  0.00    +0.001 C 
ATOM     17  C   UNL     1      34.796 -15.735 -23.207  0.00  0.00    +0.001 C 
ATOM     18  C   UNL     1      34.688 -17.331 -25.051  0.00  0.00    +0.000 C 
ATOM     19  C   UNL     1      35.232 -17.132 -23.635  0.00  0.00    +0.000 C 
ENDBRANCH   5  15
BRANCH  11  20
ATOM     20  S   UNL     1      32.043  -7.405 -22.393  0.00  0.00    +0.063 S 
ATOM     21  O   UNL     1      30.614  -7.147 -22.484  0.00  0.00    -0.153 OA
ATOM     22  O   UNL     1      32.802  -6.894 -21.261  0.00  0.00    -0.153 OA
BRANCH  20  23
ATOM     23  N   UNL     1      32.795  -6.888 -23.842  0.00  0.00    -0.160 NA
ATOM     24  N   UNL     1      34.308  -5.437 -25.810  0.00  0.00    +0.387 N 
ATOM     25  C   UNL     1      34.285  -6.924 -23.840  0.00  0.00    +0.073 C 
ATOM     26  C   UNL     1      32.282  -5.609 -24.409  0.00  0.00    +0.073 C 
ATOM     27  C   UNL     1      34.802  -6.707 -25.261  0.00  0.00    -0.058 C 
ATOM     28  C   UNL     1      32.838  -5.417 -25.819  0.00  0.00    -0.058 C 
ATOM     29  C   UNL     1      34.834  -5.219 -27.157  0.00  0.00    -0.101 C 
ATOM     30  H   UNL     1      34.636  -4.679 -25.211  0.00  0.00    -0.080 HD
ENDBRANCH  20  23
ENDBRANCH  11  20
TORSDOF 3
ENDMDL
MODEL 8
REMARK VINA RESULT:      -8.1      6.704     11.639
REMARK  Name = 44129631
REMARK  3 active torsions:
REMARK  status: ('A' for Active; 'I' for Inactive)
REMARK    1  A    between atoms: C_5  and  C_15
REMARK    2  A    between atoms: C_11  and  S_20
REMARK    3  A    between atoms: S_20  and  N_23
REMARK                            x       y       z     vdW  Elec       q    Type
REMARK                         _______ _______ _______ _____ _____    ______ ____
ROOT
ATOM      1  S   UNL     1      33.946 -15.242 -21.075  0.00  0.00    +0.060 S 
ATOM      2  O   UNL     1      32.787 -14.608 -20.479  0.00  0.00    -0.153 OA
ATOM      3  O   UNL     1      35.293 -14.900 -20.666  0.00  0.00    -0.153 OA
ATOM      4  N   UNL     1      33.741 -16.935 -20.983  0.00  0.00    -0.180 NA
ATOM      5  C   UNL     1      34.552 -17.727 -21.933  0.00  0.00    +0.080 C 
ATOM      6  C   UNL     1      33.997 -17.476 -23.337  0.00  0.00    +0.045 C 
ATOM      7  C   UNL     1      33.928 -16.018 -23.731  0.00  0.00    -0.002 C 
ATOM      8  C   UNL     1      33.872 -14.959 -22.815  0.00  0.00    +0.119 C 
ATOM      9  C   UNL     1      33.849 -15.705 -25.097  0.00  0.00    -0.006 C 
ATOM     10  C   UNL     1      33.758 -13.631 -23.236  0.00  0.00    +0.039 C 
ATOM     11  C   UNL     1      33.695 -13.345 -24.598  0.00  0.00    +0.120 C 
ATOM     12  C   UNL     1      33.739 -14.381 -25.528  0.00  0.00    -0.003 C 
ATOM     13  C   UNL     1      33.666 -14.109 -26.995  0.00  0.00    +0.032 C 
ATOM     14  H   UNL     1      32.758 -17.143 -21.160  0.00  0.00    +0.149 HD
ENDROOT
BRANCH   5  15
ATOM     15  C   UNL     1      34.467 -19.194 -21.551  0.00  0.00    +0.016 C 
ATOM     16  C   UNL     1      35.614 -19.649 -20.655  0.00  0.00    +0.001 C 
ATOM     17  C   UNL     1      33.242 -19.524 -20.704  0.00  0.00    +0.001 C 
ATOM     18  C   UNL     1      35.107 -20.949 -20.035  0.00  0.00    +0.000 C 
ATOM     19  C   UNL     1      33.580 -20.873 -20.078  0.00  0.00    +0.000 C 
ENDBRANCH   5  15
BRANCH  11  20
ATOM     20  S   UNL     1      33.556 -11.676 -25.104  0.00  0.00    +0.063 S 
ATOM     21  O   UNL     1      34.896 -11.122 -25.223  0.00  0.00    -0.153 OA
ATOM     22  O   UNL     1      32.643 -11.615 -26.236  0.00  0.00    -0.153 OA
BRANCH  20  23
ATOM     23  N   UNL     1      32.790 -10.986 -23.737  0.00  0.00    -0.160 NA
ATOM     24  N   UNL     1      32.149 -10.096 -21.079  0.00  0.00    +0.387 N 
ATOM     25  C   UNL     1      33.485  -9.813 -23.135  0.00  0.00    +0.073 C 
ATOM     26  C   UNL     1      32.351 -11.954 -22.693  0.00  0.00    +0.073 C 
ATOM     27  C   UNL     1      32.566  -9.142 -22.117  0.00  0.00    -0.058 C 
ATOM     28  C   UNL     1      31.453 -11.242 -21.682  0.00  0.00    -0.058 C 
ATOM     29  C   UNL     1      31.297  -9.439 -20.089  0.00  0.00    -0.101 C 
ATOM     30  H   UNL     1      32.985 -10.441 -20.605  0.00  0.00    -0.080 HD
ENDBRANCH  20  23
ENDBRANCH  11  20
TORSDOF 3
ENDMDL
MODEL 9
REMARK VINA RESULT:      -8.1      6.626     11.638
REMARK  Name = 44129631
REMARK  3 active torsions:
REMARK  status: ('A' for Active; 'I' for Inactive)
REMARK    1  A    between atoms: C_5  and  C_15
REMARK    2  A    between atoms: C_11  and  S_20
REMARK    3  A    between atoms: S_20  and  N_23
REMARK                            x       y       z     vdW  Elec       q    Type
REMARK                         _______ _______ _______ _____ _____    ______ ____
ROOT
ATOM      1  S   UNL     1      34.724 -16.551 -23.894  0.00  0.00    +0.060 S 
ATOM      2  O   UNL     1      35.842 -15.789 -24.414  0.00  0.00    -0.153 OA
ATOM      3  O   UNL     1      33.672 -17.043 -24.761  0.00  0.00    -0.153 OA
ATOM      4  N   UNL     1      35.339 -17.843 -22.963  0.00  0.00    -0.180 NA
ATOM      5  C   UNL     1      34.396 -18.428 -21.985  0.00  0.00    +0.080 C 
ATOM      6  C   UNL     1      34.175 -17.395 -20.879  0.00  0.00    +0.045 C 
ATOM      7  C   UNL     1      33.714 -16.042 -21.369  0.00  0.00    -0.002 C 
ATOM      8  C   UNL     1      33.930 -15.562 -22.668  0.00  0.00    +0.119 C 
ATOM      9  C   UNL     1      33.086 -15.183 -20.452  0.00  0.00    -0.006 C 
ATOM     10  C   UNL     1      33.524 -14.280 -23.053  0.00  0.00    +0.039 C 
ATOM     11  C   UNL     1      32.893 -13.453 -22.128  0.00  0.00    +0.120 C 
ATOM     12  C   UNL     1      32.675 -13.903 -20.828  0.00  0.00    -0.003 C 
ATOM     13  C   UNL     1      32.007 -13.038 -19.809  0.00  0.00    +0.032 C 
ATOM     14  H   UNL     1      36.152 -17.502 -22.450  0.00  0.00    +0.149 HD
ENDROOT
BRANCH   5  15
ATOM     15  C   UNL     1      34.987 -19.716 -21.440  0.00  0.00    +0.016 C 
ATOM     16  C   UNL     1      36.313 -19.509 -20.715  0.00  0.00    +0.001 C 
ATOM     17  C   UNL     1      34.125 -20.362 -20.360  0.00  0.00    +0.001 C 
ATOM     18  C   UNL     1      36.482 -20.776 -19.881  0.00  0.00    +0.000 C 
ATOM     19  C   UNL     1      35.073 -21.331 -19.662  0.00  0.00    +0.000 C 
ENDBRANCH   5  15
BRANCH  11  20
ATOM     20  S   UNL     1      32.390 -11.854 -22.631  0.00  0.00    +0.063 S 
ATOM     21  O   UNL     1      31.085 -11.964 -23.264  0.00  0.00    -0.153 OA
ATOM     22  O   UNL     1      32.579 -10.942 -21.512  0.00  0.00    -0.153 OA
BRANCH  20  23
ATOM     23  N   UNL     1      33.562 -11.509 -23.830  0.00  0.00    -0.160 NA
ATOM     24  N   UNL     1      34.960 -10.459 -26.113  0.00  0.00    +0.387 N 
ATOM     25  C   UNL     1      34.092 -10.115 -23.828  0.00  0.00    +0.073 C 
ATOM     26  C   UNL     1      33.220 -11.959 -25.209  0.00  0.00    +0.073 C 
ATOM     27  C   UNL     1      35.306 -10.030 -24.750  0.00  0.00    -0.058 C 
ATOM     28  C   UNL     1      34.452 -11.838 -26.106  0.00  0.00    -0.058 C 
ATOM     29  C   UNL     1      36.118 -10.342 -26.999  0.00  0.00    -0.101 C 
ATOM     30  H   UNL     1      34.224  -9.846 -26.465  0.00  0.00    -0.080 HD
ENDBRANCH  20  23
ENDBRANCH  11  20
TORSDOF 3
ENDMDL
