MODEL 1
REMARK VINA RESULT:      -6.0      0.000      0.000
REMARK  Name = 10954115
REMARK  10 active torsions:
REMARK  status: ('A' for Active; 'I' for Inactive)
REMARK    1  A    between atoms: C_1  and  O_2
REMARK    2  A    between atoms: C_1  and  C_4
REMARK    3  A    between atoms: C_1  and  C_12
REMARK    4  A    between atoms: C_4  and  O_5
REMARK    5  A    between atoms: C_4  and  C_7
REMARK    6  A    between atoms: C_7  and  O_8
REMARK    7  A    between atoms: C_7  and  C_11
REMARK    8  A    between atoms: C_12  and  O_13
REMARK    9  A    between atoms: C_12  and  C_15
REMARK   10  A    between atoms: C_15  and  O_16
REMARK                            x       y       z     vdW  Elec       q    Type
REMARK                         _______ _______ _______ _____ _____    ______ ____
ROOT
ATOM      1  C   UNL     1      36.744 -25.434 -13.002  0.00  0.00    +0.169 C 
ENDROOT
BRANCH   1   2
ATOM      2  O   UNL     1      37.171 -26.300 -11.944  0.00  0.00    -0.379 OA
ATOM      3  H   UNL     1      36.426 -26.469 -11.346  0.00  0.00    +0.211 HD
ENDBRANCH   1   2
BRANCH   1   4
ATOM      4  C   UNL     1      37.973 -24.824 -13.699  0.00  0.00    +0.174 C 
BRANCH   4   5
ATOM      5  O   UNL     1      38.862 -24.344 -12.683  0.00  0.00    -0.379 OA
ATOM      6  H   UNL     1      38.797 -23.378 -12.627  0.00  0.00    +0.211 HD
ENDBRANCH   4   5
BRANCH   4   7
ATOM      7  C   UNL     1      38.741 -25.735 -14.666  0.00  0.00    +0.205 C 
BRANCH   7   8
ATOM      8  O   UNL     1      38.216 -27.052 -14.537  0.00  0.00    -0.375 OA
ATOM      9  H   UNL     1      37.305 -27.071 -14.872  0.00  0.00    +0.211 HD
ENDBRANCH   7   8
BRANCH   7  11
ATOM     10  O   UNL     1      41.016 -24.892 -14.613  0.00  0.00    -0.286 OA
ATOM     11  C   UNL     1      40.229 -25.805 -14.391  0.00  0.00    +0.239 C 
ENDBRANCH   7  11
ENDBRANCH   4   7
ENDBRANCH   1   4
BRANCH   1  12
ATOM     12  C   UNL     1      35.756 -24.427 -12.396  0.00  0.00    +0.169 C 
BRANCH  12  13
ATOM     13  O   UNL     1      34.440 -24.993 -12.478  0.00  0.00    -0.379 OA
ATOM     14  H   UNL     1      34.095 -25.140 -11.583  0.00  0.00    +0.211 HD
ENDBRANCH  12  13
BRANCH  12  15
ATOM     15  C   UNL     1      36.013 -24.110 -10.927  0.00  0.00    +0.169 C 
BRANCH  15  16
ATOM     16  O   UNL     1      35.269 -25.020 -10.122  0.00  0.00    -0.379 OA
ATOM     17  H   UNL     1      35.004 -25.783 -10.658  0.00  0.00    +0.211 HD
ENDBRANCH  15  16
ENDBRANCH  12  15
ENDBRANCH   1  12
TORSDOF 10
ENDMDL
MODEL 2
REMARK VINA RESULT:      -6.0      1.006      4.757
REMARK  Name = 10954115
REMARK  10 active torsions:
REMARK  status: ('A' for Active; 'I' for Inactive)
REMARK    1  A    between atoms: C_1  and  O_2
REMARK    2  A    between atoms: C_1  and  C_4
REMARK    3  A    between atoms: C_1  and  C_12
REMARK    4  A    between atoms: C_4  and  O_5
REMARK    5  A    between atoms: C_4  and  C_7
REMARK    6  A    between atoms: C_7  and  O_8
REMARK    7  A    between atoms: C_7  and  C_11
REMARK    8  A    between atoms: C_12  and  O_13
REMARK    9  A    between atoms: C_12  and  C_15
REMARK   10  A    between atoms: C_15  and  O_16
REMARK                            x       y       z     vdW  Elec       q    Type
REMARK                         _______ _______ _______ _____ _____    ______ ____
ROOT
ATOM      1  C   UNL     1      37.663 -24.990 -14.276  0.00  0.00    +0.169 C 
ENDROOT
BRANCH   1   2
ATOM      2  O   UNL     1      38.186 -23.658 -14.259  0.00  0.00    -0.379 OA
ATOM      3  H   UNL     1      39.126 -23.683 -14.017  0.00  0.00    +0.211 HD
ENDBRANCH   1   2
BRANCH   1   4
ATOM      4  C   UNL     1      36.648 -25.163 -13.133  0.00  0.00    +0.174 C 
BRANCH   4   5
ATOM      5  O   UNL     1      36.804 -26.485 -12.603  0.00  0.00    -0.379 OA
ATOM      6  H   UNL     1      36.997 -27.103 -13.325  0.00  0.00    +0.211 HD
ENDBRANCH   4   5
BRANCH   4   7
ATOM      7  C   UNL     1      36.713 -24.140 -11.991  0.00  0.00    +0.205 C 
BRANCH   7   8
ATOM      8  O   UNL     1      37.911 -24.375 -11.260  0.00  0.00    -0.375 OA
ATOM      9  H   UNL     1      38.461 -25.015 -11.740  0.00  0.00    +0.211 HD
ENDBRANCH   7   8
BRANCH   7  11
ATOM     10  O   UNL     1      35.307 -25.220 -10.334  0.00  0.00    -0.286 OA
ATOM     11  C   UNL     1      35.555 -24.233 -11.018  0.00  0.00    +0.239 C 
ENDBRANCH   7  11
ENDBRANCH   4   7
ENDBRANCH   1   4
BRANCH   1  12
ATOM     12  C   UNL     1      38.861 -25.951 -14.252  0.00  0.00    +0.169 C 
BRANCH  12  13
ATOM     13  O   UNL     1      38.439 -27.200 -14.820  0.00  0.00    -0.379 OA
ATOM     14  H   UNL     1      37.565 -27.091 -15.226  0.00  0.00    +0.211 HD
ENDBRANCH  12  13
BRANCH  12  15
ATOM     15  C   UNL     1      40.058 -25.473 -15.066  0.00  0.00    +0.169 C 
BRANCH  15  16
ATOM     16  O   UNL     1      40.923 -24.723 -14.218  0.00  0.00    -0.379 OA
ATOM     17  H   UNL     1      40.868 -23.783 -14.450  0.00  0.00    +0.211 HD
ENDBRANCH  15  16
ENDBRANCH  12  15
ENDBRANCH   1  12
TORSDOF 10
ENDMDL
MODEL 3
REMARK VINA RESULT:      -5.9      1.695      4.377
REMARK  Name = 10954115
REMARK  10 active torsions:
REMARK  status: ('A' for Active; 'I' for Inactive)
REMARK    1  A    between atoms: C_1  and  O_2
REMARK    2  A    between atoms: C_1  and  C_4
REMARK    3  A    between atoms: C_1  and  C_12
REMARK    4  A    between atoms: C_4  and  O_5
REMARK    5  A    between atoms: C_4  and  C_7
REMARK    6  A    between atoms: C_7  and  O_8
REMARK    7  A    between atoms: C_7  and  C_11
REMARK    8  A    between atoms: C_12  and  O_13
REMARK    9  A    between atoms: C_12  and  C_15
REMARK   10  A    between atoms: C_15  and  O_16
REMARK                            x       y       z     vdW  Elec       q    Type
REMARK                         _______ _______ _______ _____ _____    ______ ____
ROOT
ATOM      1  C   UNL     1      37.664 -25.544 -13.178  0.00  0.00    +0.169 C 
ENDROOT
BRANCH   1   2
ATOM      2  O   UNL     1      36.872 -26.642 -12.712  0.00  0.00    -0.379 OA
ATOM      3  H   UNL     1      36.279 -26.336 -12.007  0.00  0.00    +0.211 HD
ENDBRANCH   1   2
BRANCH   1   4
ATOM      4  C   UNL     1      37.913 -24.559 -12.023  0.00  0.00    +0.174 C 
BRANCH   4   5
ATOM      5  O   UNL     1      39.100 -23.816 -12.327  0.00  0.00    -0.379 OA
ATOM      6  H   UNL     1      39.463 -24.119 -13.174  0.00  0.00    +0.211 HD
ENDBRANCH   4   5
BRANCH   4   7
ATOM      7  C   UNL     1      36.773 -23.590 -11.683  0.00  0.00    +0.205 C 
BRANCH   7   8
ATOM      8  O   UNL     1      37.354 -22.371 -11.232  0.00  0.00    -0.375 OA
ATOM      9  H   UNL     1      36.836 -21.622 -11.570  0.00  0.00    +0.211 HD
ENDBRANCH   7   8
BRANCH   7  11
ATOM     10  O   UNL     1      35.284 -25.178 -10.609  0.00  0.00    -0.286 OA
ATOM     11  C   UNL     1      35.849 -24.089 -10.591  0.00  0.00    +0.239 C 
ENDBRANCH   7  11
ENDBRANCH   4   7
ENDBRANCH   1   4
BRANCH   1  12
ATOM     12  C   UNL     1      36.955 -24.960 -14.408  0.00  0.00    +0.169 C 
BRANCH  12  13
ATOM     13  O   UNL     1      37.953 -24.377 -15.260  0.00  0.00    -0.379 OA
ATOM     14  H   UNL     1      38.702 -24.077 -14.721  0.00  0.00    +0.211 HD
ENDBRANCH  12  13
BRANCH  12  15
ATOM     15  C   UNL     1      36.205 -25.992 -15.243  0.00  0.00    +0.169 C 
BRANCH  15  16
ATOM     16  O   UNL     1      37.152 -26.852 -15.871  0.00  0.00    -0.379 OA
ATOM     17  H   UNL     1      37.515 -27.467 -15.214  0.00  0.00    +0.211 HD
ENDBRANCH  15  16
ENDBRANCH  12  15
ENDBRANCH   1  12
TORSDOF 10
ENDMDL
MODEL 4
REMARK VINA RESULT:      -5.8      1.230      4.629
REMARK  Name = 10954115
REMARK  10 active torsions:
REMARK  status: ('A' for Active; 'I' for Inactive)
REMARK    1  A    between atoms: C_1  and  O_2
REMARK    2  A    between atoms: C_1  and  C_4
REMARK    3  A    between atoms: C_1  and  C_12
REMARK    4  A    between atoms: C_4  and  O_5
REMARK    5  A    between atoms: C_4  and  C_7
REMARK    6  A    between atoms: C_7  and  O_8
REMARK    7  A    between atoms: C_7  and  C_11
REMARK    8  A    between atoms: C_12  and  O_13
REMARK    9  A    between atoms: C_12  and  C_15
REMARK   10  A    between atoms: C_15  and  O_16
REMARK                            x       y       z     vdW  Elec       q    Type
REMARK                         _______ _______ _______ _____ _____    ______ ____
ROOT
ATOM      1  C   UNL     1      37.609 -25.730 -13.310  0.00  0.00    +0.169 C 
ENDROOT
BRANCH   1   2
ATOM      2  O   UNL     1      36.894 -26.869 -12.821  0.00  0.00    -0.379 OA
ATOM      3  H   UNL     1      36.185 -27.097 -13.444  0.00  0.00    +0.211 HD
ENDBRANCH   1   2
BRANCH   1   4
ATOM      4  C   UNL     1      36.628 -24.572 -13.562  0.00  0.00    +0.174 C 
BRANCH   4   5
ATOM      5  O   UNL     1      35.332 -25.136 -13.791  0.00  0.00    -0.379 OA
ATOM      6  H   UNL     1      34.838 -24.572 -14.407  0.00  0.00    +0.211 HD
ENDBRANCH   4   5
BRANCH   4   7
ATOM      7  C   UNL     1      36.535 -23.496 -12.471  0.00  0.00    +0.205 C 
BRANCH   7   8
ATOM      8  O   UNL     1      37.821 -22.900 -12.334  0.00  0.00    -0.375 OA
ATOM      9  H   UNL     1      37.755 -21.947 -12.512  0.00  0.00    +0.211 HD
ENDBRANCH   7   8
BRANCH   7  11
ATOM     10  O   UNL     1      35.383 -24.989 -10.944  0.00  0.00    -0.286 OA
ATOM     11  C   UNL     1      36.132 -24.034 -11.113  0.00  0.00    +0.239 C 
ENDBRANCH   7  11
ENDBRANCH   4   7
ENDBRANCH   1   4
BRANCH   1  12
ATOM     12  C   UNL     1      38.420 -26.190 -14.530  0.00  0.00    +0.169 C 
BRANCH  12  13
ATOM     13  O   UNL     1      37.541 -26.212 -15.664  0.00  0.00    -0.379 OA
ATOM     14  H   UNL     1      37.823 -26.909 -16.279  0.00  0.00    +0.211 HD
ENDBRANCH  12  13
BRANCH  12  15
ATOM     15  C   UNL     1      39.583 -25.271 -14.886  0.00  0.00    +0.169 C 
BRANCH  15  16
ATOM     16  O   UNL     1      40.334 -25.865 -15.942  0.00  0.00    -0.379 OA
ATOM     17  H   UNL     1      41.262 -25.948 -15.671  0.00  0.00    +0.211 HD
ENDBRANCH  15  16
ENDBRANCH  12  15
ENDBRANCH   1  12
TORSDOF 10
ENDMDL
MODEL 5
REMARK VINA RESULT:      -5.7      1.881      2.933
REMARK  Name = 10954115
REMARK  10 active torsions:
REMARK  status: ('A' for Active; 'I' for Inactive)
REMARK    1  A    between atoms: C_1  and  O_2
REMARK    2  A    between atoms: C_1  and  C_4
REMARK    3  A    between atoms: C_1  and  C_12
REMARK    4  A    between atoms: C_4  and  O_5
REMARK    5  A    between atoms: C_4  and  C_7
REMARK    6  A    between atoms: C_7  and  O_8
REMARK    7  A    between atoms: C_7  and  C_11
REMARK    8  A    between atoms: C_12  and  O_13
REMARK    9  A    between atoms: C_12  and  C_15
REMARK   10  A    between atoms: C_15  and  O_16
REMARK                            x       y       z     vdW  Elec       q    Type
REMARK                         _______ _______ _______ _____ _____    ______ ____
ROOT
ATOM      1  C   UNL     1      37.135 -23.331 -13.687  0.00  0.00    +0.169 C 
ENDROOT
BRANCH   1   2
ATOM      2  O   UNL     1      35.722 -23.119 -13.593  0.00  0.00    -0.379 OA
ATOM      3  H   UNL     1      35.276 -23.607 -14.304  0.00  0.00    +0.211 HD
ENDBRANCH   1   2
BRANCH   1   4
ATOM      4  C   UNL     1      37.450 -24.184 -14.928  0.00  0.00    +0.174 C 
BRANCH   4   5
ATOM      5  O   UNL     1      38.555 -23.579 -15.609  0.00  0.00    -0.379 OA
ATOM      6  H   UNL     1      39.383 -23.982 -15.305  0.00  0.00    +0.211 HD
ENDBRANCH   4   5
BRANCH   4   7
ATOM      7  C   UNL     1      37.747 -25.671 -14.686  0.00  0.00    +0.205 C 
BRANCH   7   8
ATOM      8  O   UNL     1      38.940 -25.998 -15.390  0.00  0.00    -0.375 OA
ATOM      9  H   UNL     1      39.526 -26.512 -14.810  0.00  0.00    +0.211 HD
ENDBRANCH   7   8
BRANCH   7  11
ATOM     10  O   UNL     1      36.739 -27.294 -16.183  0.00  0.00    -0.286 OA
ATOM     11  C   UNL     1      36.655 -26.601 -15.175  0.00  0.00    +0.239 C 
ENDBRANCH   7  11
ENDBRANCH   4   7
ENDBRANCH   1   4
BRANCH   1  12
ATOM     12  C   UNL     1      37.598 -23.915 -12.344  0.00  0.00    +0.169 C 
BRANCH  12  13
ATOM     13  O   UNL     1      38.468 -22.957 -11.721  0.00  0.00    -0.379 OA
ATOM     14  H   UNL     1      38.807 -22.345 -12.392  0.00  0.00    +0.211 HD
ENDBRANCH  12  13
BRANCH  12  15
ATOM     15  C   UNL     1      36.465 -24.192 -11.363  0.00  0.00    +0.169 C 
BRANCH  15  16
ATOM     16  O   UNL     1      35.939 -25.491 -11.621  0.00  0.00    -0.379 OA
ATOM     17  H   UNL     1      35.049 -25.410 -11.996  0.00  0.00    +0.211 HD
ENDBRANCH  15  16
ENDBRANCH  12  15
ENDBRANCH   1  12
TORSDOF 10
ENDMDL
MODEL 6
REMARK VINA RESULT:      -5.7      1.567      2.210
REMARK  Name = 10954115
REMARK  10 active torsions:
REMARK  status: ('A' for Active; 'I' for Inactive)
REMARK    1  A    between atoms: C_1  and  O_2
REMARK    2  A    between atoms: C_1  and  C_4
REMARK    3  A    between atoms: C_1  and  C_12
REMARK    4  A    between atoms: C_4  and  O_5
REMARK    5  A    between atoms: C_4  and  C_7
REMARK    6  A    between atoms: C_7  and  O_8
REMARK    7  A    between atoms: C_7  and  C_11
REMARK    8  A    between atoms: C_12  and  O_13
REMARK    9  A    between atoms: C_12  and  C_15
REMARK   10  A    between atoms: C_15  and  O_16
REMARK                            x       y       z     vdW  Elec       q    Type
REMARK                         _______ _______ _______ _____ _____    ______ ____
ROOT
ATOM      1  C   UNL     1      36.602 -25.378 -14.948  0.00  0.00    +0.169 C 
ENDROOT
BRANCH   1   2
ATOM      2  O   UNL     1      35.876 -26.513 -15.430  0.00  0.00    -0.379 OA
ATOM      3  H   UNL     1      34.953 -26.261 -15.592  0.00  0.00    +0.211 HD
ENDBRANCH   1   2
BRANCH   1   4
ATOM      4  C   UNL     1      37.863 -25.849 -14.202  0.00  0.00    +0.174 C 
BRANCH   4   5
ATOM      5  O   UNL     1      38.138 -27.195 -14.609  0.00  0.00    -0.379 OA
ATOM      6  H   UNL     1      37.377 -27.759 -14.398  0.00  0.00    +0.211 HD
ENDBRANCH   4   5
BRANCH   4   7
ATOM      7  C   UNL     1      39.126 -24.993 -14.371  0.00  0.00    +0.205 C 
BRANCH   7   8
ATOM      8  O   UNL     1      38.886 -24.063 -15.421  0.00  0.00    -0.375 OA
ATOM      9  H   UNL     1      39.486 -24.250 -16.162  0.00  0.00    +0.211 HD
ENDBRANCH   7   8
BRANCH   7  11
ATOM     10  O   UNL     1      40.664 -26.109 -15.880  0.00  0.00    -0.286 OA
ATOM     11  C   UNL     1      40.362 -25.789 -14.735  0.00  0.00    +0.239 C 
ENDBRANCH   7  11
ENDBRANCH   4   7
ENDBRANCH   1   4
BRANCH   1  12
ATOM     12  C   UNL     1      35.624 -24.527 -14.126  0.00  0.00    +0.169 C 
BRANCH  12  13
ATOM     13  O   UNL     1      34.309 -25.075 -14.295  0.00  0.00    -0.379 OA
ATOM     14  H   UNL     1      33.765 -24.458 -14.811  0.00  0.00    +0.211 HD
ENDBRANCH  12  13
BRANCH  12  15
ATOM     15  C   UNL     1      35.914 -24.518 -12.629  0.00  0.00    +0.169 C 
BRANCH  15  16
ATOM     16  O   UNL     1      34.753 -24.963 -11.933  0.00  0.00    -0.379 OA
ATOM     17  H   UNL     1      34.900 -24.886 -10.977  0.00  0.00    +0.211 HD
ENDBRANCH  15  16
ENDBRANCH  12  15
ENDBRANCH   1  12
TORSDOF 10
ENDMDL
MODEL 7
REMARK VINA RESULT:      -5.5      1.708      4.772
REMARK  Name = 10954115
REMARK  10 active torsions:
REMARK  status: ('A' for Active; 'I' for Inactive)
REMARK    1  A    between atoms: C_1  and  O_2
REMARK    2  A    between atoms: C_1  and  C_4
REMARK    3  A    between atoms: C_1  and  C_12
REMARK    4  A    between atoms: C_4  and  O_5
REMARK    5  A    between atoms: C_4  and  C_7
REMARK    6  A    between atoms: C_7  and  O_8
REMARK    7  A    between atoms: C_7  and  C_11
REMARK    8  A    between atoms: C_12  and  O_13
REMARK    9  A    between atoms: C_12  and  C_15
REMARK   10  A    between atoms: C_15  and  O_16
REMARK                            x       y       z     vdW  Elec       q    Type
REMARK                         _______ _______ _______ _____ _____    ______ ____
ROOT
ATOM      1  C   UNL     1      36.440 -24.798 -14.879  0.00  0.00    +0.169 C 
ENDROOT
BRANCH   1   2
ATOM      2  O   UNL     1      37.168 -23.992 -15.811  0.00  0.00    -0.379 OA
ATOM      3  H   UNL     1      38.117 -24.047 -15.613  0.00  0.00    +0.211 HD
ENDBRANCH   1   2
BRANCH   1   4
ATOM      4  C   UNL     1      36.164 -23.989 -13.599  0.00  0.00    +0.174 C 
BRANCH   4   5
ATOM      5  O   UNL     1      35.271 -22.922 -13.939  0.00  0.00    -0.379 OA
ATOM      6  H   UNL     1      35.702 -22.328 -14.573  0.00  0.00    +0.211 HD
ENDBRANCH   4   5
BRANCH   4   7
ATOM      7  C   UNL     1      35.606 -24.765 -12.399  0.00  0.00    +0.205 C 
BRANCH   7   8
ATOM      8  O   UNL     1      34.186 -24.774 -12.505  0.00  0.00    -0.375 OA
ATOM      9  H   UNL     1      33.805 -25.179 -11.709  0.00  0.00    +0.211 HD
ENDBRANCH   7   8
BRANCH   7  11
ATOM     10  O   UNL     1      35.456 -24.493  -9.992  0.00  0.00    -0.286 OA
ATOM     11  C   UNL     1      35.961 -24.157 -11.057  0.00  0.00    +0.239 C 
ENDBRANCH   7  11
ENDBRANCH   4   7
ENDBRANCH   1   4
BRANCH   1  12
ATOM     12  C   UNL     1      37.233 -26.098 -14.684  0.00  0.00    +0.169 C 
BRANCH  12  13
ATOM     13  O   UNL     1      37.199 -26.828 -15.920  0.00  0.00    -0.379 OA
ATOM     14  H   UNL     1      38.064 -26.767 -16.355  0.00  0.00    +0.211 HD
ENDBRANCH  12  13
BRANCH  12  15
ATOM     15  C   UNL     1      38.702 -25.884 -14.334  0.00  0.00    +0.169 C 
BRANCH  15  16
ATOM     16  O   UNL     1      39.454 -25.788 -15.541  0.00  0.00    -0.379 OA
ATOM     17  H   UNL     1      39.199 -26.508 -16.139  0.00  0.00    +0.211 HD
ENDBRANCH  15  16
ENDBRANCH  12  15
ENDBRANCH   1  12
TORSDOF 10
ENDMDL
MODEL 8
REMARK VINA RESULT:      -5.4      1.682      2.472
REMARK  Name = 10954115
REMARK  10 active torsions:
REMARK  status: ('A' for Active; 'I' for Inactive)
REMARK    1  A    between atoms: C_1  and  O_2
REMARK    2  A    between atoms: C_1  and  C_4
REMARK    3  A    between atoms: C_1  and  C_12
REMARK    4  A    between atoms: C_4  and  O_5
REMARK    5  A    between atoms: C_4  and  C_7
REMARK    6  A    between atoms: C_7  and  O_8
REMARK    7  A    between atoms: C_7  and  C_11
REMARK    8  A    between atoms: C_12  and  O_13
REMARK    9  A    between atoms: C_12  and  C_15
REMARK   10  A    between atoms: C_15  and  O_16
REMARK                            x       y       z     vdW  Elec       q    Type
REMARK                         _______ _______ _______ _____ _____    ______ ____
ROOT
ATOM      1  C   UNL     1      36.191 -24.118 -13.378  0.00  0.00    +0.169 C 
ENDROOT
BRANCH   1   2
ATOM      2  O   UNL     1      35.276 -24.395 -14.443  0.00  0.00    -0.379 OA
ATOM      3  H   UNL     1      35.369 -25.322 -14.714  0.00  0.00    +0.211 HD
ENDBRANCH   1   2
BRANCH   1   4
ATOM      4  C   UNL     1      37.233 -25.246 -13.282  0.00  0.00    +0.174 C 
BRANCH   4   5
ATOM      5  O   UNL     1      36.578 -26.405 -12.751  0.00  0.00    -0.379 OA
ATOM      6  H   UNL     1      37.222 -26.949 -12.272  0.00  0.00    +0.211 HD
ENDBRANCH   4   5
BRANCH   4   7
ATOM      7  C   UNL     1      37.968 -25.619 -14.577  0.00  0.00    +0.205 C 
BRANCH   7   8
ATOM      8  O   UNL     1      37.908 -24.498 -15.452  0.00  0.00    -0.375 OA
ATOM      9  H   UNL     1      37.895 -24.807 -16.372  0.00  0.00    +0.211 HD
ENDBRANCH   7   8
BRANCH   7  11
ATOM     10  O   UNL     1      36.230 -26.823 -15.767  0.00  0.00    -0.286 OA
ATOM     11  C   UNL     1      37.365 -26.803 -15.305  0.00  0.00    +0.239 C 
ENDBRANCH   7  11
ENDBRANCH   4   7
ENDBRANCH   1   4
BRANCH   1  12
ATOM     12  C   UNL     1      35.357 -23.875 -12.112  0.00  0.00    +0.169 C 
BRANCH  12  13
ATOM     13  O   UNL     1      34.410 -24.948 -11.993  0.00  0.00    -0.379 OA
ATOM     14  H   UNL     1      33.510 -24.586 -11.997  0.00  0.00    +0.211 HD
ENDBRANCH  12  13
BRANCH  12  15
ATOM     15  C   UNL     1      36.172 -23.857 -10.824  0.00  0.00    +0.169 C 
BRANCH  15  16
ATOM     16  O   UNL     1      35.438 -24.528  -9.803  0.00  0.00    -0.379 OA
ATOM     17  H   UNL     1      34.612 -24.050  -9.632  0.00  0.00    +0.211 HD
ENDBRANCH  15  16
ENDBRANCH  12  15
ENDBRANCH   1  12
TORSDOF 10
ENDMDL
MODEL 9
REMARK VINA RESULT:      -5.3      2.062      3.120
REMARK  Name = 10954115
REMARK  10 active torsions:
REMARK  status: ('A' for Active; 'I' for Inactive)
REMARK    1  A    between atoms: C_1  and  O_2
REMARK    2  A    between atoms: C_1  and  C_4
REMARK    3  A    between atoms: C_1  and  C_12
REMARK    4  A    between atoms: C_4  and  O_5
REMARK    5  A    between atoms: C_4  and  C_7
REMARK    6  A    between atoms: C_7  and  O_8
REMARK    7  A    between atoms: C_7  and  C_11
REMARK    8  A    between atoms: C_12  and  O_13
REMARK    9  A    between atoms: C_12  and  C_15
REMARK   10  A    between atoms: C_15  and  O_16
REMARK                            x       y       z     vdW  Elec       q    Type
REMARK                         _______ _______ _______ _____ _____    ______ ____
ROOT
ATOM      1  C   UNL     1      36.825 -24.380 -14.837  0.00  0.00    +0.169 C 
ENDROOT
BRANCH   1   2
ATOM      2  O   UNL     1      37.269 -23.670 -15.997  0.00  0.00    -0.379 OA
ATOM      3  H   UNL     1      38.097 -23.207 -15.795  0.00  0.00    +0.211 HD
ENDBRANCH   1   2
BRANCH   1   4
ATOM      4  C   UNL     1      37.804 -25.525 -14.524  0.00  0.00    +0.174 C 
BRANCH   4   5
ATOM      5  O   UNL     1      39.049 -25.227 -15.167  0.00  0.00    -0.379 OA
ATOM      6  H   UNL     1      39.077 -24.285 -15.397  0.00  0.00    +0.211 HD
ENDBRANCH   4   5
BRANCH   4   7
ATOM      7  C   UNL     1      38.052 -25.835 -13.041  0.00  0.00    +0.205 C 
BRANCH   7   8
ATOM      8  O   UNL     1      36.970 -26.633 -12.574  0.00  0.00    -0.375 OA
ATOM      9  H   UNL     1      36.600 -26.235 -11.769  0.00  0.00    +0.211 HD
ENDBRANCH   7   8
BRANCH   7  11
ATOM     10  O   UNL     1      37.378 -24.381 -11.219  0.00  0.00    -0.286 OA
ATOM     11  C   UNL     1      38.130 -24.604 -12.162  0.00  0.00    +0.239 C 
ENDBRANCH   7  11
ENDBRANCH   4   7
ENDBRANCH   1   4
BRANCH   1  12
ATOM     12  C   UNL     1      35.370 -24.801 -15.088  0.00  0.00    +0.169 C 
BRANCH  12  13
ATOM     13  O   UNL     1      35.307 -26.234 -15.033  0.00  0.00    -0.379 OA
ATOM     14  H   UNL     1      35.254 -26.590 -15.934  0.00  0.00    +0.211 HD
ENDBRANCH  12  13
BRANCH  12  15
ATOM     15  C   UNL     1      34.382 -24.271 -14.055  0.00  0.00    +0.169 C 
BRANCH  15  16
ATOM     16  O   UNL     1      34.710 -24.818 -12.781  0.00  0.00    -0.379 OA
ATOM     17  H   UNL     1      34.073 -25.513 -12.553  0.00  0.00    +0.211 HD
ENDBRANCH  15  16
ENDBRANCH  12  15
ENDBRANCH   1  12
TORSDOF 10
ENDMDL
