MODEL 1
REMARK VINA RESULT:      -9.8      0.000      0.000
REMARK  Name = 57484478
REMARK  8 active torsions:
REMARK  status: ('A' for Active; 'I' for Inactive)
REMARK    1  A    between atoms: N_2  and  C_21
REMARK    2  A    between atoms: C_4  and  C_16
REMARK    3  A    between atoms: C_5  and  C_7
REMARK    4  A    between atoms: C_7  and  C_9
REMARK    5  A    between atoms: C_16  and  C_17
REMARK    6  A    between atoms: C_17  and  C_18
REMARK    7  A    between atoms: C_18  and  S_19
REMARK    8  A    between atoms: C_21  and  C_23
REMARK                            x       y       z     vdW  Elec       q    Type
REMARK                         _______ _______ _______ _____ _____    ______ ____
ROOT
ATOM      1  O   UNL     1      35.229 -16.383 -20.263  0.00  0.00    -0.267 OA
ATOM      2  N   UNL     1      34.696 -15.910 -22.506  0.00  0.00    -0.218 N 
ATOM      3  N   UNL     1      35.183 -17.916 -23.427  0.00  0.00    -0.383 NA
ATOM      4  C   UNL     1      34.764 -16.703 -23.607  0.00  0.00    +0.224 C 
ATOM      5  C   UNL     1      35.431 -17.972 -22.076  0.00  0.00    +0.169 C 
ATOM      6  C   UNL     1      35.118 -16.664 -21.441  0.00  0.00    +0.281 C 
ENDROOT
BRANCH   4   8
ATOM      7  O   UNL     1      34.850 -16.765 -25.925  0.00  0.00    -0.287 OA
ATOM      8  C   UNL     1      34.379 -16.203 -24.940  0.00  0.00    +0.218 C 
BRANCH   8   9
ATOM      9  C   UNL     1      33.426 -15.025 -24.973  0.00  0.00    +0.085 C 
BRANCH   9  10
ATOM     10  C   UNL     1      32.783 -14.850 -26.344  0.00  0.00    +0.066 C 
BRANCH  10  11
ATOM     11  S   UNL     1      33.294 -13.279 -27.095  0.00  0.00    -0.139 S 
ATOM     12  C   UNL     1      33.681 -12.375 -25.578  0.00  0.00    +0.069 C 
ENDBRANCH  10  11
ENDBRANCH   9  10
ENDBRANCH   8   9
ENDBRANCH   4   8
BRANCH   5  13
ATOM     13  C   UNL     1      35.884 -19.024 -21.392  0.00  0.00    +0.090 C 
BRANCH  13  15
ATOM     14  O   UNL     1      32.780 -22.643 -18.559  0.00  0.00    -0.287 OA
ATOM     15  C   UNL     1      35.059 -19.988 -20.640  0.00  0.00    -0.015 C 
ATOM     16  C   UNL     1      33.667 -19.890 -20.674  0.00  0.00    -0.001 C 
ATOM     17  C   UNL     1      35.668 -20.995 -19.892  0.00  0.00    -0.001 C 
ATOM     18  C   UNL     1      32.887 -20.799 -19.962  0.00  0.00    +0.042 C 
ATOM     19  C   UNL     1      34.889 -21.904 -19.179  0.00  0.00    +0.042 C 
ATOM     20  C   UNL     1      33.497 -21.806 -19.214  0.00  0.00    +0.196 C 
ENDBRANCH  13  15
ENDBRANCH   5  13
BRANCH   2  21
ATOM     21  C   UNL     1      34.262 -14.527 -22.426  0.00  0.00    +0.173 C 
BRANCH  21  23
ATOM     22  O   UNL     1      32.111 -15.189 -21.599  0.00  0.00    -0.286 OA
ATOM     23  C   UNL     1      33.088 -14.452 -21.493  0.00  0.00    +0.230 C 
ENDBRANCH  21  23
ENDBRANCH   2  21
TORSDOF 8
ENDMDL
MODEL 2
REMARK VINA RESULT:      -9.6      6.220     10.743
REMARK  Name = 57484478
REMARK  8 active torsions:
REMARK  status: ('A' for Active; 'I' for Inactive)
REMARK    1  A    between atoms: N_2  and  C_21
REMARK    2  A    between atoms: C_4  and  C_16
REMARK    3  A    between atoms: C_5  and  C_7
REMARK    4  A    between atoms: C_7  and  C_9
REMARK    5  A    between atoms: C_16  and  C_17
REMARK    6  A    between atoms: C_17  and  C_18
REMARK    7  A    between atoms: C_18  and  S_19
REMARK    8  A    between atoms: C_21  and  C_23
REMARK                            x       y       z     vdW  Elec       q    Type
REMARK                         _______ _______ _______ _____ _____    ______ ____
ROOT
ATOM      1  O   UNL     1      31.403 -22.925 -16.673  0.00  0.00    -0.267 OA
ATOM      2  N   UNL     1      33.218 -23.459 -15.272  0.00  0.00    -0.218 N 
ATOM      3  N   UNL     1      34.885 -23.402 -16.798  0.00  0.00    -0.383 NA
ATOM      4  C   UNL     1      34.538 -23.593 -15.565  0.00  0.00    +0.224 C 
ATOM      5  C   UNL     1      33.696 -23.109 -17.424  0.00  0.00    +0.169 C 
ATOM      6  C   UNL     1      32.578 -23.139 -16.442  0.00  0.00    +0.281 C 
ENDROOT
BRANCH   4   8
ATOM      7  O   UNL     1      35.857 -23.064 -13.730  0.00  0.00    -0.287 OA
ATOM      8  C   UNL     1      35.524 -23.940 -14.525  0.00  0.00    +0.218 C 
BRANCH   8   9
ATOM      9  C   UNL     1      36.045 -25.363 -14.531  0.00  0.00    +0.085 C 
BRANCH   9  10
ATOM     10  C   UNL     1      37.526 -25.428 -14.883  0.00  0.00    +0.066 C 
BRANCH  10  11
ATOM     11  S   UNL     1      38.537 -25.551 -13.380  0.00  0.00    -0.139 S 
ATOM     12  C   UNL     1      40.160 -25.680 -14.166  0.00  0.00    +0.069 C 
ENDBRANCH  10  11
ENDBRANCH   9  10
ENDBRANCH   8   9
ENDBRANCH   4   8
BRANCH   5  13
ATOM     13  C   UNL     1      33.523 -22.832 -18.717  0.00  0.00    +0.090 C 
BRANCH  13  15
ATOM     14  O   UNL     1      35.830 -18.607 -21.471  0.00  0.00    -0.287 OA
ATOM     15  C   UNL     1      34.136 -21.709 -19.451  0.00  0.00    -0.015 C 
ATOM     16  C   UNL     1      35.525 -21.604 -19.531  0.00  0.00    -0.001 C 
ATOM     17  C   UNL     1      33.328 -20.751 -20.063  0.00  0.00    -0.001 C 
ATOM     18  C   UNL     1      36.105 -20.541 -20.223  0.00  0.00    +0.042 C 
ATOM     19  C   UNL     1      33.907 -19.688 -20.755  0.00  0.00    +0.042 C 
ATOM     20  C   UNL     1      35.296 -19.583 -20.835  0.00  0.00    +0.196 C 
ENDBRANCH  13  15
ENDBRANCH   5  13
BRANCH   2  21
ATOM     21  C   UNL     1      32.567 -23.613 -13.984  0.00  0.00    +0.173 C 
BRANCH  21  23
ATOM     22  O   UNL     1      31.080 -25.476 -14.240  0.00  0.00    -0.286 OA
ATOM     23  C   UNL     1      32.155 -25.049 -13.829  0.00  0.00    +0.230 C 
ENDBRANCH  21  23
ENDBRANCH   2  21
TORSDOF 8
ENDMDL
MODEL 3
REMARK VINA RESULT:      -9.6      1.912      3.330
REMARK  Name = 57484478
REMARK  8 active torsions:
REMARK  status: ('A' for Active; 'I' for Inactive)
REMARK    1  A    between atoms: N_2  and  C_21
REMARK    2  A    between atoms: C_4  and  C_16
REMARK    3  A    between atoms: C_5  and  C_7
REMARK    4  A    between atoms: C_7  and  C_9
REMARK    5  A    between atoms: C_16  and  C_17
REMARK    6  A    between atoms: C_17  and  C_18
REMARK    7  A    between atoms: C_18  and  S_19
REMARK    8  A    between atoms: C_21  and  C_23
REMARK                            x       y       z     vdW  Elec       q    Type
REMARK                         _______ _______ _______ _____ _____    ______ ____
ROOT
ATOM      1  O   UNL     1      35.350 -18.598 -24.194  0.00  0.00    -0.267 OA
ATOM      2  N   UNL     1      34.786 -16.765 -22.830  0.00  0.00    -0.218 N 
ATOM      3  N   UNL     1      34.398 -17.860 -20.891  0.00  0.00    -0.383 NA
ATOM      4  C   UNL     1      34.436 -16.727 -21.518  0.00  0.00    +0.224 C 
ATOM      5  C   UNL     1      34.754 -18.773 -21.856  0.00  0.00    +0.169 C 
ATOM      6  C   UNL     1      35.017 -18.080 -23.146  0.00  0.00    +0.281 C 
ENDROOT
BRANCH   4   8
ATOM      7  O   UNL     1      35.033 -14.834 -20.316  0.00  0.00    -0.287 OA
ATOM      8  C   UNL     1      34.115 -15.455 -20.845  0.00  0.00    +0.218 C 
BRANCH   8   9
ATOM      9  C   UNL     1      32.662 -15.024 -20.867  0.00  0.00    +0.085 C 
BRANCH   9  10
ATOM     10  C   UNL     1      32.515 -13.508 -20.811  0.00  0.00    +0.066 C 
BRANCH  10  11
ATOM     11  S   UNL     1      32.245 -12.829 -22.472  0.00  0.00    -0.139 S 
ATOM     12  C   UNL     1      31.364 -11.322 -22.000  0.00  0.00    +0.069 C 
ENDBRANCH  10  11
ENDBRANCH   9  10
ENDBRANCH   8   9
ENDBRANCH   4   8
BRANCH   5  13
ATOM     13  C   UNL     1      34.861 -20.093 -21.703  0.00  0.00    +0.090 C 
BRANCH  13  15
ATOM     14  O   UNL     1      35.733 -22.749 -16.913  0.00  0.00    -0.287 OA
ATOM     15  C   UNL     1      35.094 -20.801 -20.429  0.00  0.00    -0.015 C 
ATOM     16  C   UNL     1      34.030 -21.417 -19.770  0.00  0.00    -0.001 C 
ATOM     17  C   UNL     1      36.376 -20.852 -19.883  0.00  0.00    -0.001 C 
ATOM     18  C   UNL     1      34.249 -22.085 -18.565  0.00  0.00    +0.042 C 
ATOM     19  C   UNL     1      36.596 -21.518 -18.679  0.00  0.00    +0.042 C 
ATOM     20  C   UNL     1      35.532 -22.135 -18.019  0.00  0.00    +0.196 C 
ENDBRANCH  13  15
ENDBRANCH   5  13
BRANCH   2  21
ATOM     21  C   UNL     1      34.910 -15.654 -23.756  0.00  0.00    +0.173 C 
BRANCH  21  23
ATOM     22  O   UNL     1      33.956 -16.088 -25.913  0.00  0.00    -0.286 OA
ATOM     23  C   UNL     1      33.785 -15.737 -24.748  0.00  0.00    +0.230 C 
ENDBRANCH  21  23
ENDBRANCH   2  21
TORSDOF 8
ENDMDL
MODEL 4
REMARK VINA RESULT:      -9.5      5.480      9.793
REMARK  Name = 57484478
REMARK  8 active torsions:
REMARK  status: ('A' for Active; 'I' for Inactive)
REMARK    1  A    between atoms: N_2  and  C_21
REMARK    2  A    between atoms: C_4  and  C_16
REMARK    3  A    between atoms: C_5  and  C_7
REMARK    4  A    between atoms: C_7  and  C_9
REMARK    5  A    between atoms: C_16  and  C_17
REMARK    6  A    between atoms: C_17  and  C_18
REMARK    7  A    between atoms: C_18  and  S_19
REMARK    8  A    between atoms: C_21  and  C_23
REMARK                            x       y       z     vdW  Elec       q    Type
REMARK                         _______ _______ _______ _____ _____    ______ ____
ROOT
ATOM      1  O   UNL     1      35.653 -22.958 -16.953  0.00  0.00    -0.267 OA
ATOM      2  N   UNL     1      33.605 -23.212 -15.822  0.00  0.00    -0.218 N 
ATOM      3  N   UNL     1      32.193 -23.005 -17.575  0.00  0.00    -0.383 NA
ATOM      4  C   UNL     1      32.333 -23.191 -16.301  0.00  0.00    +0.224 C 
ATOM      5  C   UNL     1      33.486 -22.884 -18.026  0.00  0.00    +0.169 C 
ATOM      6  C   UNL     1      34.440 -23.017 -16.892  0.00  0.00    +0.281 C 
ENDROOT
BRANCH   4   8
ATOM      7  O   UNL     1      30.854 -22.435 -14.681  0.00  0.00    -0.287 OA
ATOM      8  C   UNL     1      31.173 -23.371 -15.409  0.00  0.00    +0.218 C 
BRANCH   8   9
ATOM      9  C   UNL     1      30.471 -24.712 -15.472  0.00  0.00    +0.085 C 
BRANCH   9  10
ATOM     10  C   UNL     1      28.957 -24.569 -15.373  0.00  0.00    +0.066 C 
BRANCH  10  11
ATOM     11  S   UNL     1      28.302 -23.686 -16.817  0.00  0.00    -0.139 S 
ATOM     12  C   UNL     1      27.422 -22.370 -15.943  0.00  0.00    +0.069 C 
ENDBRANCH  10  11
ENDBRANCH   9  10
ENDBRANCH   8   9
ENDBRANCH   4   8
BRANCH   5  13
ATOM     13  C   UNL     1      33.875 -22.678 -19.285  0.00  0.00    +0.090 C 
BRANCH  13  15
ATOM     14  O   UNL     1      35.072 -17.765 -21.562  0.00  0.00    -0.287 OA
ATOM     15  C   UNL     1      34.194 -21.370 -19.890  0.00  0.00    -0.015 C 
ATOM     16  C   UNL     1      33.165 -20.510 -20.273  0.00  0.00    -0.001 C 
ATOM     17  C   UNL     1      35.524 -20.995 -20.080  0.00  0.00    -0.001 C 
ATOM     18  C   UNL     1      33.466 -19.275 -20.846  0.00  0.00    +0.042 C 
ATOM     19  C   UNL     1      35.825 -19.760 -20.653  0.00  0.00    +0.042 C 
ATOM     20  C   UNL     1      34.796 -18.900 -21.036  0.00  0.00    +0.196 C 
ENDBRANCH  13  15
ENDBRANCH   5  13
BRANCH   2  21
ATOM     21  C   UNL     1      34.041 -23.405 -14.451  0.00  0.00    +0.173 C 
BRANCH  21  23
ATOM     22  O   UNL     1      35.766 -25.065 -14.313  0.00  0.00    -0.286 OA
ATOM     23  C   UNL     1      34.565 -24.805 -14.313  0.00  0.00    +0.230 C 
ENDBRANCH  21  23
ENDBRANCH   2  21
TORSDOF 8
ENDMDL
MODEL 5
REMARK VINA RESULT:      -9.5      5.505      9.859
REMARK  Name = 57484478
REMARK  8 active torsions:
REMARK  status: ('A' for Active; 'I' for Inactive)
REMARK    1  A    between atoms: N_2  and  C_21
REMARK    2  A    between atoms: C_4  and  C_16
REMARK    3  A    between atoms: C_5  and  C_7
REMARK    4  A    between atoms: C_7  and  C_9
REMARK    5  A    between atoms: C_16  and  C_17
REMARK    6  A    between atoms: C_17  and  C_18
REMARK    7  A    between atoms: C_18  and  S_19
REMARK    8  A    between atoms: C_21  and  C_23
REMARK                            x       y       z     vdW  Elec       q    Type
REMARK                         _______ _______ _______ _____ _____    ______ ____
ROOT
ATOM      1  O   UNL     1      35.654 -23.010 -16.884  0.00  0.00    -0.267 OA
ATOM      2  N   UNL     1      33.585 -23.237 -15.786  0.00  0.00    -0.218 N 
ATOM      3  N   UNL     1      32.203 -22.995 -17.560  0.00  0.00    -0.383 NA
ATOM      4  C   UNL     1      32.321 -23.191 -16.284  0.00  0.00    +0.224 C 
ATOM      5  C   UNL     1      33.505 -22.893 -17.990  0.00  0.00    +0.169 C 
ATOM      6  C   UNL     1      34.439 -23.049 -16.843  0.00  0.00    +0.281 C 
ENDROOT
BRANCH   4   8
ATOM      7  O   UNL     1      30.794 -22.400 -14.727  0.00  0.00    -0.287 OA
ATOM      8  C   UNL     1      31.145 -23.357 -15.411  0.00  0.00    +0.218 C 
BRANCH   8   9
ATOM      9  C   UNL     1      30.466 -24.713 -15.437  0.00  0.00    +0.085 C 
BRANCH   9  10
ATOM     10  C   UNL     1      28.948 -24.592 -15.378  0.00  0.00    +0.066 C 
BRANCH  10  11
ATOM     11  S   UNL     1      28.319 -23.696 -16.825  0.00  0.00    -0.139 S 
ATOM     12  C   UNL     1      27.396 -22.408 -15.956  0.00  0.00    +0.069 C 
ENDBRANCH  10  11
ENDBRANCH   9  10
ENDBRANCH   8   9
ENDBRANCH   4   8
BRANCH   5  13
ATOM     13  C   UNL     1      33.917 -22.687 -19.242  0.00  0.00    +0.090 C 
BRANCH  13  15
ATOM     14  O   UNL     1      34.792 -17.744 -21.601  0.00  0.00    -0.287 OA
ATOM     15  C   UNL     1      34.149 -21.372 -19.871  0.00  0.00    -0.015 C 
ATOM     16  C   UNL     1      35.452 -20.940 -20.122  0.00  0.00    -0.001 C 
ATOM     17  C   UNL     1      33.067 -20.561 -20.211  0.00  0.00    -0.001 C 
ATOM     18  C   UNL     1      35.672 -19.698 -20.715  0.00  0.00    +0.042 C 
ATOM     19  C   UNL     1      33.287 -19.318 -20.804  0.00  0.00    +0.042 C 
ATOM     20  C   UNL     1      34.589 -18.886 -21.055  0.00  0.00    +0.196 C 
ENDBRANCH  13  15
ENDBRANCH   5  13
BRANCH   2  21
ATOM     21  C   UNL     1      33.997 -23.445 -14.410  0.00  0.00    +0.173 C 
BRANCH  21  23
ATOM     22  O   UNL     1      35.813 -24.920 -13.887  0.00  0.00    -0.286 OA
ATOM     23  C   UNL     1      34.669 -24.784 -14.314  0.00  0.00    +0.230 C 
ENDBRANCH  21  23
ENDBRANCH   2  21
TORSDOF 8
ENDMDL
MODEL 6
REMARK VINA RESULT:      -9.4      3.763      8.045
REMARK  Name = 57484478
REMARK  8 active torsions:
REMARK  status: ('A' for Active; 'I' for Inactive)
REMARK    1  A    between atoms: N_2  and  C_21
REMARK    2  A    between atoms: C_4  and  C_16
REMARK    3  A    between atoms: C_5  and  C_7
REMARK    4  A    between atoms: C_7  and  C_9
REMARK    5  A    between atoms: C_16  and  C_17
REMARK    6  A    between atoms: C_17  and  C_18
REMARK    7  A    between atoms: C_18  and  S_19
REMARK    8  A    between atoms: C_21  and  C_23
REMARK                            x       y       z     vdW  Elec       q    Type
REMARK                         _______ _______ _______ _____ _____    ______ ____
ROOT
ATOM      1  O   UNL     1      33.239 -13.339 -24.424  0.00  0.00    -0.267 OA
ATOM      2  N   UNL     1      34.036 -15.000 -22.960  0.00  0.00    -0.218 N 
ATOM      3  N   UNL     1      32.780 -14.518 -21.143  0.00  0.00    -0.383 NA
ATOM      4  C   UNL     1      33.690 -15.272 -21.674  0.00  0.00    +0.224 C 
ATOM      5  C   UNL     1      32.464 -13.638 -22.151  0.00  0.00    +0.169 C 
ATOM      6  C   UNL     1      33.277 -13.931 -23.363  0.00  0.00    +0.281 C 
ENDROOT
BRANCH   4   8
ATOM      7  O   UNL     1      35.150 -16.084 -20.064  0.00  0.00    -0.287 OA
ATOM      8  C   UNL     1      34.322 -16.373 -20.925  0.00  0.00    +0.218 C 
BRANCH   8   9
ATOM      9  C   UNL     1      33.888 -17.779 -21.289  0.00  0.00    +0.085 C 
BRANCH   9  10
ATOM     10  C   UNL     1      35.076 -18.717 -21.459  0.00  0.00    +0.066 C 
BRANCH  10  11
ATOM     11  S   UNL     1      34.803 -20.268 -20.558  0.00  0.00    -0.139 S 
ATOM     12  C   UNL     1      33.000 -20.194 -20.448  0.00  0.00    +0.069 C 
ENDBRANCH  10  11
ENDBRANCH   9  10
ENDBRANCH   8   9
ENDBRANCH   4   8
BRANCH   5  13
ATOM     13  C   UNL     1      31.568 -12.652 -22.097  0.00  0.00    +0.090 C 
BRANCH  13  15
ATOM     14  O   UNL     1      32.156  -7.864 -19.359  0.00  0.00    -0.287 OA
ATOM     15  C   UNL     1      31.726 -11.378 -21.369  0.00  0.00    -0.015 C 
ATOM     16  C   UNL     1      31.567 -11.343 -19.983  0.00  0.00    -0.001 C 
ATOM     17  C   UNL     1      32.031 -10.209 -22.065  0.00  0.00    -0.001 C 
ATOM     18  C   UNL     1      31.714 -10.139 -19.295  0.00  0.00    +0.042 C 
ATOM     19  C   UNL     1      32.179  -9.005 -21.378  0.00  0.00    +0.042 C 
ATOM     20  C   UNL     1      32.020  -8.970 -19.992  0.00  0.00    +0.196 C 
ENDBRANCH  13  15
ENDBRANCH   5  13
BRANCH   2  21
ATOM     21  C   UNL     1      35.014 -15.684 -23.787  0.00  0.00    +0.173 C 
BRANCH  21  23
ATOM     22  O   UNL     1      34.720 -16.786 -25.896  0.00  0.00    -0.286 OA
ATOM     23  C   UNL     1      34.280 -16.545 -24.774  0.00  0.00    +0.230 C 
ENDBRANCH  21  23
ENDBRANCH   2  21
TORSDOF 8
ENDMDL
MODEL 7
REMARK VINA RESULT:      -9.1      2.125      3.839
REMARK  Name = 57484478
REMARK  8 active torsions:
REMARK  status: ('A' for Active; 'I' for Inactive)
REMARK    1  A    between atoms: N_2  and  C_21
REMARK    2  A    between atoms: C_4  and  C_16
REMARK    3  A    between atoms: C_5  and  C_7
REMARK    4  A    between atoms: C_7  and  C_9
REMARK    5  A    between atoms: C_16  and  C_17
REMARK    6  A    between atoms: C_17  and  C_18
REMARK    7  A    between atoms: C_18  and  S_19
REMARK    8  A    between atoms: C_21  and  C_23
REMARK                            x       y       z     vdW  Elec       q    Type
REMARK                         _______ _______ _______ _____ _____    ______ ____
ROOT
ATOM      1  O   UNL     1      34.387 -17.200 -25.625  0.00  0.00    -0.267 OA
ATOM      2  N   UNL     1      33.538 -15.133 -24.886  0.00  0.00    -0.218 N 
ATOM      3  N   UNL     1      34.529 -15.036 -22.857  0.00  0.00    -0.383 NA
ATOM      4  C   UNL     1      33.746 -14.469 -23.719  0.00  0.00    +0.224 C 
ATOM      5  C   UNL     1      34.901 -16.203 -23.480  0.00  0.00    +0.169 C 
ATOM      6  C   UNL     1      34.264 -16.295 -24.822  0.00  0.00    +0.281 C 
ENDROOT
BRANCH   4   8
ATOM      7  O   UNL     1      32.035 -13.164 -22.852  0.00  0.00    -0.287 OA
ATOM      8  C   UNL     1      33.107 -13.168 -23.450  0.00  0.00    +0.218 C 
BRANCH   8   9
ATOM      9  C   UNL     1      33.841 -11.937 -23.944  0.00  0.00    +0.085 C 
BRANCH   9  10
ATOM     10  C   UNL     1      33.138 -10.649 -23.533  0.00  0.00    +0.066 C 
BRANCH  10  11
ATOM     11  S   UNL     1      34.198  -9.211 -23.848  0.00  0.00    -0.139 S 
ATOM     12  C   UNL     1      35.242  -9.931 -25.137  0.00  0.00    +0.069 C 
ENDBRANCH  10  11
ENDBRANCH   9  10
ENDBRANCH   8   9
ENDBRANCH   4   8
BRANCH   5  13
ATOM     13  C   UNL     1      35.713 -17.144 -22.994  0.00  0.00    +0.090 C 
BRANCH  13  15
ATOM     14  O   UNL     1      34.253 -21.244 -19.557  0.00  0.00    -0.287 OA
ATOM     15  C   UNL     1      35.324 -18.233 -22.079  0.00  0.00    -0.015 C 
ATOM     16  C   UNL     1      36.305 -18.958 -21.401  0.00  0.00    -0.001 C 
ATOM     17  C   UNL     1      33.977 -18.541 -21.893  0.00  0.00    -0.001 C 
ATOM     18  C   UNL     1      35.938 -19.989 -20.537  0.00  0.00    +0.042 C 
ATOM     19  C   UNL     1      33.609 -19.573 -21.030  0.00  0.00    +0.042 C 
ATOM     20  C   UNL     1      34.590 -20.297 -20.352  0.00  0.00    +0.196 C 
ENDBRANCH  13  15
ENDBRANCH   5  13
BRANCH   2  21
ATOM     21  C   UNL     1      32.718 -14.726 -26.012  0.00  0.00    +0.173 C 
BRANCH  21  23
ATOM     22  O   UNL     1      33.912 -13.886 -27.915  0.00  0.00    -0.286 OA
ATOM     23  C   UNL     1      33.465 -13.680 -26.789  0.00  0.00    +0.230 C 
ENDBRANCH  21  23
ENDBRANCH   2  21
TORSDOF 8
ENDMDL
MODEL 8
REMARK VINA RESULT:      -9.1      2.479      4.146
REMARK  Name = 57484478
REMARK  8 active torsions:
REMARK  status: ('A' for Active; 'I' for Inactive)
REMARK    1  A    between atoms: N_2  and  C_21
REMARK    2  A    between atoms: C_4  and  C_16
REMARK    3  A    between atoms: C_5  and  C_7
REMARK    4  A    between atoms: C_7  and  C_9
REMARK    5  A    between atoms: C_16  and  C_17
REMARK    6  A    between atoms: C_17  and  C_18
REMARK    7  A    between atoms: C_18  and  S_19
REMARK    8  A    between atoms: C_21  and  C_23
REMARK                            x       y       z     vdW  Elec       q    Type
REMARK                         _______ _______ _______ _____ _____    ______ ____
ROOT
ATOM      1  O   UNL     1      34.294 -17.259 -25.744  0.00  0.00    -0.267 OA
ATOM      2  N   UNL     1      33.609 -15.181 -24.876  0.00  0.00    -0.218 N 
ATOM      3  N   UNL     1      34.769 -15.198 -22.935  0.00  0.00    -0.383 NA
ATOM      4  C   UNL     1      33.944 -14.567 -23.711  0.00  0.00    +0.224 C 
ATOM      5  C   UNL     1      35.031 -16.359 -23.622  0.00  0.00    +0.169 C 
ATOM      6  C   UNL     1      34.281 -16.377 -24.907  0.00  0.00    +0.281 C 
ENDROOT
BRANCH   4   8
ATOM      7  O   UNL     1      34.001 -12.248 -23.724  0.00  0.00    -0.287 OA
ATOM      8  C   UNL     1      33.393 -13.248 -23.351  0.00  0.00    +0.218 C 
BRANCH   8   9
ATOM      9  C   UNL     1      32.111 -13.246 -22.543  0.00  0.00    +0.085 C 
BRANCH   9  10
ATOM     10  C   UNL     1      32.243 -12.429 -21.264  0.00  0.00    +0.066 C 
BRANCH  10  11
ATOM     11  S   UNL     1      30.873 -11.250 -21.111  0.00  0.00    -0.139 S 
ATOM     12  C   UNL     1      31.148 -10.747 -19.396  0.00  0.00    +0.069 C 
ENDBRANCH  10  11
ENDBRANCH   9  10
ENDBRANCH   8   9
ENDBRANCH   4   8
BRANCH   5  13
ATOM     13  C   UNL     1      35.834 -17.351 -23.234  0.00  0.00    +0.090 C 
BRANCH  13  15
ATOM     14  O   UNL     1      34.616 -21.247 -19.480  0.00  0.00    -0.287 OA
ATOM     15  C   UNL     1      35.509 -18.387 -22.235  0.00  0.00    -0.015 C 
ATOM     16  C   UNL     1      36.498 -18.853 -21.367  0.00  0.00    -0.001 C 
ATOM     17  C   UNL     1      34.215 -18.901 -22.158  0.00  0.00    -0.001 C 
ATOM     18  C   UNL     1      36.192 -19.833 -20.424  0.00  0.00    +0.042 C 
ATOM     19  C   UNL     1      33.909 -19.881 -21.215  0.00  0.00    +0.042 C 
ATOM     20  C   UNL     1      34.897 -20.347 -20.348  0.00  0.00    +0.196 C 
ENDBRANCH  13  15
ENDBRANCH   5  13
BRANCH   2  21
ATOM     21  C   UNL     1      32.719 -14.700 -25.916  0.00  0.00    +0.173 C 
BRANCH  21  23
ATOM     22  O   UNL     1      32.964 -13.153 -27.732  0.00  0.00    -0.286 OA
ATOM     23  C   UNL     1      33.480 -13.738 -26.783  0.00  0.00    +0.230 C 
ENDBRANCH  21  23
ENDBRANCH   2  21
TORSDOF 8
ENDMDL
MODEL 9
REMARK VINA RESULT:      -8.7      5.499      9.766
REMARK  Name = 57484478
REMARK  8 active torsions:
REMARK  status: ('A' for Active; 'I' for Inactive)
REMARK    1  A    between atoms: N_2  and  C_21
REMARK    2  A    between atoms: C_4  and  C_16
REMARK    3  A    between atoms: C_5  and  C_7
REMARK    4  A    between atoms: C_7  and  C_9
REMARK    5  A    between atoms: C_16  and  C_17
REMARK    6  A    between atoms: C_17  and  C_18
REMARK    7  A    between atoms: C_18  and  S_19
REMARK    8  A    between atoms: C_21  and  C_23
REMARK                            x       y       z     vdW  Elec       q    Type
REMARK                         _______ _______ _______ _____ _____    ______ ____
ROOT
ATOM      1  O   UNL     1      36.720 -21.875 -17.672  0.00  0.00    -0.267 OA
ATOM      2  N   UNL     1      35.321 -22.794 -16.017  0.00  0.00    -0.218 N 
ATOM      3  N   UNL     1      33.509 -23.256 -17.287  0.00  0.00    -0.383 NA
ATOM      4  C   UNL     1      34.057 -23.284 -16.114  0.00  0.00    +0.224 C 
ATOM      5  C   UNL     1      34.480 -22.694 -18.082  0.00  0.00    +0.169 C 
ATOM      6  C   UNL     1      35.688 -22.379 -17.272  0.00  0.00    +0.281 C 
ENDROOT
BRANCH   4   8
ATOM      7  O   UNL     1      33.968 -24.559 -14.178  0.00  0.00    -0.287 OA
ATOM      8  C   UNL     1      33.348 -23.819 -14.937  0.00  0.00    +0.218 C 
BRANCH   8   9
ATOM      9  C   UNL     1      31.901 -23.402 -14.769  0.00  0.00    +0.085 C 
BRANCH   9  10
ATOM     10  C   UNL     1      30.970 -24.603 -14.659  0.00  0.00    +0.066 C 
BRANCH  10  11
ATOM     11  S   UNL     1      29.309 -24.184 -15.258  0.00  0.00    -0.139 S 
ATOM     12  C   UNL     1      29.771 -22.883 -16.425  0.00  0.00    +0.069 C 
ENDBRANCH  10  11
ENDBRANCH   9  10
ENDBRANCH   8   9
ENDBRANCH   4   8
BRANCH   5  13
ATOM     13  C   UNL     1      34.396 -22.449 -19.390  0.00  0.00    +0.090 C 
BRANCH  13  15
ATOM     14  O   UNL     1      34.165 -17.436 -21.750  0.00  0.00    -0.287 OA
ATOM     15  C   UNL     1      34.334 -21.116 -20.019  0.00  0.00    -0.015 C 
ATOM     16  C   UNL     1      35.505 -20.497 -20.457  0.00  0.00    -0.001 C 
ATOM     17  C   UNL     1      33.106 -20.475 -20.175  0.00  0.00    -0.001 C 
ATOM     18  C   UNL     1      35.447 -19.236 -21.050  0.00  0.00    +0.042 C 
ATOM     19  C   UNL     1      33.047 -19.214 -20.767  0.00  0.00    +0.042 C 
ATOM     20  C   UNL     1      34.218 -18.594 -21.205  0.00  0.00    +0.196 C 
ENDBRANCH  13  15
ENDBRANCH   5  13
BRANCH   2  21
ATOM     21  C   UNL     1      36.160 -22.710 -14.835  0.00  0.00    +0.173 C 
BRANCH  21  23
ATOM     22  O   UNL     1      38.014 -24.007 -14.043  0.00  0.00    -0.286 OA
ATOM     23  C   UNL     1      37.282 -23.697 -14.980  0.00  0.00    +0.230 C 
ENDBRANCH  21  23
ENDBRANCH   2  21
TORSDOF 8
ENDMDL
