MODEL 1
REMARK VINA RESULT:      -8.5      0.000      0.000
REMARK  Name = 854023
REMARK  1 active torsions:
REMARK  status: ('A' for Active; 'I' for Inactive)
REMARK    1  A    between atoms: C_4  and  C_12
REMARK                            x       y       z     vdW  Elec       q    Type
REMARK                         _______ _______ _______ _____ _____    ______ ____
ROOT
ATOM      1  N   UNL     1      36.224 -18.217 -22.856  0.00  0.00    +0.387 N 
ATOM      2  C   UNL     1      35.066 -18.989 -23.353  0.00  0.00    -0.058 C 
ATOM      3  C   UNL     1      35.507 -16.948 -22.649  0.00  0.00    -0.062 C 
ATOM      4  C   UNL     1      34.062 -18.816 -22.190  0.00  0.00    +0.002 C 
ATOM      5  C   UNL     1      34.429 -17.410 -21.664  0.00  0.00    -0.019 C 
ATOM      6  C   UNL     1      34.633 -18.119 -24.542  0.00  0.00    -0.023 C 
ATOM      7  C   UNL     1      34.905 -16.699 -24.034  0.00  0.00    -0.023 C 
ATOM      8  H   UNL     1      36.967 -18.137 -23.551  0.00  0.00    -0.084 HD
ATOM      9  H   UNL     1      36.721 -18.600 -22.053  0.00  0.00    -0.084 HD
ENDROOT
BRANCH   4  12
ATOM     10 CL   UNL     1      33.918 -22.884 -17.847  0.00  0.00    -0.061 Cl
ATOM     11  N   UNL     1      32.847 -21.248 -19.549  0.00  0.00    -0.233 NA
ATOM     12  C   UNL     1      34.079 -19.853 -21.085  0.00  0.00    -0.005 C 
ATOM     13  C   UNL     1      35.279 -20.354 -20.599  0.00  0.00    -0.000 C 
ATOM     14  C   UNL     1      32.902 -20.325 -20.536  0.00  0.00    +0.095 C 
ATOM     15  C   UNL     1      35.263 -21.306 -19.584  0.00  0.00    +0.030 C 
ATOM     16  C   UNL     1      34.033 -21.715 -19.098  0.00  0.00    +0.138 C 
ENDBRANCH   4  12
TORSDOF 1
ENDMDL
MODEL 2
REMARK VINA RESULT:      -8.3      0.881      1.338
REMARK  Name = 854023
REMARK  1 active torsions:
REMARK  status: ('A' for Active; 'I' for Inactive)
REMARK    1  A    between atoms: C_4  and  C_12
REMARK                            x       y       z     vdW  Elec       q    Type
REMARK                         _______ _______ _______ _____ _____    ______ ____
ROOT
ATOM      1  N   UNL     1      36.237 -17.953 -22.896  0.00  0.00    +0.387 N 
ATOM      2  C   UNL     1      35.185 -18.872 -23.378  0.00  0.00    -0.058 C 
ATOM      3  C   UNL     1      35.372 -16.773 -22.732  0.00  0.00    -0.062 C 
ATOM      4  C   UNL     1      34.155 -18.787 -22.227  0.00  0.00    +0.002 C 
ATOM      5  C   UNL     1      34.346 -17.333 -21.741  0.00  0.00    -0.019 C 
ATOM      6  C   UNL     1      34.664 -18.095 -24.595  0.00  0.00    -0.023 C 
ATOM      7  C   UNL     1      34.760 -16.639 -24.129  0.00  0.00    -0.023 C 
ATOM      8  H   UNL     1      36.973 -17.805 -23.587  0.00  0.00    -0.084 HD
ATOM      9  H   UNL     1      36.768 -18.251 -22.078  0.00  0.00    -0.084 HD
ENDROOT
BRANCH   4  12
ATOM     10 CL   UNL     1      34.871 -22.669 -17.773  0.00  0.00    -0.061 Cl
ATOM     11  N   UNL     1      35.707 -20.997 -19.569  0.00  0.00    -0.233 NA
ATOM     12  C   UNL     1      34.284 -19.782 -21.092  0.00  0.00    -0.005 C 
ATOM     13  C   UNL     1      33.159 -20.379 -20.538  0.00  0.00    -0.000 C 
ATOM     14  C   UNL     1      35.523 -20.118 -20.580  0.00  0.00    +0.095 C 
ATOM     15  C   UNL     1      33.309 -21.288 -19.496  0.00  0.00    +0.030 C 
ATOM     16  C   UNL     1      34.592 -21.561 -19.052  0.00  0.00    +0.138 C 
ENDBRANCH   4  12
TORSDOF 1
ENDMDL
MODEL 3
REMARK VINA RESULT:      -8.2      1.217      1.453
REMARK  Name = 854023
REMARK  1 active torsions:
REMARK  status: ('A' for Active; 'I' for Inactive)
REMARK    1  A    between atoms: C_4  and  C_12
REMARK                            x       y       z     vdW  Elec       q    Type
REMARK                         _______ _______ _______ _____ _____    ______ ____
ROOT
ATOM      1  N   UNL     1      35.531 -17.564 -20.617  0.00  0.00    +0.387 N 
ATOM      2  C   UNL     1      35.842 -18.730 -21.470  0.00  0.00    -0.058 C 
ATOM      3  C   UNL     1      34.371 -17.091 -21.390  0.00  0.00    -0.062 C 
ATOM      4  C   UNL     1      34.497 -19.493 -21.445  0.00  0.00    +0.002 C 
ATOM      5  C   UNL     1      33.481 -18.336 -21.321  0.00  0.00    -0.019 C 
ATOM      6  C   UNL     1      36.022 -18.046 -22.832  0.00  0.00    -0.023 C 
ATOM      7  C   UNL     1      34.972 -16.931 -22.789  0.00  0.00    -0.023 C 
ATOM      8  H   UNL     1      36.290 -16.883 -20.595  0.00  0.00    -0.084 HD
ATOM      9  H   UNL     1      35.378 -17.747 -19.626  0.00  0.00    -0.084 HD
ENDROOT
BRANCH   4  12
ATOM     10 CL   UNL     1      33.507 -23.563 -17.216  0.00  0.00    -0.061 Cl
ATOM     11  N   UNL     1      32.783 -21.819 -18.993  0.00  0.00    -0.233 NA
ATOM     12  C   UNL     1      34.298 -20.536 -20.364  0.00  0.00    -0.005 C 
ATOM     13  C   UNL     1      35.387 -21.152 -19.761  0.00  0.00    -0.000 C 
ATOM     14  C   UNL     1      33.030 -20.898 -19.952  0.00  0.00    +0.095 C 
ATOM     15  C   UNL     1      35.173 -22.106 -18.771  0.00  0.00    +0.030 C 
ATOM     16  C   UNL     1      33.864 -22.400 -18.426  0.00  0.00    +0.138 C 
ENDBRANCH   4  12
TORSDOF 1
ENDMDL
MODEL 4
REMARK VINA RESULT:      -8.0      3.754      5.947
REMARK  Name = 854023
REMARK  1 active torsions:
REMARK  status: ('A' for Active; 'I' for Inactive)
REMARK    1  A    between atoms: C_4  and  C_12
REMARK                            x       y       z     vdW  Elec       q    Type
REMARK                         _______ _______ _______ _____ _____    ______ ____
ROOT
ATOM      1  N   UNL     1      35.367 -17.829 -20.707  0.00  0.00    +0.387 N 
ATOM      2  C   UNL     1      34.269 -18.526 -21.408  0.00  0.00    -0.058 C 
ATOM      3  C   UNL     1      36.446 -18.734 -21.135  0.00  0.00    -0.062 C 
ATOM      4  C   UNL     1      34.787 -18.523 -22.865  0.00  0.00    +0.002 C 
ATOM      5  C   UNL     1      36.317 -18.600 -22.656  0.00  0.00    -0.019 C 
ATOM      6  C   UNL     1      34.404 -19.936 -20.816  0.00  0.00    -0.023 C 
ATOM      7  C   UNL     1      35.920 -20.092 -20.663  0.00  0.00    -0.023 C 
ATOM      8  H   UNL     1      35.241 -17.822 -19.694  0.00  0.00    -0.084 HD
ATOM      9  H   UNL     1      35.489 -16.838 -20.915  0.00  0.00    -0.084 HD
ENDROOT
BRANCH   4  12
ATOM     10 CL   UNL     1      33.273 -14.062 -26.503  0.00  0.00    -0.061 Cl
ATOM     11  N   UNL     1      33.938 -16.508 -25.961  0.00  0.00    -0.233 NA
ATOM     12  C   UNL     1      34.399 -17.354 -23.748  0.00  0.00    -0.005 C 
ATOM     13  C   UNL     1      34.151 -16.102 -23.203  0.00  0.00    -0.000 C 
ATOM     14  C   UNL     1      34.281 -17.508 -25.117  0.00  0.00    +0.095 C 
ATOM     15  C   UNL     1      33.795 -15.049 -24.039  0.00  0.00    +0.030 C 
ATOM     16  C   UNL     1      33.704 -15.301 -25.398  0.00  0.00    +0.138 C 
ENDBRANCH   4  12
TORSDOF 1
ENDMDL
MODEL 5
REMARK VINA RESULT:      -7.8      2.443      3.305
REMARK  Name = 854023
REMARK  1 active torsions:
REMARK  status: ('A' for Active; 'I' for Inactive)
REMARK    1  A    between atoms: C_4  and  C_12
REMARK                            x       y       z     vdW  Elec       q    Type
REMARK                         _______ _______ _______ _____ _____    ______ ____
ROOT
ATOM      1  N   UNL     1      34.543 -14.792 -20.618  0.00  0.00    +0.387 N 
ATOM      2  C   UNL     1      34.713 -15.420 -21.945  0.00  0.00    -0.058 C 
ATOM      3  C   UNL     1      33.083 -14.625 -20.694  0.00  0.00    -0.062 C 
ATOM      4  C   UNL     1      33.761 -16.633 -21.832  0.00  0.00    +0.002 C 
ATOM      5  C   UNL     1      32.659 -16.082 -20.899  0.00  0.00    -0.019 C 
ATOM      6  C   UNL     1      34.083 -14.352 -22.849  0.00  0.00    -0.023 C 
ATOM      7  C   UNL     1      32.927 -13.827 -21.991  0.00  0.00    -0.023 C 
ATOM      8  H   UNL     1      35.036 -13.902 -20.542  0.00  0.00    -0.084 HD
ATOM      9  H   UNL     1      34.906 -15.307 -19.816  0.00  0.00    -0.084 HD
ENDROOT
BRANCH   4  12
ATOM     10 CL   UNL     1      36.217 -21.666 -19.816  0.00  0.00    -0.061 Cl
ATOM     11  N   UNL     1      36.277 -19.223 -20.683  0.00  0.00    -0.233 NA
ATOM     12  C   UNL     1      34.337 -17.936 -21.316  0.00  0.00    -0.005 C 
ATOM     13  C   UNL     1      33.509 -19.007 -21.007  0.00  0.00    -0.000 C 
ATOM     14  C   UNL     1      35.699 -18.089 -21.139  0.00  0.00    +0.095 C 
ATOM     15  C   UNL     1      34.066 -20.190 -20.535  0.00  0.00    +0.030 C 
ATOM     16  C   UNL     1      35.443 -20.247 -20.392  0.00  0.00    +0.138 C 
ENDBRANCH   4  12
TORSDOF 1
ENDMDL
MODEL 6
REMARK VINA RESULT:      -7.8      4.058      6.339
REMARK  Name = 854023
REMARK  1 active torsions:
REMARK  status: ('A' for Active; 'I' for Inactive)
REMARK    1  A    between atoms: C_4  and  C_12
REMARK                            x       y       z     vdW  Elec       q    Type
REMARK                         _______ _______ _______ _____ _____    ______ ____
ROOT
ATOM      1  N   UNL     1      34.524 -19.087 -22.754  0.00  0.00    +0.387 N 
ATOM      2  C   UNL     1      35.697 -18.266 -23.116  0.00  0.00    -0.058 C 
ATOM      3  C   UNL     1      34.444 -18.661 -21.347  0.00  0.00    -0.062 C 
ATOM      4  C   UNL     1      35.208 -16.850 -22.734  0.00  0.00    +0.002 C 
ATOM      5  C   UNL     1      34.279 -17.150 -21.537  0.00  0.00    -0.019 C 
ATOM      6  C   UNL     1      36.718 -18.756 -22.080  0.00  0.00    -0.023 C 
ATOM      7  C   UNL     1      35.850 -18.994 -20.840  0.00  0.00    -0.023 C 
ATOM      8  H   UNL     1      34.702 -20.087 -22.850  0.00  0.00    -0.084 HD
ATOM      9  H   UNL     1      33.684 -18.964 -23.319  0.00  0.00    -0.084 HD
ENDROOT
BRANCH   4  12
ATOM     10 CL   UNL     1      32.494 -13.802 -27.067  0.00  0.00    -0.061 Cl
ATOM     11  N   UNL     1      33.807 -15.818 -26.101  0.00  0.00    -0.233 NA
ATOM     12  C   UNL     1      34.506 -16.035 -23.801  0.00  0.00    -0.005 C 
ATOM     13  C   UNL     1      33.933 -14.807 -23.497  0.00  0.00    -0.000 C 
ATOM     14  C   UNL     1      34.418 -16.494 -25.102  0.00  0.00    +0.095 C 
ATOM     15  C   UNL     1      33.294 -14.082 -24.498  0.00  0.00    +0.030 C 
ATOM     16  C   UNL     1      33.260 -14.626 -25.772  0.00  0.00    +0.138 C 
ENDBRANCH   4  12
TORSDOF 1
ENDMDL
MODEL 7
REMARK VINA RESULT:      -7.6      3.761      5.835
REMARK  Name = 854023
REMARK  1 active torsions:
REMARK  status: ('A' for Active; 'I' for Inactive)
REMARK    1  A    between atoms: C_4  and  C_12
REMARK                            x       y       z     vdW  Elec       q    Type
REMARK                         _______ _______ _______ _____ _____    ______ ____
ROOT
ATOM      1  N   UNL     1      35.263 -19.251 -22.598  0.00  0.00    +0.387 N 
ATOM      2  C   UNL     1      36.045 -18.390 -21.687  0.00  0.00    -0.058 C 
ATOM      3  C   UNL     1      34.402 -19.854 -21.568  0.00  0.00    -0.062 C 
ATOM      4  C   UNL     1      34.924 -17.575 -21.001  0.00  0.00    +0.002 C 
ATOM      5  C   UNL     1      33.760 -18.591 -20.987  0.00  0.00    -0.019 C 
ATOM      6  C   UNL     1      36.594 -19.437 -20.708  0.00  0.00    -0.023 C 
ATOM      7  C   UNL     1      35.435 -20.433 -20.598  0.00  0.00    -0.023 C 
ATOM      8  H   UNL     1      35.843 -19.941 -23.077  0.00  0.00    -0.084 HD
ATOM      9  H   UNL     1      34.793 -18.789 -23.377  0.00  0.00    -0.084 HD
ENDROOT
BRANCH   4  12
ATOM     10 CL   UNL     1      33.442 -12.468 -23.675  0.00  0.00    -0.061 Cl
ATOM     11  N   UNL     1      34.648 -14.758 -23.521  0.00  0.00    -0.233 NA
ATOM     12  C   UNL     1      34.517 -16.262 -21.639  0.00  0.00    -0.005 C 
ATOM     13  C   UNL     1      33.677 -15.379 -20.975  0.00  0.00    -0.000 C 
ATOM     14  C   UNL     1      34.972 -15.912 -22.897  0.00  0.00    +0.095 C 
ATOM     15  C   UNL     1      33.320 -14.181 -21.585  0.00  0.00    +0.030 C 
ATOM     16  C   UNL     1      33.828 -13.920 -22.847  0.00  0.00    +0.138 C 
ENDBRANCH   4  12
TORSDOF 1
ENDMDL
MODEL 8
REMARK VINA RESULT:      -7.3      4.826      8.159
REMARK  Name = 854023
REMARK  1 active torsions:
REMARK  status: ('A' for Active; 'I' for Inactive)
REMARK    1  A    between atoms: C_4  and  C_12
REMARK                            x       y       z     vdW  Elec       q    Type
REMARK                         _______ _______ _______ _____ _____    ______ ____
ROOT
ATOM      1  N   UNL     1      31.734 -22.282 -14.339  0.00  0.00    +0.387 N 
ATOM      2  C   UNL     1      31.247 -22.971 -15.553  0.00  0.00    -0.058 C 
ATOM      3  C   UNL     1      32.114 -23.494 -13.596  0.00  0.00    -0.062 C 
ATOM      4  C   UNL     1      32.490 -23.800 -15.952  0.00  0.00    +0.002 C 
ATOM      5  C   UNL     1      33.123 -24.101 -14.575  0.00  0.00    -0.019 C 
ATOM      6  C   UNL     1      30.183 -23.896 -14.947  0.00  0.00    -0.023 C 
ATOM      7  C   UNL     1      30.805 -24.288 -13.603  0.00  0.00    -0.023 C 
ATOM      8  H   UNL     1      30.999 -21.750 -13.872  0.00  0.00    -0.084 HD
ATOM      9  H   UNL     1      32.459 -21.577 -14.471  0.00  0.00    -0.084 HD
ENDROOT
BRANCH   4  12
ATOM     10 CL   UNL     1      36.550 -21.337 -19.541  0.00  0.00    -0.061 Cl
ATOM     11  N   UNL     1      35.755 -22.485 -17.356  0.00  0.00    -0.233 NA
ATOM     12  C   UNL     1      33.485 -23.165 -16.902  0.00  0.00    -0.005 C 
ATOM     13  C   UNL     1      33.081 -22.692 -18.144  0.00  0.00    -0.000 C 
ATOM     14  C   UNL     1      34.817 -23.041 -16.556  0.00  0.00    +0.095 C 
ATOM     15  C   UNL     1      34.018 -22.115 -18.995  0.00  0.00    +0.030 C 
ATOM     16  C   UNL     1      35.329 -22.035 -18.558  0.00  0.00    +0.138 C 
ENDBRANCH   4  12
TORSDOF 1
ENDMDL
MODEL 9
REMARK VINA RESULT:      -7.3      4.016      6.160
REMARK  Name = 854023
REMARK  1 active torsions:
REMARK  status: ('A' for Active; 'I' for Inactive)
REMARK    1  A    between atoms: C_4  and  C_12
REMARK                            x       y       z     vdW  Elec       q    Type
REMARK                         _______ _______ _______ _____ _____    ______ ____
ROOT
ATOM      1  N   UNL     1      35.524 -17.731 -20.591  0.00  0.00    +0.387 N 
ATOM      2  C   UNL     1      34.194 -17.975 -21.187  0.00  0.00    -0.058 C 
ATOM      3  C   UNL     1      36.261 -18.704 -21.415  0.00  0.00    -0.062 C 
ATOM      4  C   UNL     1      34.476 -17.706 -22.683  0.00  0.00    +0.002 C 
ATOM      5  C   UNL     1      35.948 -18.159 -22.812  0.00  0.00    -0.019 C 
ATOM      6  C   UNL     1      34.049 -19.484 -20.952  0.00  0.00    -0.023 C 
ATOM      7  C   UNL     1      35.480 -19.993 -21.148  0.00  0.00    -0.023 C 
ATOM      8  H   UNL     1      35.554 -17.959 -19.597  0.00  0.00    -0.084 HD
ATOM      9  H   UNL     1      35.863 -16.770 -20.601  0.00  0.00    -0.084 HD
ENDROOT
BRANCH   4  12
ATOM     10 CL   UNL     1      33.648 -12.242 -24.892  0.00  0.00    -0.061 Cl
ATOM     11  N   UNL     1      33.797 -14.825 -25.050  0.00  0.00    -0.233 NA
ATOM     12  C   UNL     1      34.274 -16.295 -23.197  0.00  0.00    -0.005 C 
ATOM     13  C   UNL     1      34.370 -15.206 -22.340  0.00  0.00    -0.000 C 
ATOM     14  C   UNL     1      33.988 -16.058 -24.528  0.00  0.00    +0.095 C 
ATOM     15  C   UNL     1      34.179 -13.922 -22.840  0.00  0.00    +0.030 C 
ATOM     16  C   UNL     1      33.898 -13.787 -24.190  0.00  0.00    +0.138 C 
ENDBRANCH   4  12
TORSDOF 1
ENDMDL
