MODEL 1
REMARK VINA RESULT:      -6.2      0.000      0.000
REMARK  Name = 448670
REMARK  8 active torsions:
REMARK  status: ('A' for Active; 'I' for Inactive)
REMARK    1  A    between atoms: P_1  and  O_3
REMARK    2  A    between atoms: P_1  and  O_5
REMARK    3  A    between atoms: P_1  and  O_9
REMARK    4  A    between atoms: O_5  and  C_6
REMARK    5  A    between atoms: C_6  and  C_7
REMARK    6  A    between atoms: O_9  and  P_10
REMARK    7  A    between atoms: P_10  and  O_12
REMARK    8  A    between atoms: P_10  and  O_14
REMARK                            x       y       z     vdW  Elec       q    Type
REMARK                         _______ _______ _______ _____ _____    ______ ____
ROOT
ATOM      1  P   UNL     1      37.228 -26.244 -14.902  0.00  0.00    +0.484 P 
ATOM      2  O   UNL     1      36.421 -27.140 -15.797  0.00  0.00    -0.227 OA
ENDROOT
BRANCH   1   3
ATOM      3  O   UNL     1      37.482 -24.761 -15.497  0.00  0.00    -0.302 OA
ATOM      4  H   UNL     1      37.737 -24.164 -14.776  0.00  0.00    +0.222 HD
ENDBRANCH   1   3
BRANCH   1   5
ATOM      5  O   UNL     1      36.585 -25.989 -13.439  0.00  0.00    -0.273 OA
BRANCH   5   6
ATOM      6  C   UNL     1      36.164 -24.688 -13.067  0.00  0.00    +0.154 C 
BRANCH   6   7
ATOM      7  C   UNL     1      36.845 -24.306 -11.762  0.00  0.00    +0.033 C 
ATOM      8  C   UNL     1      37.449 -22.915 -11.825  0.00  0.00    +0.003 C 
ENDBRANCH   6   7
ENDBRANCH   5   6
ENDBRANCH   1   5
BRANCH   1   9
ATOM      9  O   UNL     1      38.723 -26.782 -14.600  0.00  0.00    -0.186 OA
BRANCH   9  10
ATOM     10  P   UNL     1      40.148 -26.020 -14.615  0.00  0.00    +0.481 P 
ATOM     11  O   UNL     1      41.280 -26.798 -14.011  0.00  0.00    -0.227 OA
BRANCH  10  12
ATOM     12  O   UNL     1      39.818 -24.611 -13.896  0.00  0.00    -0.302 OA
ATOM     13  H   UNL     1      40.617 -24.278 -13.457  0.00  0.00    +0.222 HD
ENDBRANCH  10  12
BRANCH  10  14
ATOM     14  O   UNL     1      40.339 -25.616 -16.169  0.00  0.00    -0.302 OA
ATOM     15  H   UNL     1      39.851 -24.799 -16.353  0.00  0.00    +0.222 HD
ENDBRANCH  10  14
ENDBRANCH   9  10
ENDBRANCH   1   9
TORSDOF 8
ENDMDL
MODEL 2
REMARK VINA RESULT:      -5.9      1.955      2.879
REMARK  Name = 448670
REMARK  8 active torsions:
REMARK  status: ('A' for Active; 'I' for Inactive)
REMARK    1  A    between atoms: P_1  and  O_3
REMARK    2  A    between atoms: P_1  and  O_5
REMARK    3  A    between atoms: P_1  and  O_9
REMARK    4  A    between atoms: O_5  and  C_6
REMARK    5  A    between atoms: C_6  and  C_7
REMARK    6  A    between atoms: O_9  and  P_10
REMARK    7  A    between atoms: P_10  and  O_12
REMARK    8  A    between atoms: P_10  and  O_14
REMARK                            x       y       z     vdW  Elec       q    Type
REMARK                         _______ _______ _______ _____ _____    ______ ____
ROOT
ATOM      1  P   UNL     1      37.600 -25.093 -12.564  0.00  0.00    +0.484 P 
ATOM      2  O   UNL     1      37.622 -24.459 -11.203  0.00  0.00    -0.227 OA
ENDROOT
BRANCH   1   3
ATOM      3  O   UNL     1      36.821 -26.509 -12.629  0.00  0.00    -0.302 OA
ATOM      4  H   UNL     1      36.826 -26.920 -11.751  0.00  0.00    +0.222 HD
ENDBRANCH   1   3
BRANCH   1   5
ATOM      5  O   UNL     1      36.905 -24.196 -13.719  0.00  0.00    -0.273 OA
BRANCH   5   6
ATOM      6  C   UNL     1      35.584 -24.484 -14.140  0.00  0.00    +0.154 C 
BRANCH   6   7
ATOM      7  C   UNL     1      35.156 -23.446 -15.166  0.00  0.00    +0.033 C 
ATOM      8  C   UNL     1      36.346 -22.848 -15.895  0.00  0.00    +0.003 C 
ENDBRANCH   6   7
ENDBRANCH   5   6
ENDBRANCH   1   5
BRANCH   1   9
ATOM      9  O   UNL     1      39.064 -25.448 -13.153  0.00  0.00    -0.186 OA
BRANCH   9  10
ATOM     10  P   UNL     1      39.557 -25.740 -14.664  0.00  0.00    +0.481 P 
ATOM     11  O   UNL     1      40.855 -26.484 -14.766  0.00  0.00    -0.227 OA
BRANCH  10  12
ATOM     12  O   UNL     1      39.548 -24.273 -15.343  0.00  0.00    -0.302 OA
ATOM     13  H   UNL     1      40.410 -24.102 -15.754  0.00  0.00    +0.222 HD
ENDBRANCH  10  12
BRANCH  10  14
ATOM     14  O   UNL     1      38.284 -26.476 -15.337  0.00  0.00    -0.302 OA
ATOM     15  H   UNL     1      37.471 -26.169 -14.909  0.00  0.00    +0.222 HD
ENDBRANCH  10  14
ENDBRANCH   9  10
ENDBRANCH   1   9
TORSDOF 8
ENDMDL
MODEL 3
REMARK VINA RESULT:      -5.7      1.506      2.713
REMARK  Name = 448670
REMARK  8 active torsions:
REMARK  status: ('A' for Active; 'I' for Inactive)
REMARK    1  A    between atoms: P_1  and  O_3
REMARK    2  A    between atoms: P_1  and  O_5
REMARK    3  A    between atoms: P_1  and  O_9
REMARK    4  A    between atoms: O_5  and  C_6
REMARK    5  A    between atoms: C_6  and  C_7
REMARK    6  A    between atoms: O_9  and  P_10
REMARK    7  A    between atoms: P_10  and  O_12
REMARK    8  A    between atoms: P_10  and  O_14
REMARK                            x       y       z     vdW  Elec       q    Type
REMARK                         _______ _______ _______ _____ _____    ______ ____
ROOT
ATOM      1  P   UNL     1      37.230 -26.144 -14.342  0.00  0.00    +0.484 P 
ATOM      2  O   UNL     1      36.892 -25.816 -12.916  0.00  0.00    -0.227 OA
ENDROOT
BRANCH   1   3
ATOM      3  O   UNL     1      36.313 -27.305 -14.995  0.00  0.00    -0.302 OA
ATOM      4  H   UNL     1      36.525 -28.155 -14.579  0.00  0.00    +0.222 HD
ENDBRANCH   1   3
BRANCH   1   5
ATOM      5  O   UNL     1      37.104 -24.902 -15.372  0.00  0.00    -0.273 OA
BRANCH   5   6
ATOM      6  C   UNL     1      36.862 -23.596 -14.881  0.00  0.00    +0.154 C 
BRANCH   6   7
ATOM      7  C   UNL     1      35.719 -22.976 -15.672  0.00  0.00    +0.033 C 
ATOM      8  C   UNL     1      34.365 -23.418 -15.149  0.00  0.00    +0.003 C 
ENDBRANCH   6   7
ENDBRANCH   5   6
ENDBRANCH   1   5
BRANCH   1   9
ATOM      9  O   UNL     1      38.735 -26.696 -14.556  0.00  0.00    -0.186 OA
BRANCH   9  10
ATOM     10  P   UNL     1      40.154 -25.923 -14.592  0.00  0.00    +0.481 P 
ATOM     11  O   UNL     1      40.173 -24.616 -13.857  0.00  0.00    -0.227 OA
BRANCH  10  12
ATOM     12  O   UNL     1      40.481 -25.831 -16.172  0.00  0.00    -0.302 OA
ATOM     13  H   UNL     1      41.327 -25.373 -16.300  0.00  0.00    +0.222 HD
ENDBRANCH  10  12
BRANCH  10  14
ATOM     14  O   UNL     1      41.198 -27.034 -14.053  0.00  0.00    -0.302 OA
ATOM     15  H   UNL     1      41.702 -26.670 -13.310  0.00  0.00    +0.222 HD
ENDBRANCH  10  14
ENDBRANCH   9  10
ENDBRANCH   1   9
TORSDOF 8
ENDMDL
MODEL 4
REMARK VINA RESULT:      -5.7      3.691      4.740
REMARK  Name = 448670
REMARK  8 active torsions:
REMARK  status: ('A' for Active; 'I' for Inactive)
REMARK    1  A    between atoms: P_1  and  O_3
REMARK    2  A    between atoms: P_1  and  O_5
REMARK    3  A    between atoms: P_1  and  O_9
REMARK    4  A    between atoms: O_5  and  C_6
REMARK    5  A    between atoms: C_6  and  C_7
REMARK    6  A    between atoms: O_9  and  P_10
REMARK    7  A    between atoms: P_10  and  O_12
REMARK    8  A    between atoms: P_10  and  O_14
REMARK                            x       y       z     vdW  Elec       q    Type
REMARK                         _______ _______ _______ _____ _____    ______ ____
ROOT
ATOM      1  P   UNL     1      36.456 -23.428 -15.345  0.00  0.00    +0.484 P 
ATOM      2  O   UNL     1      37.891 -23.043 -15.129  0.00  0.00    -0.227 OA
ENDROOT
BRANCH   1   3
ATOM      3  O   UNL     1      35.443 -22.898 -14.200  0.00  0.00    -0.302 OA
ATOM      4  H   UNL     1      35.906 -22.868 -13.349  0.00  0.00    +0.222 HD
ENDBRANCH   1   3
BRANCH   1   5
ATOM      5  O   UNL     1      35.812 -22.896 -16.731  0.00  0.00    -0.273 OA
BRANCH   5   6
ATOM      6  C   UNL     1      36.528 -21.978 -17.538  0.00  0.00    +0.154 C 
BRANCH   6   7
ATOM      7  C   UNL     1      35.754 -21.747 -18.827  0.00  0.00    +0.033 C 
ATOM      8  C   UNL     1      36.523 -20.871 -19.799  0.00  0.00    +0.003 C 
ENDBRANCH   6   7
ENDBRANCH   5   6
ENDBRANCH   1   5
BRANCH   1   9
ATOM      9  O   UNL     1      36.193 -25.023 -15.362  0.00  0.00    -0.186 OA
BRANCH   9  10
ATOM     10  P   UNL     1      37.175 -26.264 -15.036  0.00  0.00    +0.481 P 
ATOM     11  O   UNL     1      37.096 -26.772 -13.626  0.00  0.00    -0.227 OA
BRANCH  10  12
ATOM     12  O   UNL     1      38.625 -25.713 -15.489  0.00  0.00    -0.302 OA
ATOM     13  H   UNL     1      38.921 -25.030 -14.866  0.00  0.00    +0.222 HD
ENDBRANCH  10  12
BRANCH  10  14
ATOM     14  O   UNL     1      36.806 -27.344 -16.181  0.00  0.00    -0.302 OA
ATOM     15  H   UNL     1      37.162 -28.211 -15.934  0.00  0.00    +0.222 HD
ENDBRANCH  10  14
ENDBRANCH   9  10
ENDBRANCH   1   9
TORSDOF 8
ENDMDL
MODEL 5
REMARK VINA RESULT:      -5.5      2.920      4.516
REMARK  Name = 448670
REMARK  8 active torsions:
REMARK  status: ('A' for Active; 'I' for Inactive)
REMARK    1  A    between atoms: P_1  and  O_3
REMARK    2  A    between atoms: P_1  and  O_5
REMARK    3  A    between atoms: P_1  and  O_9
REMARK    4  A    between atoms: O_5  and  C_6
REMARK    5  A    between atoms: C_6  and  C_7
REMARK    6  A    between atoms: O_9  and  P_10
REMARK    7  A    between atoms: P_10  and  O_12
REMARK    8  A    between atoms: P_10  and  O_14
REMARK                            x       y       z     vdW  Elec       q    Type
REMARK                         _______ _______ _______ _____ _____    ______ ____
ROOT
ATOM      1  P   UNL     1      37.446 -25.458 -13.143  0.00  0.00    +0.484 P 
ATOM      2  O   UNL     1      37.783 -26.832 -13.644  0.00  0.00    -0.227 OA
ENDROOT
BRANCH   1   3
ATOM      3  O   UNL     1      38.731 -24.561 -12.740  0.00  0.00    -0.302 OA
ATOM      4  H   UNL     1      38.951 -23.964 -13.472  0.00  0.00    +0.222 HD
ENDBRANCH   1   3
BRANCH   1   5
ATOM      5  O   UNL     1      36.623 -24.537 -14.189  0.00  0.00    -0.273 OA
BRANCH   5   6
ATOM      6  C   UNL     1      35.545 -25.089 -14.923  0.00  0.00    +0.154 C 
BRANCH   6   7
ATOM      7  C   UNL     1      34.939 -24.004 -15.800  0.00  0.00    +0.033 C 
ATOM      8  C   UNL     1      35.368 -22.617 -15.360  0.00  0.00    +0.003 C 
ENDBRANCH   6   7
ENDBRANCH   5   6
ENDBRANCH   1   5
BRANCH   1   9
ATOM      9  O   UNL     1      36.549 -25.445 -11.798  0.00  0.00    -0.186 OA
BRANCH   9  10
ATOM     10  P   UNL     1      35.915 -24.218 -10.957  0.00  0.00    +0.481 P 
ATOM     11  O   UNL     1      35.350 -24.601  -9.622  0.00  0.00    -0.227 OA
BRANCH  10  12
ATOM     12  O   UNL     1      34.858 -23.572 -11.994  0.00  0.00    -0.302 OA
ATOM     13  H   UNL     1      34.753 -22.626 -11.801  0.00  0.00    +0.222 HD
ENDBRANCH  10  12
BRANCH  10  14
ATOM     14  O   UNL     1      37.115 -23.135 -10.915  0.00  0.00    -0.302 OA
ATOM     15  H   UNL     1      36.754 -22.262 -10.697  0.00  0.00    +0.222 HD
ENDBRANCH  10  14
ENDBRANCH   9  10
ENDBRANCH   1   9
TORSDOF 8
ENDMDL
MODEL 6
REMARK VINA RESULT:      -5.5      2.670      4.115
REMARK  Name = 448670
REMARK  8 active torsions:
REMARK  status: ('A' for Active; 'I' for Inactive)
REMARK    1  A    between atoms: P_1  and  O_3
REMARK    2  A    between atoms: P_1  and  O_5
REMARK    3  A    between atoms: P_1  and  O_9
REMARK    4  A    between atoms: O_5  and  C_6
REMARK    5  A    between atoms: C_6  and  C_7
REMARK    6  A    between atoms: O_9  and  P_10
REMARK    7  A    between atoms: P_10  and  O_12
REMARK    8  A    between atoms: P_10  and  O_14
REMARK                            x       y       z     vdW  Elec       q    Type
REMARK                         _______ _______ _______ _____ _____    ______ ____
ROOT
ATOM      1  P   UNL     1      35.652 -24.455 -12.919  0.00  0.00    +0.484 P 
ATOM      2  O   UNL     1      36.260 -23.102 -12.685  0.00  0.00    -0.227 OA
ENDROOT
BRANCH   1   3
ATOM      3  O   UNL     1      34.833 -25.046 -11.656  0.00  0.00    -0.302 OA
ATOM      4  H   UNL     1      34.491 -25.926 -11.876  0.00  0.00    +0.222 HD
ENDBRANCH   1   3
BRANCH   1   5
ATOM      5  O   UNL     1      34.603 -24.523 -14.149  0.00  0.00    -0.273 OA
BRANCH   5   6
ATOM      6  C   UNL     1      34.159 -23.329 -14.770  0.00  0.00    +0.154 C 
BRANCH   6   7
ATOM      7  C   UNL     1      34.206 -23.512 -16.279  0.00  0.00    +0.033 C 
ATOM      8  C   UNL     1      32.854 -23.260 -16.921  0.00  0.00    +0.003 C 
ENDBRANCH   6   7
ENDBRANCH   5   6
ENDBRANCH   1   5
BRANCH   1   9
ATOM      9  O   UNL     1      36.729 -25.618 -13.239  0.00  0.00    -0.186 OA
BRANCH   9  10
ATOM     10  P   UNL     1      37.239 -26.234 -14.643  0.00  0.00    +0.481 P 
ATOM     11  O   UNL     1      38.484 -27.066 -14.546  0.00  0.00    -0.227 OA
BRANCH  10  12
ATOM     12  O   UNL     1      37.352 -24.933 -15.595  0.00  0.00    -0.302 OA
ATOM     13  H   UNL     1      37.300 -24.130 -15.053  0.00  0.00    +0.222 HD
ENDBRANCH  10  12
BRANCH  10  14
ATOM     14  O   UNL     1      35.935 -27.005 -15.209  0.00  0.00    -0.302 OA
ATOM     15  H   UNL     1      35.781 -26.747 -16.130  0.00  0.00    +0.222 HD
ENDBRANCH  10  14
ENDBRANCH   9  10
ENDBRANCH   1   9
TORSDOF 8
ENDMDL
MODEL 7
REMARK VINA RESULT:      -5.3      3.002      4.357
REMARK  Name = 448670
REMARK  8 active torsions:
REMARK  status: ('A' for Active; 'I' for Inactive)
REMARK    1  A    between atoms: P_1  and  O_3
REMARK    2  A    between atoms: P_1  and  O_5
REMARK    3  A    between atoms: P_1  and  O_9
REMARK    4  A    between atoms: O_5  and  C_6
REMARK    5  A    between atoms: C_6  and  C_7
REMARK    6  A    between atoms: O_9  and  P_10
REMARK    7  A    between atoms: P_10  and  O_12
REMARK    8  A    between atoms: P_10  and  O_14
REMARK                            x       y       z     vdW  Elec       q    Type
REMARK                         _______ _______ _______ _____ _____    ______ ____
ROOT
ATOM      1  P   UNL     1      37.467 -24.650 -14.555  0.00  0.00    +0.484 P 
ATOM      2  O   UNL     1      37.809 -25.980 -13.947  0.00  0.00    -0.227 OA
ENDROOT
BRANCH   1   3
ATOM      3  O   UNL     1      38.681 -23.955 -15.367  0.00  0.00    -0.302 OA
ATOM      4  H   UNL     1      39.144 -24.625 -15.893  0.00  0.00    +0.222 HD
ENDBRANCH   1   3
BRANCH   1   5
ATOM      5  O   UNL     1      36.241 -24.683 -15.612  0.00  0.00    -0.273 OA
BRANCH   5   6
ATOM      6  C   UNL     1      34.919 -24.427 -15.173  0.00  0.00    +0.154 C 
BRANCH   6   7
ATOM      7  C   UNL     1      34.448 -23.111 -15.771  0.00  0.00    +0.033 C 
ATOM      8  C   UNL     1      33.549 -23.326 -16.975  0.00  0.00    +0.003 C 
ENDBRANCH   6   7
ENDBRANCH   5   6
ENDBRANCH   1   5
BRANCH   1   9
ATOM      9  O   UNL     1      37.044 -23.519 -13.480  0.00  0.00    -0.186 OA
BRANCH   9  10
ATOM     10  P   UNL     1      36.729 -23.624 -11.898  0.00  0.00    +0.481 P 
ATOM     11  O   UNL     1      35.291 -23.888 -11.563  0.00  0.00    -0.227 OA
BRANCH  10  12
ATOM     12  O   UNL     1      37.331 -22.244 -11.312  0.00  0.00    -0.302 OA
ATOM     13  H   UNL     1      37.986 -22.444 -10.624  0.00  0.00    +0.222 HD
ENDBRANCH  10  12
BRANCH  10  14
ATOM     14  O   UNL     1      37.775 -24.743 -11.383  0.00  0.00    -0.302 OA
ATOM     15  H   UNL     1      38.486 -24.315 -10.883  0.00  0.00    +0.222 HD
ENDBRANCH  10  14
ENDBRANCH   9  10
ENDBRANCH   1   9
TORSDOF 8
ENDMDL
MODEL 8
REMARK VINA RESULT:      -5.3     11.537     12.697
REMARK  Name = 448670
REMARK  8 active torsions:
REMARK  status: ('A' for Active; 'I' for Inactive)
REMARK    1  A    between atoms: P_1  and  O_3
REMARK    2  A    between atoms: P_1  and  O_5
REMARK    3  A    between atoms: P_1  and  O_9
REMARK    4  A    between atoms: O_5  and  C_6
REMARK    5  A    between atoms: C_6  and  C_7
REMARK    6  A    between atoms: O_9  and  P_10
REMARK    7  A    between atoms: P_10  and  O_12
REMARK    8  A    between atoms: P_10  and  O_14
REMARK                            x       y       z     vdW  Elec       q    Type
REMARK                         _______ _______ _______ _____ _____    ______ ____
ROOT
ATOM      1  P   UNL     1      34.560 -15.983 -21.168  0.00  0.00    +0.484 P 
ATOM      2  O   UNL     1      34.907 -14.718 -20.437  0.00  0.00    -0.227 OA
ENDROOT
BRANCH   1   3
ATOM      3  O   UNL     1      33.000 -16.399 -21.079  0.00  0.00    -0.302 OA
ATOM      4  H   UNL     1      32.691 -16.299 -20.165  0.00  0.00    +0.222 HD
ENDBRANCH   1   3
BRANCH   1   5
ATOM      5  O   UNL     1      34.882 -15.959 -22.754  0.00  0.00    -0.273 OA
BRANCH   5   6
ATOM      6  C   UNL     1      34.202 -15.050 -23.602  0.00  0.00    +0.154 C 
BRANCH   6   7
ATOM      7  C   UNL     1      33.845 -15.759 -24.900  0.00  0.00    +0.033 C 
ATOM      8  C   UNL     1      34.672 -17.015 -25.103  0.00  0.00    +0.003 C 
ENDBRANCH   6   7
ENDBRANCH   5   6
ENDBRANCH   1   5
BRANCH   1   9
ATOM      9  O   UNL     1      35.326 -17.297 -20.619  0.00  0.00    -0.186 OA
BRANCH   9  10
ATOM     10  P   UNL     1      35.673 -18.701 -21.339  0.00  0.00    +0.481 P 
ATOM     11  O   UNL     1      36.143 -19.781 -20.411  0.00  0.00    -0.227 OA
BRANCH  10  12
ATOM     12  O   UNL     1      36.726 -18.273 -22.488  0.00  0.00    -0.302 OA
ATOM     13  H   UNL     1      37.580 -18.703 -22.320  0.00  0.00    +0.222 HD
ENDBRANCH  10  12
BRANCH  10  14
ATOM     14  O   UNL     1      34.327 -19.039 -22.168  0.00  0.00    -0.302 OA
ATOM     15  H   UNL     1      34.511 -18.990 -23.118  0.00  0.00    +0.222 HD
ENDBRANCH  10  14
ENDBRANCH   9  10
ENDBRANCH   1   9
TORSDOF 8
ENDMDL
MODEL 9
REMARK VINA RESULT:      -5.3     11.793     13.222
REMARK  Name = 448670
REMARK  8 active torsions:
REMARK  status: ('A' for Active; 'I' for Inactive)
REMARK    1  A    between atoms: P_1  and  O_3
REMARK    2  A    between atoms: P_1  and  O_5
REMARK    3  A    between atoms: P_1  and  O_9
REMARK    4  A    between atoms: O_5  and  C_6
REMARK    5  A    between atoms: C_6  and  C_7
REMARK    6  A    between atoms: O_9  and  P_10
REMARK    7  A    between atoms: P_10  and  O_12
REMARK    8  A    between atoms: P_10  and  O_14
REMARK                            x       y       z     vdW  Elec       q    Type
REMARK                         _______ _______ _______ _____ _____    ______ ____
ROOT
ATOM      1  P   UNL     1      34.697 -16.823 -21.789  0.00  0.00    +0.484 P 
ATOM      2  O   UNL     1      35.296 -16.644 -20.424  0.00  0.00    -0.227 OA
ENDROOT
BRANCH   1   3
ATOM      3  O   UNL     1      35.716 -16.526 -23.009  0.00  0.00    -0.302 OA
ATOM      4  H   UNL     1      35.214 -16.439 -23.835  0.00  0.00    +0.222 HD
ENDBRANCH   1   3
BRANCH   1   5
ATOM      5  O   UNL     1      34.127 -18.308 -22.090  0.00  0.00    -0.273 OA
BRANCH   5   6
ATOM      6  C   UNL     1      34.934 -19.442 -21.829  0.00  0.00    +0.154 C 
BRANCH   6   7
ATOM      7  C   UNL     1      34.405 -20.149 -20.591  0.00  0.00    +0.033 C 
ATOM      8  C   UNL     1      32.890 -20.100 -20.516  0.00  0.00    +0.003 C 
ENDBRANCH   6   7
ENDBRANCH   5   6
ENDBRANCH   1   5
BRANCH   1   9
ATOM      9  O   UNL     1      33.451 -15.840 -22.099  0.00  0.00    -0.186 OA
BRANCH   9  10
ATOM     10  P   UNL     1      33.343 -14.525 -23.032  0.00  0.00    +0.481 P 
ATOM     11  O   UNL     1      32.165 -13.644 -22.739  0.00  0.00    -0.227 OA
BRANCH  10  12
ATOM     12  O   UNL     1      33.394 -15.133 -24.529  0.00  0.00    -0.302 OA
ATOM     13  H   UNL     1      34.317 -15.187 -24.824  0.00  0.00    +0.222 HD
ENDBRANCH  10  12
BRANCH  10  14
ATOM     14  O   UNL     1      34.790 -13.825 -22.859  0.00  0.00    -0.302 OA
ATOM     15  H   UNL     1      34.674 -12.874 -22.716  0.00  0.00    +0.222 HD
ENDBRANCH  10  14
ENDBRANCH   9  10
ENDBRANCH   1   9
TORSDOF 8
ENDMDL
