MODEL 1
REMARK VINA RESULT:      -9.3      0.000      0.000
REMARK  Name = 9905633
REMARK  7 active torsions:
REMARK  status: ('A' for Active; 'I' for Inactive)
REMARK    1  A    between atoms: C_1  and  C_4
REMARK    2  A    between atoms: C_1  and  C_15
REMARK    3  A    between atoms: N_3  and  C_6
REMARK    4  A    between atoms: C_6  and  C_7
REMARK    5  A    between atoms: C_7  and  C_8
REMARK    6  A    between atoms: C_8  and  N_10
REMARK    7  A    between atoms: C_15  and  N_17
REMARK                            x       y       z     vdW  Elec       q    Type
REMARK                         _______ _______ _______ _____ _____    ______ ____
ROOT
ATOM      1  C   UNL     1      33.673 -23.020 -15.062  0.00  0.00    +0.102 C 
ENDROOT
BRANCH   1   4
ATOM      2  O   UNL     1      34.390 -23.936 -17.183  0.00  0.00    -0.275 OA
ATOM      3  N   UNL     1      35.730 -22.356 -16.130  0.00  0.00    -0.304 N 
ATOM      4  C   UNL     1      34.611 -23.174 -16.246  0.00  0.00    +0.224 C 
ATOM      5  H   UNL     1      35.809 -21.781 -15.334  0.00  0.00    +0.149 HD
BRANCH   3   6
ATOM      6  C   UNL     1      36.775 -22.307 -17.114  0.00  0.00    +0.091 C 
BRANCH   6   7
ATOM      7  C   UNL     1      36.507 -21.269 -18.202  0.00  0.00    +0.043 C 
BRANCH   7   8
ATOM      8  C   UNL     1      35.874 -21.849 -19.465  0.00  0.00    +0.095 C 
BRANCH   8  10
ATOM      9  O   UNL     1      32.888 -21.963 -19.230  0.00  0.00    -0.275 OA
ATOM     10  N   UNL     1      34.869 -20.977 -20.034  0.00  0.00    -0.279 N 
ATOM     11  C   UNL     1      35.228 -19.781 -20.760  0.00  0.00    +0.094 C 
ATOM     12  C   UNL     1      33.936 -19.402 -21.456  0.00  0.00    +0.031 C 
ATOM     13  C   UNL     1      32.850 -19.907 -20.514  0.00  0.00    +0.087 C 
ATOM     14  C   UNL     1      33.494 -21.100 -19.847  0.00  0.00    +0.226 C 
ENDBRANCH   8  10
ENDBRANCH   7   8
ENDBRANCH   6   7
ENDBRANCH   3   6
ENDBRANCH   1   4
BRANCH   1  15
ATOM     15  C   UNL     1      33.828 -24.150 -14.050  0.00  0.00    +0.085 C 
BRANCH  15  17
ATOM     16  O   UNL     1      39.460 -25.903 -13.374  0.00  0.00    -0.221 OA
ATOM     17  N   UNL     1      35.223 -24.392 -13.704  0.00  0.00    -0.235 NA
ATOM     18  N   UNL     1      35.829 -26.231 -15.174  0.00  0.00    -0.259 NA
ATOM     19  N   UNL     1      37.188 -24.154 -12.675  0.00  0.00    -0.242 NA
ATOM     20  N   UNL     1      38.108 -26.970 -14.929  0.00  0.00    -0.183 NA
ATOM     21  C   UNL     1      36.048 -25.313 -14.226  0.00  0.00    +0.171 C 
ATOM     22  C   UNL     1      37.250 -25.164 -13.593  0.00  0.00    +0.167 C 
ATOM     23  C   UNL     1      35.947 -23.707 -12.767  0.00  0.00    +0.203 C 
ATOM     24  C   UNL     1      38.375 -26.021 -13.931  0.00  0.00    +0.168 C 
ATOM     25  C   UNL     1      36.920 -27.025 -15.469  0.00  0.00    +0.211 C 
ATOM     26  H   UNL     1      34.960 -26.331 -15.626  0.00  0.00    +0.127 HD
ENDBRANCH  15  17
ENDBRANCH   1  15
TORSDOF 7
ENDMDL
MODEL 2
REMARK VINA RESULT:      -9.3      5.083      8.613
REMARK  Name = 9905633
REMARK  7 active torsions:
REMARK  status: ('A' for Active; 'I' for Inactive)
REMARK    1  A    between atoms: C_1  and  C_4
REMARK    2  A    between atoms: C_1  and  C_15
REMARK    3  A    between atoms: N_3  and  C_6
REMARK    4  A    between atoms: C_6  and  C_7
REMARK    5  A    between atoms: C_7  and  C_8
REMARK    6  A    between atoms: C_8  and  N_10
REMARK    7  A    between atoms: C_15  and  N_17
REMARK                            x       y       z     vdW  Elec       q    Type
REMARK                         _______ _______ _______ _____ _____    ______ ____
ROOT
ATOM      1  C   UNL     1      35.384 -17.354 -20.866  0.00  0.00    +0.102 C 
ENDROOT
BRANCH   1   4
ATOM      2  O   UNL     1      35.059 -15.057 -20.183  0.00  0.00    -0.275 OA
ATOM      3  N   UNL     1      33.347 -16.147 -21.317  0.00  0.00    -0.304 N 
ATOM      4  C   UNL     1      34.609 -16.056 -20.737  0.00  0.00    +0.224 C 
ATOM      5  H   UNL     1      33.085 -16.998 -21.736  0.00  0.00    +0.149 HD
BRANCH   3   6
ATOM      6  C   UNL     1      32.409 -15.058 -21.335  0.00  0.00    +0.091 C 
BRANCH   6   7
ATOM      7  C   UNL     1      32.578 -14.160 -22.558  0.00  0.00    +0.043 C 
BRANCH   7   8
ATOM      8  C   UNL     1      33.389 -14.797 -23.684  0.00  0.00    +0.095 C 
BRANCH   8  10
ATOM      9  O   UNL     1      32.925 -15.605 -26.533  0.00  0.00    -0.275 OA
ATOM     10  N   UNL     1      33.401 -13.991 -24.886  0.00  0.00    -0.279 N 
ATOM     11  C   UNL     1      33.547 -12.556 -24.833  0.00  0.00    +0.094 C 
ATOM     12  C   UNL     1      33.863 -12.189 -26.269  0.00  0.00    +0.031 C 
ATOM     13  C   UNL     1      33.141 -13.254 -27.086  0.00  0.00    +0.087 C 
ATOM     14  C   UNL     1      33.149 -14.458 -26.174  0.00  0.00    +0.226 C 
ENDBRANCH   8  10
ENDBRANCH   7   8
ENDBRANCH   6   7
ENDBRANCH   3   6
ENDBRANCH   1   4
BRANCH   1  15
ATOM     15  C   UNL     1      34.673 -18.368 -21.756  0.00  0.00    +0.085 C 
BRANCH  15  17
ATOM     16  O   UNL     1      33.327 -23.032 -18.338  0.00  0.00    -0.221 OA
ATOM     17  N   UNL     1      34.096 -19.465 -20.988  0.00  0.00    -0.235 NA
ATOM     18  N   UNL     1      36.045 -20.464 -19.934  0.00  0.00    -0.259 NA
ATOM     19  N   UNL     1      32.550 -20.836 -20.149  0.00  0.00    -0.242 NA
ATOM     20  N   UNL     1      35.539 -22.361 -18.538  0.00  0.00    -0.183 NA
ATOM     21  C   UNL     1      34.742 -20.348 -20.211  0.00  0.00    +0.171 C 
ATOM     22  C   UNL     1      33.791 -21.186 -19.699  0.00  0.00    +0.167 C 
ATOM     23  C   UNL     1      32.769 -19.790 -20.928  0.00  0.00    +0.203 C 
ATOM     24  C   UNL     1      34.165 -22.271 -18.806  0.00  0.00    +0.168 C 
ATOM     25  C   UNL     1      36.362 -21.505 -19.082  0.00  0.00    +0.211 C 
ATOM     26  H   UNL     1      36.724 -19.856 -20.306  0.00  0.00    +0.127 HD
ENDBRANCH  15  17
ENDBRANCH   1  15
TORSDOF 7
ENDMDL
MODEL 3
REMARK VINA RESULT:      -9.3      2.401      3.443
REMARK  Name = 9905633
REMARK  7 active torsions:
REMARK  status: ('A' for Active; 'I' for Inactive)
REMARK    1  A    between atoms: C_1  and  C_4
REMARK    2  A    between atoms: C_1  and  C_15
REMARK    3  A    between atoms: N_3  and  C_6
REMARK    4  A    between atoms: C_6  and  C_7
REMARK    5  A    between atoms: C_7  and  C_8
REMARK    6  A    between atoms: C_8  and  N_10
REMARK    7  A    between atoms: C_15  and  N_17
REMARK                            x       y       z     vdW  Elec       q    Type
REMARK                         _______ _______ _______ _____ _____    ______ ____
ROOT
ATOM      1  C   UNL     1      34.024 -23.038 -16.862  0.00  0.00    +0.102 C 
ENDROOT
BRANCH   1   4
ATOM      2  O   UNL     1      33.791 -23.497 -19.226  0.00  0.00    -0.275 OA
ATOM      3  N   UNL     1      35.380 -21.950 -18.532  0.00  0.00    -0.304 N 
ATOM      4  C   UNL     1      34.361 -22.876 -18.334  0.00  0.00    +0.224 C 
ATOM      5  H   UNL     1      35.770 -21.507 -17.743  0.00  0.00    +0.149 HD
BRANCH   3   6
ATOM      6  C   UNL     1      35.891 -21.607 -19.830  0.00  0.00    +0.091 C 
BRANCH   6   7
ATOM      7  C   UNL     1      35.233 -20.356 -20.407  0.00  0.00    +0.043 C 
BRANCH   7   8
ATOM      8  C   UNL     1      36.222 -19.252 -20.774  0.00  0.00    +0.095 C 
BRANCH   8  10
ATOM      9  O   UNL     1      35.101 -16.505 -20.348  0.00  0.00    -0.275 OA
ATOM     10  N   UNL     1      35.680 -18.317 -21.736  0.00  0.00    -0.279 N 
ATOM     11  C   UNL     1      35.719 -18.583 -23.155  0.00  0.00    +0.094 C 
ATOM     12  C   UNL     1      34.756 -17.560 -23.722  0.00  0.00    +0.031 C 
ATOM     13  C   UNL     1      34.860 -16.384 -22.758  0.00  0.00    +0.087 C 
ATOM     14  C   UNL     1      35.200 -17.043 -21.441  0.00  0.00    +0.226 C 
ENDBRANCH   8  10
ENDBRANCH   7   8
ENDBRANCH   6   7
ENDBRANCH   3   6
ENDBRANCH   1   4
BRANCH   1  15
ATOM     15  C   UNL     1      35.261 -22.971 -15.973  0.00  0.00    +0.085 C 
BRANCH  15  17
ATOM     16  O   UNL     1      35.271 -24.968 -10.381  0.00  0.00    -0.221 OA
ATOM     17  N   UNL     1      35.010 -23.506 -14.640  0.00  0.00    -0.235 NA
ATOM     18  N   UNL     1      37.193 -23.357 -13.582  0.00  0.00    -0.259 NA
ATOM     19  N   UNL     1      33.891 -24.390 -12.925  0.00  0.00    -0.242 NA
ATOM     20  N   UNL     1      37.237 -24.159 -11.311  0.00  0.00    -0.183 NA
ATOM     21  C   UNL     1      35.890 -23.653 -13.638  0.00  0.00    +0.171 C 
ATOM     22  C   UNL     1      35.200 -24.194 -12.589  0.00  0.00    +0.167 C 
ATOM     23  C   UNL     1      33.808 -23.964 -14.175  0.00  0.00    +0.203 C 
ATOM     24  C   UNL     1      35.872 -24.482 -11.332  0.00  0.00    +0.168 C 
ATOM     25  C   UNL     1      37.797 -23.643 -12.372  0.00  0.00    +0.211 C 
ATOM     26  H   UNL     1      37.682 -22.967 -14.341  0.00  0.00    +0.127 HD
ENDBRANCH  15  17
ENDBRANCH   1  15
TORSDOF 7
ENDMDL
MODEL 4
REMARK VINA RESULT:      -9.3      2.773      3.858
REMARK  Name = 9905633
REMARK  7 active torsions:
REMARK  status: ('A' for Active; 'I' for Inactive)
REMARK    1  A    between atoms: C_1  and  C_4
REMARK    2  A    between atoms: C_1  and  C_15
REMARK    3  A    between atoms: N_3  and  C_6
REMARK    4  A    between atoms: C_6  and  C_7
REMARK    5  A    between atoms: C_7  and  C_8
REMARK    6  A    between atoms: C_8  and  N_10
REMARK    7  A    between atoms: C_15  and  N_17
REMARK                            x       y       z     vdW  Elec       q    Type
REMARK                         _______ _______ _______ _____ _____    ______ ____
ROOT
ATOM      1  C   UNL     1      37.075 -21.915 -17.449  0.00  0.00    +0.102 C 
ENDROOT
BRANCH   1   4
ATOM      2  O   UNL     1      35.029 -22.317 -18.676  0.00  0.00    -0.275 OA
ATOM      3  N   UNL     1      36.489 -20.674 -19.431  0.00  0.00    -0.304 N 
ATOM      4  C   UNL     1      36.074 -21.682 -18.567  0.00  0.00    +0.224 C 
ATOM      5  H   UNL     1      37.348 -20.226 -19.250  0.00  0.00    +0.149 HD
BRANCH   3   6
ATOM      6  C   UNL     1      35.726 -20.253 -20.573  0.00  0.00    +0.091 C 
BRANCH   6   7
ATOM      7  C   UNL     1      36.182 -18.900 -21.116  0.00  0.00    +0.043 C 
BRANCH   7   8
ATOM      8  C   UNL     1      35.033 -17.959 -21.470  0.00  0.00    +0.095 C 
BRANCH   8  10
ATOM      9  O   UNL     1      35.114 -15.461 -23.126  0.00  0.00    -0.275 OA
ATOM     10  N   UNL     1      34.871 -17.792 -22.899  0.00  0.00    -0.279 N 
ATOM     11  C   UNL     1      34.745 -18.927 -23.783  0.00  0.00    +0.094 C 
ATOM     12  C   UNL     1      34.247 -18.304 -25.072  0.00  0.00    +0.031 C 
ATOM     13  C   UNL     1      34.847 -16.903 -25.057  0.00  0.00    +0.087 C 
ATOM     14  C   UNL     1      34.948 -16.582 -23.584  0.00  0.00    +0.226 C 
ENDBRANCH   8  10
ENDBRANCH   7   8
ENDBRANCH   6   7
ENDBRANCH   3   6
ENDBRANCH   1   4
BRANCH   1  15
ATOM     15  C   UNL     1      36.398 -22.096 -16.094  0.00  0.00    +0.085 C 
BRANCH  15  17
ATOM     16  O   UNL     1      37.322 -27.689 -14.330  0.00  0.00    -0.221 OA
ATOM     17  N   UNL     1      36.366 -23.493 -15.678  0.00  0.00    -0.235 NA
ATOM     18  N   UNL     1      38.714 -23.992 -15.292  0.00  0.00    -0.259 NA
ATOM     19  N   UNL     1      35.532 -25.497 -15.165  0.00  0.00    -0.242 NA
ATOM     20  N   UNL     1      39.129 -26.253 -14.575  0.00  0.00    -0.183 NA
ATOM     21  C   UNL     1      37.407 -24.271 -15.341  0.00  0.00    +0.171 C 
ATOM     22  C   UNL     1      36.891 -25.497 -15.027  0.00  0.00    +0.167 C 
ATOM     23  C   UNL     1      35.245 -24.268 -15.561  0.00  0.00    +0.203 C 
ATOM     24  C   UNL     1      37.766 -26.583 -14.615  0.00  0.00    +0.168 C 
ATOM     25  C   UNL     1      39.513 -25.047 -14.896  0.00  0.00    +0.211 C 
ATOM     26  H   UNL     1      39.076 -23.106 -15.519  0.00  0.00    +0.127 HD
ENDBRANCH  15  17
ENDBRANCH   1  15
TORSDOF 7
ENDMDL
MODEL 5
REMARK VINA RESULT:      -9.3      8.719     12.456
REMARK  Name = 9905633
REMARK  7 active torsions:
REMARK  status: ('A' for Active; 'I' for Inactive)
REMARK    1  A    between atoms: C_1  and  C_4
REMARK    2  A    between atoms: C_1  and  C_15
REMARK    3  A    between atoms: N_3  and  C_6
REMARK    4  A    between atoms: C_6  and  C_7
REMARK    5  A    between atoms: C_7  and  C_8
REMARK    6  A    between atoms: C_8  and  N_10
REMARK    7  A    between atoms: C_15  and  N_17
REMARK                            x       y       z     vdW  Elec       q    Type
REMARK                         _______ _______ _______ _____ _____    ______ ____
ROOT
ATOM      1  C   UNL     1      33.085 -14.559 -20.630  0.00  0.00    +0.102 C 
ENDROOT
BRANCH   1   4
ATOM      2  O   UNL     1      32.226 -13.722 -22.731  0.00  0.00    -0.275 OA
ATOM      3  N   UNL     1      31.813 -12.517 -20.787  0.00  0.00    -0.304 N 
ATOM      4  C   UNL     1      32.339 -13.577 -21.517  0.00  0.00    +0.224 C 
ATOM      5  H   UNL     1      31.962 -12.498 -19.813  0.00  0.00    +0.149 HD
BRANCH   3   6
ATOM      6  C   UNL     1      31.060 -11.448 -21.383  0.00  0.00    +0.091 C 
BRANCH   6   7
ATOM      7  C   UNL     1      31.730 -10.087 -21.199  0.00  0.00    +0.043 C 
BRANCH   7   8
ATOM      8  C   UNL     1      31.599  -9.167 -22.411  0.00  0.00    +0.095 C 
BRANCH   8  10
ATOM      9  O   UNL     1      33.524 -10.900 -23.920  0.00  0.00    -0.275 OA
ATOM     10  N   UNL     1      32.880  -8.833 -22.996  0.00  0.00    -0.279 N 
ATOM     11  C   UNL     1      33.373  -7.476 -23.012  0.00  0.00    +0.094 C 
ATOM     12  C   UNL     1      34.835  -7.646 -23.369  0.00  0.00    +0.031 C 
ATOM     13  C   UNL     1      34.858  -8.900 -24.234  0.00  0.00    +0.087 C 
ATOM     14  C   UNL     1      33.698  -9.710 -23.704  0.00  0.00    +0.226 C 
ENDBRANCH   8  10
ENDBRANCH   7   8
ENDBRANCH   6   7
ENDBRANCH   3   6
ENDBRANCH   1   4
BRANCH   1  15
ATOM     15  C   UNL     1      34.520 -14.783 -21.093  0.00  0.00    +0.085 C 
BRANCH  15  17
ATOM     16  O   UNL     1      34.933 -19.576 -24.573  0.00  0.00    -0.221 OA
ATOM     17  N   UNL     1      34.695 -16.083 -21.730  0.00  0.00    -0.235 NA
ATOM     18  N   UNL     1      34.132 -15.625 -24.050  0.00  0.00    -0.259 NA
ATOM     19  N   UNL     1      35.150 -18.257 -21.943  0.00  0.00    -0.242 NA
ATOM     20  N   UNL     1      34.288 -17.546 -25.494  0.00  0.00    -0.183 NA
ATOM     21  C   UNL     1      34.510 -16.393 -23.023  0.00  0.00    +0.171 C 
ATOM     22  C   UNL     1      34.791 -17.725 -23.149  0.00  0.00    +0.167 C 
ATOM     23  C   UNL     1      35.082 -17.236 -21.103  0.00  0.00    +0.203 C 
ATOM     24  C   UNL     1      34.686 -18.383 -24.441  0.00  0.00    +0.168 C 
ATOM     25  C   UNL     1      34.045 -16.284 -25.261  0.00  0.00    +0.211 C 
ATOM     26  H   UNL     1      33.933 -14.666 -23.951  0.00  0.00    +0.127 HD
ENDBRANCH  15  17
ENDBRANCH   1  15
TORSDOF 7
ENDMDL
MODEL 6
REMARK VINA RESULT:      -9.2      5.775      9.327
REMARK  Name = 9905633
REMARK  7 active torsions:
REMARK  status: ('A' for Active; 'I' for Inactive)
REMARK    1  A    between atoms: C_1  and  C_4
REMARK    2  A    between atoms: C_1  and  C_15
REMARK    3  A    between atoms: N_3  and  C_6
REMARK    4  A    between atoms: C_6  and  C_7
REMARK    5  A    between atoms: C_7  and  C_8
REMARK    6  A    between atoms: C_8  and  N_10
REMARK    7  A    between atoms: C_15  and  N_17
REMARK                            x       y       z     vdW  Elec       q    Type
REMARK                         _______ _______ _______ _____ _____    ______ ____
ROOT
ATOM      1  C   UNL     1      35.495 -18.726 -23.401  0.00  0.00    +0.102 C 
ENDROOT
BRANCH   1   4
ATOM      2  O   UNL     1      34.543 -17.826 -25.434  0.00  0.00    -0.275 OA
ATOM      3  N   UNL     1      34.511 -16.528 -23.506  0.00  0.00    -0.304 N 
ATOM      4  C   UNL     1      34.804 -17.670 -24.244  0.00  0.00    +0.224 C 
ATOM      5  H   UNL     1      34.765 -16.508 -22.554  0.00  0.00    +0.149 HD
BRANCH   3   6
ATOM      6  C   UNL     1      33.856 -15.377 -24.063  0.00  0.00    +0.091 C 
BRANCH   6   7
ATOM      7  C   UNL     1      34.125 -14.105 -23.261  0.00  0.00    +0.043 C 
BRANCH   7   8
ATOM      8  C   UNL     1      33.743 -12.821 -23.994  0.00  0.00    +0.095 C 
BRANCH   8  10
ATOM      9  O   UNL     1      33.584  -9.828 -23.960  0.00  0.00    -0.275 OA
ATOM     10  N   UNL     1      32.909 -11.950 -23.194  0.00  0.00    -0.279 N 
ATOM     11  C   UNL     1      31.890 -12.476 -22.316  0.00  0.00    +0.094 C 
ATOM     12  C   UNL     1      31.540 -11.285 -21.446  0.00  0.00    +0.031 C 
ATOM     13  C   UNL     1      31.787 -10.085 -22.352  0.00  0.00    +0.087 C 
ATOM     14  C   UNL     1      32.891 -10.560 -23.267  0.00  0.00    +0.226 C 
ENDBRANCH   8  10
ENDBRANCH   7   8
ENDBRANCH   6   7
ENDBRANCH   3   6
ENDBRANCH   1   4
BRANCH   1  15
ATOM     15  C   UNL     1      35.415 -18.420 -21.909  0.00  0.00    +0.085 C 
BRANCH  15  17
ATOM     16  O   UNL     1      32.898 -22.642 -18.578  0.00  0.00    -0.221 OA
ATOM     17  N   UNL     1      34.573 -19.374 -21.197  0.00  0.00    -0.235 NA
ATOM     18  N   UNL     1      36.180 -20.610 -19.855  0.00  0.00    -0.259 NA
ATOM     19  N   UNL     1      32.730 -20.445 -20.541  0.00  0.00    -0.242 NA
ATOM     20  N   UNL     1      35.196 -22.332 -18.489  0.00  0.00    -0.183 NA
ATOM     21  C   UNL     1      34.961 -20.307 -20.313  0.00  0.00    +0.171 C 
ATOM     22  C   UNL     1      33.828 -20.961 -19.914  0.00  0.00    +0.167 C 
ATOM     23  C   UNL     1      33.215 -19.486 -21.312  0.00  0.00    +0.203 C 
ATOM     24  C   UNL     1      33.902 -22.044 -18.947  0.00  0.00    +0.168 C 
ATOM     25  C   UNL     1      36.210 -21.643 -18.938  0.00  0.00    +0.211 C 
ATOM     26  H   UNL     1      36.990 -20.134 -20.147  0.00  0.00    +0.127 HD
ENDBRANCH  15  17
ENDBRANCH   1  15
TORSDOF 7
ENDMDL
MODEL 7
REMARK VINA RESULT:      -9.1      2.127      2.722
REMARK  Name = 9905633
REMARK  7 active torsions:
REMARK  status: ('A' for Active; 'I' for Inactive)
REMARK    1  A    between atoms: C_1  and  C_4
REMARK    2  A    between atoms: C_1  and  C_15
REMARK    3  A    between atoms: N_3  and  C_6
REMARK    4  A    between atoms: C_6  and  C_7
REMARK    5  A    between atoms: C_7  and  C_8
REMARK    6  A    between atoms: C_8  and  N_10
REMARK    7  A    between atoms: C_15  and  N_17
REMARK                            x       y       z     vdW  Elec       q    Type
REMARK                         _______ _______ _______ _____ _____    ______ ____
ROOT
ATOM      1  C   UNL     1      33.873 -22.758 -16.973  0.00  0.00    +0.102 C 
ENDROOT
BRANCH   1   4
ATOM      2  O   UNL     1      33.895 -23.663 -19.216  0.00  0.00    -0.275 OA
ATOM      3  N   UNL     1      35.282 -21.867 -18.715  0.00  0.00    -0.304 N 
ATOM      4  C   UNL     1      34.329 -22.836 -18.419  0.00  0.00    +0.224 C 
ATOM      5  H   UNL     1      35.560 -21.250 -17.999  0.00  0.00    +0.149 HD
BRANCH   3   6
ATOM      6  C   UNL     1      35.878 -21.720 -20.014  0.00  0.00    +0.091 C 
BRANCH   6   7
ATOM      7  C   UNL     1      35.990 -20.259 -20.446  0.00  0.00    +0.043 C 
BRANCH   7   8
ATOM      8  C   UNL     1      34.661 -19.638 -20.867  0.00  0.00    +0.095 C 
BRANCH   8  10
ATOM      9  O   UNL     1      35.153 -16.705 -20.488  0.00  0.00    -0.275 OA
ATOM     10  N   UNL     1      34.824 -18.593 -21.856  0.00  0.00    -0.279 N 
ATOM     11  C   UNL     1      34.878 -18.890 -23.268  0.00  0.00    +0.094 C 
ATOM     12  C   UNL     1      34.691 -17.532 -23.912  0.00  0.00    +0.031 C 
ATOM     13  C   UNL     1      35.298 -16.562 -22.904  0.00  0.00    +0.087 C 
ATOM     14  C   UNL     1      35.073 -17.251 -21.579  0.00  0.00    +0.226 C 
ENDBRANCH   8  10
ENDBRANCH   7   8
ENDBRANCH   6   7
ENDBRANCH   3   6
ENDBRANCH   1   4
BRANCH   1  15
ATOM     15  C   UNL     1      34.223 -24.017 -16.186  0.00  0.00    +0.085 C 
BRANCH  15  17
ATOM     16  O   UNL     1      39.675 -24.903 -14.009  0.00  0.00    -0.221 OA
ATOM     17  N   UNL     1      35.581 -23.974 -15.657  0.00  0.00    -0.235 NA
ATOM     18  N   UNL     1      36.110 -26.327 -15.348  0.00  0.00    -0.259 NA
ATOM     19  N   UNL     1      37.512 -23.122 -14.935  0.00  0.00    -0.242 NA
ATOM     20  N   UNL     1      38.315 -26.727 -14.466  0.00  0.00    -0.183 NA
ATOM     21  C   UNL     1      36.356 -25.013 -15.308  0.00  0.00    +0.171 C 
ATOM     22  C   UNL     1      37.538 -24.487 -14.867  0.00  0.00    +0.167 C 
ATOM     23  C   UNL     1      36.312 -22.843 -15.418  0.00  0.00    +0.203 C 
ATOM     24  C   UNL     1      38.609 -25.356 -14.408  0.00  0.00    +0.168 C 
ATOM     25  C   UNL     1      37.151 -27.121 -14.906  0.00  0.00    +0.211 C 
ATOM     26  H   UNL     1      35.257 -26.698 -15.668  0.00  0.00    +0.127 HD
ENDBRANCH  15  17
ENDBRANCH   1  15
TORSDOF 7
ENDMDL
MODEL 8
REMARK VINA RESULT:      -9.1      2.766      3.958
REMARK  Name = 9905633
REMARK  7 active torsions:
REMARK  status: ('A' for Active; 'I' for Inactive)
REMARK    1  A    between atoms: C_1  and  C_4
REMARK    2  A    between atoms: C_1  and  C_15
REMARK    3  A    between atoms: N_3  and  C_6
REMARK    4  A    between atoms: C_6  and  C_7
REMARK    5  A    between atoms: C_7  and  C_8
REMARK    6  A    between atoms: C_8  and  N_10
REMARK    7  A    between atoms: C_15  and  N_17
REMARK                            x       y       z     vdW  Elec       q    Type
REMARK                         _______ _______ _______ _____ _____    ______ ____
ROOT
ATOM      1  C   UNL     1      36.848 -21.681 -17.251  0.00  0.00    +0.102 C 
ENDROOT
BRANCH   1   4
ATOM      2  O   UNL     1      35.284 -22.510 -18.899  0.00  0.00    -0.275 OA
ATOM      3  N   UNL     1      36.395 -20.510 -19.309  0.00  0.00    -0.304 N 
ATOM      4  C   UNL     1      36.081 -21.640 -18.561  0.00  0.00    +0.224 C 
ATOM      5  H   UNL     1      37.051 -19.873 -18.943  0.00  0.00    +0.149 HD
BRANCH   3   6
ATOM      6  C   UNL     1      35.809 -20.227 -20.590  0.00  0.00    +0.091 C 
BRANCH   6   7
ATOM      7  C   UNL     1      36.385 -18.966 -21.232  0.00  0.00    +0.043 C 
BRANCH   7   8
ATOM      8  C   UNL     1      35.349 -17.872 -21.480  0.00  0.00    +0.095 C 
BRANCH   8  10
ATOM      9  O   UNL     1      35.104 -15.327 -23.045  0.00  0.00    -0.275 OA
ATOM     10  N   UNL     1      35.074 -17.676 -22.888  0.00  0.00    -0.279 N 
ATOM     11  C   UNL     1      34.983 -18.789 -23.803  0.00  0.00    +0.094 C 
ATOM     12  C   UNL     1      34.346 -18.172 -25.032  0.00  0.00    +0.031 C 
ATOM     13  C   UNL     1      34.826 -16.726 -25.006  0.00  0.00    +0.087 C 
ATOM     14  C   UNL     1      35.002 -16.443 -23.532  0.00  0.00    +0.226 C 
ENDBRANCH   8  10
ENDBRANCH   7   8
ENDBRANCH   6   7
ENDBRANCH   3   6
ENDBRANCH   1   4
BRANCH   1  15
ATOM     15  C   UNL     1      35.982 -22.153 -16.087  0.00  0.00    +0.085 C 
BRANCH  15  17
ATOM     16  O   UNL     1      37.995 -25.901 -11.945  0.00  0.00    -0.221 OA
ATOM     17  N   UNL     1      36.693 -23.080 -15.215  0.00  0.00    -0.235 NA
ATOM     18  N   UNL     1      35.075 -23.505 -13.451  0.00  0.00    -0.259 NA
ATOM     19  N   UNL     1      38.339 -24.376 -14.448  0.00  0.00    -0.242 NA
ATOM     20  N   UNL     1      35.856 -25.022 -11.751  0.00  0.00    -0.183 NA
ATOM     21  C   UNL     1      36.249 -23.637 -14.078  0.00  0.00    +0.171 C 
ATOM     22  C   UNL     1      37.260 -24.430 -13.611  0.00  0.00    +0.167 C 
ATOM     23  C   UNL     1      37.964 -23.549 -15.410  0.00  0.00    +0.203 C 
ATOM     24  C   UNL     1      37.100 -25.185 -12.379  0.00  0.00    +0.168 C 
ATOM     25  C   UNL     1      34.959 -24.237 -12.285  0.00  0.00    +0.211 C 
ATOM     26  H   UNL     1      34.352 -22.932 -13.794  0.00  0.00    +0.127 HD
ENDBRANCH  15  17
ENDBRANCH   1  15
TORSDOF 7
ENDMDL
MODEL 9
REMARK VINA RESULT:      -9.0      8.610     12.701
REMARK  Name = 9905633
REMARK  7 active torsions:
REMARK  status: ('A' for Active; 'I' for Inactive)
REMARK    1  A    between atoms: C_1  and  C_4
REMARK    2  A    between atoms: C_1  and  C_15
REMARK    3  A    between atoms: N_3  and  C_6
REMARK    4  A    between atoms: C_6  and  C_7
REMARK    5  A    between atoms: C_7  and  C_8
REMARK    6  A    between atoms: C_8  and  N_10
REMARK    7  A    between atoms: C_15  and  N_17
REMARK                            x       y       z     vdW  Elec       q    Type
REMARK                         _______ _______ _______ _____ _____    ______ ____
ROOT
ATOM      1  C   UNL     1      32.389 -13.821 -23.423  0.00  0.00    +0.102 C 
ENDROOT
BRANCH   1   4
ATOM      2  O   UNL     1      32.824 -13.895 -21.045  0.00  0.00    -0.275 OA
ATOM      3  N   UNL     1      31.654 -12.086 -21.919  0.00  0.00    -0.304 N 
ATOM      4  C   UNL     1      32.329 -13.300 -21.998  0.00  0.00    +0.224 C 
ATOM      5  H   UNL     1      31.296 -11.695 -22.748  0.00  0.00    +0.149 HD
BRANCH   3   6
ATOM      6  C   UNL     1      31.456 -11.375 -20.686  0.00  0.00    +0.091 C 
BRANCH   6   7
ATOM      7  C   UNL     1      31.734  -9.880 -20.821  0.00  0.00    +0.043 C 
BRANCH   7   8
ATOM      8  C   UNL     1      31.551  -9.345 -22.239  0.00  0.00    +0.095 C 
BRANCH   8  10
ATOM      9  O   UNL     1      33.452 -10.711 -24.112  0.00  0.00    -0.275 OA
ATOM     10  N   UNL     1      32.788  -8.861 -22.815  0.00  0.00    -0.279 N 
ATOM     11  C   UNL     1      33.234  -7.502 -22.619  0.00  0.00    +0.094 C 
ATOM     12  C   UNL     1      34.681  -7.547 -23.066  0.00  0.00    +0.031 C 
ATOM     13  C   UNL     1      34.700  -8.633 -24.135  0.00  0.00    +0.087 C 
ATOM     14  C   UNL     1      33.597  -9.569 -23.701  0.00  0.00    +0.226 C 
ENDBRANCH   8  10
ENDBRANCH   7   8
ENDBRANCH   6   7
ENDBRANCH   3   6
ENDBRANCH   1   4
BRANCH   1  15
ATOM     15  C   UNL     1      33.821 -14.043 -23.899  0.00  0.00    +0.085 C 
BRANCH  15  17
ATOM     16  O   UNL     1      35.156 -19.825 -24.115  0.00  0.00    -0.221 OA
ATOM     17  N   UNL     1      34.086 -15.444 -24.205  0.00  0.00    -0.235 NA
ATOM     18  N   UNL     1      34.779 -16.341 -22.053  0.00  0.00    -0.259 NA
ATOM     19  N   UNL     1      34.271 -17.319 -25.398  0.00  0.00    -0.242 NA
ATOM     20  N   UNL     1      35.329 -18.685 -22.101  0.00  0.00    -0.183 NA
ATOM     21  C   UNL     1      34.503 -16.401 -23.361  0.00  0.00    +0.171 C 
ATOM     22  C   UNL     1      34.615 -17.548 -24.096  0.00  0.00    +0.167 C 
ATOM     23  C   UNL     1      33.956 -16.035 -25.431  0.00  0.00    +0.203 C 
ATOM     24  C   UNL     1      35.050 -18.787 -23.472  0.00  0.00    +0.168 C 
ATOM     25  C   UNL     1      35.188 -17.536 -21.495  0.00  0.00    +0.211 C 
ATOM     26  H   UNL     1      34.695 -15.511 -21.531  0.00  0.00    +0.127 HD
ENDBRANCH  15  17
ENDBRANCH   1  15
TORSDOF 7
ENDMDL
