MODEL 1
REMARK VINA RESULT:      -8.1      0.000      0.000
REMARK  Name = 5282192
REMARK  6 active torsions:
REMARK  status: ('A' for Active; 'I' for Inactive)
REMARK    1  A    between atoms: N_3  and  C1*_13
REMARK    2  A    between atoms: C_7  and  C_23
REMARK    3  A    between atoms: C2*_11  and  O2*_15
REMARK    4  A    between atoms: C3*_12  and  O3*_17
REMARK    5  A    between atoms: C4*_14  and  C5*_19
REMARK    6  A    between atoms: C5*_19  and  O5*_20
REMARK                            x       y       z     vdW  Elec       q    Type
REMARK                         _______ _______ _______ _____ _____    ______ ____
ROOT
ATOM      1  O   UNL     1      32.706 -24.668 -13.263  0.00  0.00    -0.252 OA
ATOM      2  O   UNL     1      31.614 -22.745 -17.289  0.00  0.00    -0.270 OA
ATOM      3  N   UNL     1      34.451 -24.121 -14.713  0.00  0.00    -0.217 N 
ATOM      4  N   UNL     1      32.181 -23.707 -15.277  0.00  0.00    -0.236 N 
ATOM      5  C   UNL     1      34.798 -23.577 -15.948  0.00  0.00    +0.076 C 
ATOM      6  C   UNL     1      33.091 -24.201 -14.337  0.00  0.00    +0.315 C 
ATOM      7  C   UNL     1      33.927 -23.103 -16.848  0.00  0.00    +0.069 C 
ATOM      8  C   UNL     1      32.475 -23.157 -16.516  0.00  0.00    +0.254 C 
ATOM      9  H   UNL     1      31.228 -23.755 -15.033  0.00  0.00    +0.159 HD
ENDROOT
BRANCH   3  13
ATOM     10  O4* UNL     1      36.661 -23.817 -13.994  0.00  0.00    -0.333 OA
ATOM     11  C2* UNL     1      35.873 -26.047 -14.062  0.00  0.00    +0.187 C 
ATOM     12  C3* UNL     1      37.272 -26.071 -13.483  0.00  0.00    +0.171 C 
ATOM     13  C1* UNL     1      35.471 -24.598 -13.828  0.00  0.00    +0.229 C 
ATOM     14  C4* UNL     1      37.806 -24.669 -13.781  0.00  0.00    +0.175 C 
BRANCH  11  15
ATOM     15  O2* UNL     1      35.953 -26.343 -15.451  0.00  0.00    -0.378 OA
ATOM     16  H2* UNL     1      36.458 -27.160 -15.579  0.00  0.00    +0.211 HD
ENDBRANCH  11  15
BRANCH  12  17
ATOM     17  O3* UNL     1      37.194 -26.231 -12.069  0.00  0.00    -0.379 OA
ATOM     18  H3* UNL     1      36.698 -27.039 -11.862  0.00  0.00    +0.211 HD
ENDBRANCH  12  17
BRANCH  14  19
ATOM     19  C5* UNL     1      38.674 -24.605 -15.030  0.00  0.00    +0.169 C 
BRANCH  19  20
ATOM     20  O5* UNL     1      38.992 -25.926 -15.430  0.00  0.00    -0.379 OA
ATOM     21  H5* UNL     1      39.534 -26.349 -14.747  0.00  0.00    +0.211 HD
ENDBRANCH  19  20
ENDBRANCH  14  19
ENDBRANCH   3  13
BRANCH   7  23
ATOM     22 BR   UNL     1      36.141 -21.284 -19.897  0.00  0.00    -0.048 Br
ATOM     23  C   UNL     1      34.358 -22.553 -18.109  0.00  0.00    +0.013 C 
ATOM     24  C   UNL     1      35.559 -22.000 -18.286  0.00  0.00    +0.041 C 
ENDBRANCH   7  23
TORSDOF 6
ENDMDL
MODEL 2
REMARK VINA RESULT:      -8.0      2.517      3.155
REMARK  Name = 5282192
REMARK  6 active torsions:
REMARK  status: ('A' for Active; 'I' for Inactive)
REMARK    1  A    between atoms: N_3  and  C1*_13
REMARK    2  A    between atoms: C_7  and  C_23
REMARK    3  A    between atoms: C2*_11  and  O2*_15
REMARK    4  A    between atoms: C3*_12  and  O3*_17
REMARK    5  A    between atoms: C4*_14  and  C5*_19
REMARK    6  A    between atoms: C5*_19  and  O5*_20
REMARK                            x       y       z     vdW  Elec       q    Type
REMARK                         _______ _______ _______ _____ _____    ______ ____
ROOT
ATOM      1  O   UNL     1      38.227 -22.822 -15.930  0.00  0.00    -0.252 OA
ATOM      2  O   UNL     1      34.654 -21.741 -18.609  0.00  0.00    -0.270 OA
ATOM      3  N   UNL     1      36.129 -23.652 -15.329  0.00  0.00    -0.217 N 
ATOM      4  N   UNL     1      36.432 -22.294 -17.255  0.00  0.00    -0.236 N 
ATOM      5  C   UNL     1      34.775 -23.710 -15.652  0.00  0.00    +0.076 C 
ATOM      6  C   UNL     1      37.018 -22.919 -16.149  0.00  0.00    +0.315 C 
ATOM      7  C   UNL     1      34.214 -23.111 -16.711  0.00  0.00    +0.069 C 
ATOM      8  C   UNL     1      35.094 -22.321 -17.619  0.00  0.00    +0.254 C 
ATOM      9  H   UNL     1      37.034 -21.777 -17.838  0.00  0.00    +0.159 HD
ENDROOT
BRANCH   3  13
ATOM     10  O4* UNL     1      37.974 -23.941 -13.914  0.00  0.00    -0.333 OA
ATOM     11  C2* UNL     1      36.629 -25.849 -14.292  0.00  0.00    +0.187 C 
ATOM     12  C3* UNL     1      37.694 -26.230 -13.285  0.00  0.00    +0.171 C 
ATOM     13  C1* UNL     1      36.620 -24.333 -14.169  0.00  0.00    +0.229 C 
ATOM     14  C4* UNL     1      38.685 -25.066 -13.355  0.00  0.00    +0.175 C 
BRANCH  11  15
ATOM     15  O2* UNL     1      37.061 -26.260 -15.585  0.00  0.00    -0.378 OA
ATOM     16  H2* UNL     1      36.665 -27.117 -15.801  0.00  0.00    +0.211 HD
ENDBRANCH  11  15
BRANCH  12  17
ATOM     17  O3* UNL     1      37.121 -26.254 -11.981  0.00  0.00    -0.379 OA
ATOM     18  H3* UNL     1      36.283 -26.744 -12.004  0.00  0.00    +0.211 HD
ENDBRANCH  12  17
BRANCH  14  19
ATOM     19  C5* UNL     1      39.886 -25.348 -14.247  0.00  0.00    +0.169 C 
BRANCH  19  20
ATOM     20  O5* UNL     1      39.876 -26.719 -14.603  0.00  0.00    -0.379 OA
ATOM     21  H5* UNL     1      39.755 -27.259 -13.806  0.00  0.00    +0.211 HD
ENDBRANCH  19  20
ENDBRANCH  14  19
ENDBRANCH   3  13
BRANCH   7  23
ATOM     22 BR   UNL     1      30.051 -23.321 -16.348  0.00  0.00    -0.048 Br
ATOM     23  C   UNL     1      32.803 -23.214 -16.984  0.00  0.00    +0.013 C 
ATOM     24  C   UNL     1      31.875 -23.191 -16.026  0.00  0.00    +0.041 C 
ENDBRANCH   7  23
TORSDOF 6
ENDMDL
MODEL 3
REMARK VINA RESULT:      -7.7      2.124      5.279
REMARK  Name = 5282192
REMARK  6 active torsions:
REMARK  status: ('A' for Active; 'I' for Inactive)
REMARK    1  A    between atoms: N_3  and  C1*_13
REMARK    2  A    between atoms: C_7  and  C_23
REMARK    3  A    between atoms: C2*_11  and  O2*_15
REMARK    4  A    between atoms: C3*_12  and  O3*_17
REMARK    5  A    between atoms: C4*_14  and  C5*_19
REMARK    6  A    between atoms: C5*_19  and  O5*_20
REMARK                            x       y       z     vdW  Elec       q    Type
REMARK                         _______ _______ _______ _____ _____    ______ ____
ROOT
ATOM      1  O   UNL     1      34.250 -24.608 -12.332  0.00  0.00    -0.252 OA
ATOM      2  O   UNL     1      37.820 -22.749 -14.546  0.00  0.00    -0.270 OA
ATOM      3  N   UNL     1      33.918 -23.913 -14.535  0.00  0.00    -0.217 N 
ATOM      4  N   UNL     1      36.020 -23.678 -13.454  0.00  0.00    -0.236 N 
ATOM      5  C   UNL     1      34.497 -23.335 -15.663  0.00  0.00    +0.076 C 
ATOM      6  C   UNL     1      34.691 -24.104 -13.367  0.00  0.00    +0.315 C 
ATOM      7  C   UNL     1      35.771 -22.927 -15.746  0.00  0.00    +0.069 C 
ATOM      8  C   UNL     1      36.643 -23.099 -14.550  0.00  0.00    +0.254 C 
ATOM      9  H   UNL     1      36.575 -23.802 -12.649  0.00  0.00    +0.159 HD
ENDROOT
BRANCH   3  13
ATOM     10  O4* UNL     1      32.032 -24.205 -15.894  0.00  0.00    -0.333 OA
ATOM     11  C2* UNL     1      31.631 -23.466 -13.684  0.00  0.00    +0.187 C 
ATOM     12  C3* UNL     1      30.287 -23.679 -14.347  0.00  0.00    +0.171 C 
ATOM     13  C1* UNL     1      32.543 -24.312 -14.560  0.00  0.00    +0.229 C 
ATOM     14  C4* UNL     1      30.640 -23.830 -15.828  0.00  0.00    +0.175 C 
BRANCH  11  15
ATOM     15  O2* UNL     1      31.965 -22.085 -13.772  0.00  0.00    -0.378 OA
ATOM     16  H2* UNL     1      32.655 -21.962 -14.442  0.00  0.00    +0.211 HD
ENDBRANCH  11  15
BRANCH  12  17
ATOM     17  O3* UNL     1      29.728 -24.909 -13.892  0.00  0.00    -0.379 OA
ATOM     18  H3* UNL     1      30.272 -25.648 -14.207  0.00  0.00    +0.211 HD
ENDBRANCH  12  17
BRANCH  14  19
ATOM     19  C5* UNL     1      30.465 -22.545 -16.625  0.00  0.00    +0.169 C 
BRANCH  19  20
ATOM     20  O5* UNL     1      29.119 -22.458 -17.058  0.00  0.00    -0.379 OA
ATOM     21  H5* UNL     1      28.987 -23.041 -17.822  0.00  0.00    +0.211 HD
ENDBRANCH  19  20
ENDBRANCH  14  19
ENDBRANCH   3  13
BRANCH   7  23
ATOM     22 BR   UNL     1      36.208 -21.283 -19.569  0.00  0.00    -0.048 Br
ATOM     23  C   UNL     1      36.304 -22.337 -16.948  0.00  0.00    +0.013 C 
ATOM     24  C   UNL     1      35.550 -22.044 -18.009  0.00  0.00    +0.041 C 
ENDBRANCH   7  23
TORSDOF 6
ENDMDL
MODEL 4
REMARK VINA RESULT:      -7.4      2.708      3.651
REMARK  Name = 5282192
REMARK  6 active torsions:
REMARK  status: ('A' for Active; 'I' for Inactive)
REMARK    1  A    between atoms: N_3  and  C1*_13
REMARK    2  A    between atoms: C_7  and  C_23
REMARK    3  A    between atoms: C2*_11  and  O2*_15
REMARK    4  A    between atoms: C3*_12  and  O3*_17
REMARK    5  A    between atoms: C4*_14  and  C5*_19
REMARK    6  A    between atoms: C5*_19  and  O5*_20
REMARK                            x       y       z     vdW  Elec       q    Type
REMARK                         _______ _______ _______ _____ _____    ______ ____
ROOT
ATOM      1  O   UNL     1      37.908 -22.329 -15.938  0.00  0.00    -0.252 OA
ATOM      2  O   UNL     1      34.091 -22.755 -18.460  0.00  0.00    -0.270 OA
ATOM      3  N   UNL     1      35.938 -22.922 -14.835  0.00  0.00    -0.217 N 
ATOM      4  N   UNL     1      35.993 -22.547 -17.180  0.00  0.00    -0.236 N 
ATOM      5  C   UNL     1      34.578 -23.193 -14.967  0.00  0.00    +0.076 C 
ATOM      6  C   UNL     1      36.702 -22.581 -15.975  0.00  0.00    +0.315 C 
ATOM      7  C   UNL     1      33.899 -23.161 -16.121  0.00  0.00    +0.069 C 
ATOM      8  C   UNL     1      34.643 -22.808 -17.363  0.00  0.00    +0.254 C 
ATOM      9  H   UNL     1      36.507 -22.311 -17.986  0.00  0.00    +0.159 HD
ENDROOT
BRANCH   3  13
ATOM     10  O4* UNL     1      37.749 -23.785 -13.623  0.00  0.00    -0.333 OA
ATOM     11  C2* UNL     1      35.694 -23.614 -12.465  0.00  0.00    +0.187 C 
ATOM     12  C3* UNL     1      36.738 -24.098 -11.480  0.00  0.00    +0.171 C 
ATOM     13  C1* UNL     1      36.561 -22.988 -13.546  0.00  0.00    +0.229 C 
ATOM     14  C4* UNL     1      37.919 -24.484 -12.372  0.00  0.00    +0.175 C 
BRANCH  11  15
ATOM     15  O2* UNL     1      34.984 -24.743 -12.962  0.00  0.00    -0.378 OA
ATOM     16  H2* UNL     1      34.371 -24.460 -13.657  0.00  0.00    +0.211 HD
ENDBRANCH  11  15
BRANCH  12  17
ATOM     17  O3* UNL     1      37.139 -23.011 -10.650  0.00  0.00    -0.379 OA
ATOM     18  H3* UNL     1      37.761 -22.445 -11.135  0.00  0.00    +0.211 HD
ENDBRANCH  12  17
BRANCH  14  19
ATOM     19  C5* UNL     1      37.985 -25.974 -12.677  0.00  0.00    +0.169 C 
BRANCH  19  20
ATOM     20  O5* UNL     1      36.952 -26.630 -11.962  0.00  0.00    -0.379 OA
ATOM     21  H5* UNL     1      37.005 -27.585 -12.120  0.00  0.00    +0.211 HD
ENDBRANCH  19  20
ENDBRANCH  14  19
ENDBRANCH   3  13
BRANCH   7  23
ATOM     22 BR   UNL     1      29.811 -23.457 -15.282  0.00  0.00    -0.048 Br
ATOM     23  C   UNL     1      32.489 -23.454 -16.183  0.00  0.00    +0.013 C 
ATOM     24  C   UNL     1      31.630 -23.094 -15.228  0.00  0.00    +0.041 C 
ENDBRANCH   7  23
TORSDOF 6
ENDMDL
MODEL 5
REMARK VINA RESULT:      -7.4      2.616      5.251
REMARK  Name = 5282192
REMARK  6 active torsions:
REMARK  status: ('A' for Active; 'I' for Inactive)
REMARK    1  A    between atoms: N_3  and  C1*_13
REMARK    2  A    between atoms: C_7  and  C_23
REMARK    3  A    between atoms: C2*_11  and  O2*_15
REMARK    4  A    between atoms: C3*_12  and  O3*_17
REMARK    5  A    between atoms: C4*_14  and  C5*_19
REMARK    6  A    between atoms: C5*_19  and  O5*_20
REMARK                            x       y       z     vdW  Elec       q    Type
REMARK                         _______ _______ _______ _____ _____    ______ ____
ROOT
ATOM      1  O   UNL     1      34.972 -24.084 -14.266  0.00  0.00    -0.252 OA
ATOM      2  O   UNL     1      36.327 -22.082 -18.173  0.00  0.00    -0.270 OA
ATOM      3  N   UNL     1      33.345 -23.640 -15.880  0.00  0.00    -0.217 N 
ATOM      4  N   UNL     1      35.629 -23.086 -16.223  0.00  0.00    -0.236 N 
ATOM      5  C   UNL     1      33.086 -23.115 -17.144  0.00  0.00    +0.076 C 
ATOM      6  C   UNL     1      34.665 -23.638 -15.373  0.00  0.00    +0.315 C 
ATOM      7  C   UNL     1      34.009 -22.587 -17.958  0.00  0.00    +0.069 C 
ATOM      8  C   UNL     1      35.423 -22.553 -17.487  0.00  0.00    +0.254 C 
ATOM      9  H   UNL     1      36.555 -23.075 -15.888  0.00  0.00    +0.159 HD
ENDROOT
BRANCH   3  13
ATOM     10  O4* UNL     1      31.089 -24.276 -15.893  0.00  0.00    -0.333 OA
ATOM     11  C2* UNL     1      31.908 -23.343 -13.880  0.00  0.00    +0.187 C 
ATOM     12  C3* UNL     1      30.474 -23.767 -13.640  0.00  0.00    +0.171 C 
ATOM     13  C1* UNL     1      32.275 -24.181 -15.094  0.00  0.00    +0.229 C 
ATOM     14  C4* UNL     1      29.943 -24.044 -15.048  0.00  0.00    +0.175 C 
BRANCH  11  15
ATOM     15  O2* UNL     1      31.922 -21.953 -14.187  0.00  0.00    -0.378 OA
ATOM     16  H2* UNL     1      32.797 -21.587 -13.986  0.00  0.00    +0.211 HD
ENDBRANCH  11  15
BRANCH  12  17
ATOM     17  O3* UNL     1      30.462 -24.990 -12.908  0.00  0.00    -0.379 OA
ATOM     18  H3* UNL     1      29.549 -25.309 -12.824  0.00  0.00    +0.211 HD
ENDBRANCH  12  17
BRANCH  14  19
ATOM     19  C5* UNL     1      29.158 -22.880 -15.637  0.00  0.00    +0.169 C 
BRANCH  19  20
ATOM     20  O5* UNL     1      29.835 -22.414 -16.792  0.00  0.00    -0.379 OA
ATOM     21  H5* UNL     1      30.322 -23.147 -17.199  0.00  0.00    +0.211 HD
ENDBRANCH  19  20
ENDBRANCH  14  19
ENDBRANCH   3  13
BRANCH   7  23
ATOM     22 BR   UNL     1      32.852 -20.090 -21.109  0.00  0.00    -0.048 Br
ATOM     23  C   UNL     1      33.669 -22.061 -19.255  0.00  0.00    +0.013 C 
ATOM     24  C   UNL     1      33.296 -20.795 -19.450  0.00  0.00    +0.041 C 
ENDBRANCH   7  23
TORSDOF 6
ENDMDL
MODEL 6
REMARK VINA RESULT:      -7.4      1.548      2.315
REMARK  Name = 5282192
REMARK  6 active torsions:
REMARK  status: ('A' for Active; 'I' for Inactive)
REMARK    1  A    between atoms: N_3  and  C1*_13
REMARK    2  A    between atoms: C_7  and  C_23
REMARK    3  A    between atoms: C2*_11  and  O2*_15
REMARK    4  A    between atoms: C3*_12  and  O3*_17
REMARK    5  A    between atoms: C4*_14  and  C5*_19
REMARK    6  A    between atoms: C5*_19  and  O5*_20
REMARK                            x       y       z     vdW  Elec       q    Type
REMARK                         _______ _______ _______ _____ _____    ______ ____
ROOT
ATOM      1  O   UNL     1      34.627 -24.620 -12.098  0.00  0.00    -0.252 OA
ATOM      2  O   UNL     1      31.635 -22.540 -14.896  0.00  0.00    -0.270 OA
ATOM      3  N   UNL     1      35.132 -24.560 -14.376  0.00  0.00    -0.217 N 
ATOM      4  N   UNL     1      33.146 -23.586 -13.510  0.00  0.00    -0.236 N 
ATOM      5  C   UNL     1      34.720 -24.141 -15.639  0.00  0.00    +0.076 C 
ATOM      6  C   UNL     1      34.329 -24.283 -13.245  0.00  0.00    +0.315 C 
ATOM      7  C   UNL     1      33.587 -23.473 -15.892  0.00  0.00    +0.069 C 
ATOM      8  C   UNL     1      32.692 -23.148 -14.745  0.00  0.00    +0.254 C 
ATOM      9  H   UNL     1      32.573 -23.385 -12.735  0.00  0.00    +0.159 HD
ENDROOT
BRANCH   3  13
ATOM     10  O4* UNL     1      36.714 -25.344 -12.835  0.00  0.00    -0.333 OA
ATOM     11  C2* UNL     1      37.551 -24.622 -14.926  0.00  0.00    +0.187 C 
ATOM     12  C3* UNL     1      38.716 -25.172 -14.130  0.00  0.00    +0.171 C 
ATOM     13  C1* UNL     1      36.367 -25.270 -14.223  0.00  0.00    +0.229 C 
ATOM     14  C4* UNL     1      38.151 -25.302 -12.714  0.00  0.00    +0.175 C 
BRANCH  11  15
ATOM     15  O2* UNL     1      37.529 -23.207 -14.776  0.00  0.00    -0.378 OA
ATOM     16  H2* UNL     1      36.630 -22.918 -14.559  0.00  0.00    +0.211 HD
ENDBRANCH  11  15
BRANCH  12  17
ATOM     17  O3* UNL     1      39.036 -26.477 -14.607  0.00  0.00    -0.379 OA
ATOM     18  H3* UNL     1      38.218 -26.948 -14.833  0.00  0.00    +0.211 HD
ENDBRANCH  12  17
BRANCH  14  19
ATOM     19  C5* UNL     1      38.509 -24.129 -11.811  0.00  0.00    +0.169 C 
BRANCH  19  20
ATOM     20  O5* UNL     1      37.376 -23.286 -11.692  0.00  0.00    -0.379 OA
ATOM     21  H5* UNL     1      36.742 -23.681 -11.074  0.00  0.00    +0.211 HD
ENDBRANCH  19  20
ENDBRANCH  14  19
ENDBRANCH   3  13
BRANCH   7  23
ATOM     22 BR   UNL     1      33.621 -21.906 -19.771  0.00  0.00    -0.048 Br
ATOM     23  C   UNL     1      33.223 -23.071 -17.227  0.00  0.00    +0.013 C 
ATOM     24  C   UNL     1      34.062 -22.436 -18.048  0.00  0.00    +0.041 C 
ENDBRANCH   7  23
TORSDOF 6
ENDMDL
MODEL 7
REMARK VINA RESULT:      -7.3      8.685     11.285
REMARK  Name = 5282192
REMARK  6 active torsions:
REMARK  status: ('A' for Active; 'I' for Inactive)
REMARK    1  A    between atoms: N_3  and  C1*_13
REMARK    2  A    between atoms: C_7  and  C_23
REMARK    3  A    between atoms: C2*_11  and  O2*_15
REMARK    4  A    between atoms: C3*_12  and  O3*_17
REMARK    5  A    between atoms: C4*_14  and  C5*_19
REMARK    6  A    between atoms: C5*_19  and  O5*_20
REMARK                            x       y       z     vdW  Elec       q    Type
REMARK                         _______ _______ _______ _____ _____    ______ ____
ROOT
ATOM      1  O   UNL     1      34.770 -17.908 -25.720  0.00  0.00    -0.252 OA
ATOM      2  O   UNL     1      32.611 -13.857 -25.910  0.00  0.00    -0.270 OA
ATOM      3  N   UNL     1      34.497 -16.728 -23.724  0.00  0.00    -0.217 N 
ATOM      4  N   UNL     1      33.694 -15.885 -25.795  0.00  0.00    -0.236 N 
ATOM      5  C   UNL     1      33.996 -15.575 -23.124  0.00  0.00    +0.076 C 
ATOM      6  C   UNL     1      34.354 -16.916 -25.118  0.00  0.00    +0.315 C 
ATOM      7  C   UNL     1      33.364 -14.588 -23.772  0.00  0.00    +0.069 C 
ATOM      8  C   UNL     1      33.177 -14.721 -25.245  0.00  0.00    +0.254 C 
ATOM      9  H   UNL     1      33.585 -15.996 -26.767  0.00  0.00    +0.159 HD
ENDROOT
BRANCH   3  13
ATOM     10  O4* UNL     1      34.369 -18.917 -22.897  0.00  0.00    -0.333 OA
ATOM     11  C2* UNL     1      35.381 -17.315 -21.481  0.00  0.00    +0.187 C 
ATOM     12  C3* UNL     1      35.489 -18.663 -20.801  0.00  0.00    +0.171 C 
ATOM     13  C1* UNL     1      35.158 -17.721 -22.930  0.00  0.00    +0.229 C 
ATOM     14  C4* UNL     1      34.542 -19.550 -21.612  0.00  0.00    +0.175 C 
BRANCH  11  15
ATOM     15  O2* UNL     1      34.248 -16.633 -20.956  0.00  0.00    -0.378 OA
ATOM     16  H2* UNL     1      34.386 -16.456 -20.013  0.00  0.00    +0.211 HD
ENDBRANCH  11  15
BRANCH  12  17
ATOM     17  O3* UNL     1      36.815 -19.163 -20.955  0.00  0.00    -0.379 OA
ATOM     18  H3* UNL     1      36.940 -19.472 -21.867  0.00  0.00    +0.211 HD
ENDBRANCH  12  17
BRANCH  14  19
ATOM     19  C5* UNL     1      33.167 -19.704 -20.979  0.00  0.00    +0.169 C 
BRANCH  19  20
ATOM     20  O5* UNL     1      33.265 -20.609 -19.893  0.00  0.00    -0.379 OA
ATOM     21  H5* UNL     1      32.502 -20.493 -19.305  0.00  0.00    +0.211 HD
ENDBRANCH  19  20
ENDBRANCH  14  19
ENDBRANCH   3  13
BRANCH   7  23
ATOM     22 BR   UNL     1      31.641 -11.992 -20.979  0.00  0.00    -0.048 Br
ATOM     23  C   UNL     1      32.870 -13.421 -23.085  0.00  0.00    +0.013 C 
ATOM     24  C   UNL     1      32.286 -13.477 -21.887  0.00  0.00    +0.041 C 
ENDBRANCH   7  23
TORSDOF 6
ENDMDL
MODEL 8
REMARK VINA RESULT:      -7.2      1.583      1.934
REMARK  Name = 5282192
REMARK  6 active torsions:
REMARK  status: ('A' for Active; 'I' for Inactive)
REMARK    1  A    between atoms: N_3  and  C1*_13
REMARK    2  A    between atoms: C_7  and  C_23
REMARK    3  A    between atoms: C2*_11  and  O2*_15
REMARK    4  A    between atoms: C3*_12  and  O3*_17
REMARK    5  A    between atoms: C4*_14  and  C5*_19
REMARK    6  A    between atoms: C5*_19  and  O5*_20
REMARK                            x       y       z     vdW  Elec       q    Type
REMARK                         _______ _______ _______ _____ _____    ______ ____
ROOT
ATOM      1  O   UNL     1      32.086 -23.825 -15.709  0.00  0.00    -0.252 OA
ATOM      2  O   UNL     1      32.987 -22.036 -19.844  0.00  0.00    -0.270 OA
ATOM      3  N   UNL     1      34.283 -23.175 -16.156  0.00  0.00    -0.217 N 
ATOM      4  N   UNL     1      32.555 -22.930 -17.767  0.00  0.00    -0.236 N 
ATOM      5  C   UNL     1      35.157 -22.624 -17.091  0.00  0.00    +0.076 C 
ATOM      6  C   UNL     1      32.918 -23.346 -16.483  0.00  0.00    +0.315 C 
ATOM      7  C   UNL     1      34.809 -22.225 -18.321  0.00  0.00    +0.069 C 
ATOM      8  C   UNL     1      33.384 -22.376 -18.732  0.00  0.00    +0.254 C 
ATOM      9  H   UNL     1      31.609 -23.041 -18.014  0.00  0.00    +0.159 HD
ENDROOT
BRANCH   3  13
ATOM     10  O4* UNL     1      36.042 -22.961 -14.622  0.00  0.00    -0.333 OA
ATOM     11  C2* UNL     1      34.970 -25.067 -14.705  0.00  0.00    +0.187 C 
ATOM     12  C3* UNL     1      35.997 -25.118 -13.594  0.00  0.00    +0.171 C 
ATOM     13  C1* UNL     1      34.768 -23.568 -14.866  0.00  0.00    +0.229 C 
ATOM     14  C4* UNL     1      36.842 -23.864 -13.830  0.00  0.00    +0.175 C 
BRANCH  11  15
ATOM     15  O2* UNL     1      35.541 -25.640 -15.875  0.00  0.00    -0.378 OA
ATOM     16  H2* UNL     1      36.479 -25.405 -15.926  0.00  0.00    +0.211 HD
ENDBRANCH  11  15
BRANCH  12  17
ATOM     17  O3* UNL     1      35.338 -24.984 -12.337  0.00  0.00    -0.379 OA
ATOM     18  H3* UNL     1      34.995 -24.080 -12.246  0.00  0.00    +0.211 HD
ENDBRANCH  12  17
BRANCH  14  19
ATOM     19  C5* UNL     1      38.130 -24.138 -14.594  0.00  0.00    +0.169 C 
BRANCH  19  20
ATOM     20  O5* UNL     1      38.324 -25.540 -14.668  0.00  0.00    -0.379 OA
ATOM     21  H5* UNL     1      38.866 -25.750 -15.444  0.00  0.00    +0.211 HD
ENDBRANCH  19  20
ENDBRANCH  14  19
ENDBRANCH   3  13
BRANCH   7  23
ATOM     22 BR   UNL     1      36.855 -19.695 -20.952  0.00  0.00    -0.048 Br
ATOM     23  C   UNL     1      35.768 -21.662 -19.238  0.00  0.00    +0.013 C 
ATOM     24  C   UNL     1      35.637 -20.445 -19.769  0.00  0.00    +0.041 C 
ENDBRANCH   7  23
TORSDOF 6
ENDMDL
MODEL 9
REMARK VINA RESULT:      -7.0      9.533     12.672
REMARK  Name = 5282192
REMARK  6 active torsions:
REMARK  status: ('A' for Active; 'I' for Inactive)
REMARK    1  A    between atoms: N_3  and  C1*_13
REMARK    2  A    between atoms: C_7  and  C_23
REMARK    3  A    between atoms: C2*_11  and  O2*_15
REMARK    4  A    between atoms: C3*_12  and  O3*_17
REMARK    5  A    between atoms: C4*_14  and  C5*_19
REMARK    6  A    between atoms: C5*_19  and  O5*_20
REMARK                            x       y       z     vdW  Elec       q    Type
REMARK                         _______ _______ _______ _____ _____    ______ ____
ROOT
ATOM      1  O   UNL     1      34.345 -15.753 -26.263  0.00  0.00    -0.252 OA
ATOM      2  O   UNL     1      34.684 -20.073 -24.735  0.00  0.00    -0.270 OA
ATOM      3  N   UNL     1      34.614 -16.075 -23.967  0.00  0.00    -0.217 N 
ATOM      4  N   UNL     1      34.516 -17.902 -25.481  0.00  0.00    -0.236 N 
ATOM      5  C   UNL     1      34.765 -17.006 -22.941  0.00  0.00    +0.076 C 
ATOM      6  C   UNL     1      34.482 -16.515 -25.304  0.00  0.00    +0.315 C 
ATOM      7  C   UNL     1      34.799 -18.334 -23.112  0.00  0.00    +0.069 C 
ATOM      8  C   UNL     1      34.665 -18.868 -24.497  0.00  0.00    +0.254 C 
ATOM      9  H   UNL     1      34.425 -18.229 -26.406  0.00  0.00    +0.159 HD
ENDROOT
BRANCH   3  13
ATOM     10  O4* UNL     1      34.318 -14.482 -22.273  0.00  0.00    -0.333 OA
ATOM     11  C2* UNL     1      33.530 -13.890 -24.423  0.00  0.00    +0.187 C 
ATOM     12  C3* UNL     1      33.329 -12.695 -23.515  0.00  0.00    +0.171 C 
ATOM     13  C1* UNL     1      34.591 -14.674 -23.667  0.00  0.00    +0.229 C 
ATOM     14  C4* UNL     1      33.552 -13.269 -22.115  0.00  0.00    +0.175 C 
BRANCH  11  15
ATOM     15  O2* UNL     1      32.307 -14.614 -24.496  0.00  0.00    -0.378 OA
ATOM     16  H2* UNL     1      32.492 -15.543 -24.701  0.00  0.00    +0.211 HD
ENDBRANCH  11  15
BRANCH  12  17
ATOM     17  O3* UNL     1      34.348 -11.732 -23.773  0.00  0.00    -0.379 OA
ATOM     18  H3* UNL     1      34.645 -11.343 -22.935  0.00  0.00    +0.211 HD
ENDBRANCH  12  17
BRANCH  14  19
ATOM     19  C5* UNL     1      32.260 -13.624 -21.394  0.00  0.00    +0.169 C 
BRANCH  19  20
ATOM     20  O5* UNL     1      32.064 -15.025 -21.476  0.00  0.00    -0.379 OA
ATOM     21  H5* UNL     1      32.910 -15.479 -21.337  0.00  0.00    +0.211 HD
ENDBRANCH  19  20
ENDBRANCH  14  19
ENDBRANCH   3  13
BRANCH   7  23
ATOM     22 BR   UNL     1      34.104 -20.896 -19.878  0.00  0.00    -0.048 Br
ATOM     23  C   UNL     1      34.959 -19.239 -22.003  0.00  0.00    +0.013 C 
ATOM     24  C   UNL     1      33.928 -19.729 -21.311  0.00  0.00    +0.041 C 
ENDBRANCH   7  23
TORSDOF 6
ENDMDL
