MODEL 1
REMARK VINA RESULT:      -9.3      0.000      0.000
REMARK  Name = 23653508
REMARK  13 active torsions:
REMARK  status: ('A' for Active; 'I' for Inactive)
REMARK    1  A    between atoms: P_1  and  O_3
REMARK    2  A    between atoms: P_1  and  C_5
REMARK    3  A    between atoms: P_1  and  C_20
REMARK    4  A    between atoms: C_5  and  C_6
REMARK    5  A    between atoms: C_5  and  N_9
REMARK    6  A    between atoms: N_9  and  S_11
REMARK    7  A    between atoms: S_11  and  C_14
REMARK    8  A    between atoms: C_20  and  C_21
REMARK    9  A    between atoms: C_21  and  C_22
REMARK   10  A    between atoms: C_21  and  C_34
REMARK   11  A    between atoms: C_25  and  C_28
REMARK   12  A    between atoms: C_28  and  N_29
REMARK   13  A    between atoms: C_34  and  O_35
REMARK                            x       y       z     vdW  Elec       q    Type
REMARK                         _______ _______ _______ _____ _____    ______ ____
ROOT
ATOM      1  P   UNL     1      33.532 -14.683 -21.120  0.00  0.00    +0.236 P 
ATOM      2  O   UNL     1      34.909 -14.337 -20.634  0.00  0.00    -0.288 OA
ENDROOT
BRANCH   1   3
ATOM      3  O   UNL     1      32.431 -14.731 -19.935  0.00  0.00    -0.342 OA
ATOM      4  H   UNL     1      32.845 -14.472 -19.098  0.00  0.00    +0.218 HD
ENDBRANCH   1   3
BRANCH   1   5
ATOM      5  C   UNL     1      32.827 -13.531 -22.306  0.00  0.00    +0.152 C 
BRANCH   5   6
ATOM      6  C   UNL     1      33.523 -13.507 -23.684  0.00  0.00    +0.025 C 
ATOM      7  C   UNL     1      32.738 -14.294 -24.737  0.00  0.00    +0.002 C 
ATOM      8  C   UNL     1      33.822 -12.101 -24.207  0.00  0.00    +0.002 C 
ENDBRANCH   5   6
BRANCH   5   9
ATOM      9  N   UNL     1      32.897 -12.200 -21.664  0.00  0.00    -0.171 NA
ATOM     10  H   UNL     1      33.592 -12.281 -20.922  0.00  0.00    +0.149 HD
BRANCH   9  11
ATOM     11  S   UNL     1      31.544 -11.451 -20.962  0.00  0.00    +0.061 S 
ATOM     12  O   UNL     1      31.516 -11.717 -19.536  0.00  0.00    -0.153 OA
ATOM     13  O   UNL     1      30.376 -11.734 -21.775  0.00  0.00    -0.153 OA
BRANCH  11  14
ATOM     14  C   UNL     1      31.913  -9.738 -21.182  0.00  0.00    +0.122 C 
ATOM     15  C   UNL     1      31.899  -9.201 -22.458  0.00  0.00    +0.020 C 
ATOM     16  C   UNL     1      32.210  -8.962 -20.073  0.00  0.00    +0.020 C 
ATOM     17  C   UNL     1      32.191  -7.848 -22.631  0.00  0.00    +0.001 C 
ATOM     18  C   UNL     1      32.502  -7.609 -20.247  0.00  0.00    +0.001 C 
ATOM     19  C   UNL     1      32.493  -7.052 -21.526  0.00  0.00    +0.000 C 
ENDBRANCH  11  14
ENDBRANCH   9  11
ENDBRANCH   5   9
ENDBRANCH   1   5
BRANCH   1  20
ATOM     20  C   UNL     1      33.402 -16.317 -21.817  0.00  0.00    +0.104 C 
BRANCH  20  21
ATOM     21  C   UNL     1      34.765 -16.956 -22.110  0.00  0.00    +0.131 C 
BRANCH  21  22
ATOM     22  C   UNL     1      34.958 -18.289 -21.403  0.00  0.00    -0.012 C 
ATOM     23  C   UNL     1      33.845 -19.003 -21.005  0.00  0.00    -0.010 C 
ATOM     24  C   UNL     1      36.242 -18.745 -21.177  0.00  0.00    -0.004 C 
ATOM     25  C   UNL     1      34.024 -20.225 -20.357  0.00  0.00    -0.045 C 
ATOM     26  C   UNL     1      36.420 -19.966 -20.528  0.00  0.00    -0.001 C 
ATOM     27  C   UNL     1      35.311 -20.706 -20.118  0.00  0.00    -0.006 C 
BRANCH  25  28
ATOM     28  C   UNL     1      32.839 -21.015 -19.917  0.00  0.00    -0.059 C 
BRANCH  28  29
ATOM     29  N   UNL     1      33.201 -22.362 -19.471  0.00  0.00    +0.383 N 
ATOM     30  H   UNL     1      32.735 -22.565 -18.587  0.00  0.00    -0.089 HD
ATOM     31  H   UNL     1      34.212 -22.417 -19.343  0.00  0.00    -0.089 HD
ATOM     32  H   UNL     1      32.909 -23.042 -20.173  0.00  0.00    -0.089 HD
ENDBRANCH  28  29
ENDBRANCH  25  28
ENDBRANCH  21  22
BRANCH  21  34
ATOM     33  O   UNL     1      34.537 -17.983 -24.316  0.00  0.00    -0.250 OA
ATOM     34  C   UNL     1      34.975 -17.083 -23.613  0.00  0.00    +0.318 C 
BRANCH  34  35
ATOM     35  O   UNL     1      35.720 -16.061 -24.112  0.00  0.00    -0.480 OA
ATOM     36  H   UNL     1      35.984 -15.357 -23.555  0.00  0.00    +0.295 HD
ENDBRANCH  34  35
ENDBRANCH  21  34
ENDBRANCH  20  21
ENDBRANCH   1  20
TORSDOF 13
ENDMDL
MODEL 2
REMARK VINA RESULT:      -8.7      2.548      3.742
REMARK  Name = 23653508
REMARK  13 active torsions:
REMARK  status: ('A' for Active; 'I' for Inactive)
REMARK    1  A    between atoms: P_1  and  O_3
REMARK    2  A    between atoms: P_1  and  C_5
REMARK    3  A    between atoms: P_1  and  C_20
REMARK    4  A    between atoms: C_5  and  C_6
REMARK    5  A    between atoms: C_5  and  N_9
REMARK    6  A    between atoms: N_9  and  S_11
REMARK    7  A    between atoms: S_11  and  C_14
REMARK    8  A    between atoms: C_20  and  C_21
REMARK    9  A    between atoms: C_21  and  C_22
REMARK   10  A    between atoms: C_21  and  C_34
REMARK   11  A    between atoms: C_25  and  C_28
REMARK   12  A    between atoms: C_28  and  N_29
REMARK   13  A    between atoms: C_34  and  O_35
REMARK                            x       y       z     vdW  Elec       q    Type
REMARK                         _______ _______ _______ _____ _____    ______ ____
ROOT
ATOM      1  P   UNL     1      32.656 -12.459 -22.895  0.00  0.00    +0.236 P 
ATOM      2  O   UNL     1      32.300 -11.977 -21.519  0.00  0.00    -0.288 OA
ENDROOT
BRANCH   1   3
ATOM      3  O   UNL     1      31.434 -13.208 -23.645  0.00  0.00    -0.342 OA
ATOM      4  H   UNL     1      31.127 -12.663 -24.386  0.00  0.00    +0.218 HD
ENDBRANCH   1   3
BRANCH   1   5
ATOM      5  C   UNL     1      33.140 -11.174 -24.055  0.00  0.00    +0.152 C 
BRANCH   5   6
ATOM      6  C   UNL     1      34.243 -11.581 -25.055  0.00  0.00    +0.025 C 
ATOM      7  C   UNL     1      33.665 -12.253 -26.304  0.00  0.00    +0.002 C 
ATOM      8  C   UNL     1      35.165 -10.432 -25.469  0.00  0.00    +0.002 C 
ENDBRANCH   5   6
BRANCH   5   9
ATOM      9  N   UNL     1      33.584 -10.031 -23.227  0.00  0.00    -0.171 NA
ATOM     10  H   UNL     1      33.974 -10.434 -22.375  0.00  0.00    +0.149 HD
BRANCH   9  11
ATOM     11  S   UNL     1      32.526  -8.800 -22.724  0.00  0.00    +0.061 S 
ATOM     12  O   UNL     1      32.884  -8.355 -21.391  0.00  0.00    -0.153 OA
ATOM     13  O   UNL     1      31.163  -9.206 -23.012  0.00  0.00    -0.153 OA
BRANCH  11  14
ATOM     14  C   UNL     1      32.914  -7.495 -23.850  0.00  0.00    +0.122 C 
ATOM     15  C   UNL     1      34.216  -7.353 -24.298  0.00  0.00    +0.020 C 
ATOM     16  C   UNL     1      31.909  -6.638 -24.264  0.00  0.00    +0.020 C 
ATOM     17  C   UNL     1      34.522  -6.323 -25.187  0.00  0.00    +0.001 C 
ATOM     18  C   UNL     1      32.216  -5.607 -25.153  0.00  0.00    +0.001 C 
ATOM     19  C   UNL     1      33.523  -5.449 -25.614  0.00  0.00    +0.000 C 
ENDBRANCH  11  14
ENDBRANCH   9  11
ENDBRANCH   5   9
ENDBRANCH   1   5
BRANCH   1  20
ATOM     20  C   UNL     1      33.928 -13.706 -22.916  0.00  0.00    +0.104 C 
BRANCH  20  21
ATOM     21  C   UNL     1      33.521 -14.992 -22.186  0.00  0.00    +0.131 C 
BRANCH  21  22
ATOM     22  C   UNL     1      34.136 -16.240 -22.799  0.00  0.00    -0.012 C 
ATOM     23  C   UNL     1      34.434 -17.311 -21.980  0.00  0.00    -0.010 C 
ATOM     24  C   UNL     1      34.380 -16.266 -24.158  0.00  0.00    -0.004 C 
ATOM     25  C   UNL     1      34.997 -18.455 -22.544  0.00  0.00    -0.045 C 
ATOM     26  C   UNL     1      34.945 -17.409 -24.721  0.00  0.00    -0.001 C 
ATOM     27  C   UNL     1      35.254 -18.504 -23.914  0.00  0.00    -0.006 C 
BRANCH  25  28
ATOM     28  C   UNL     1      35.329 -19.625 -21.681  0.00  0.00    -0.059 C 
BRANCH  28  29
ATOM     29  N   UNL     1      36.108 -19.245 -20.501  0.00  0.00    +0.383 N 
ATOM     30  H   UNL     1      36.143 -20.028 -19.849  0.00  0.00    -0.089 HD
ATOM     31  H   UNL     1      35.670 -18.443 -20.048  0.00  0.00    -0.089 HD
ATOM     32  H   UNL     1      37.056 -18.998 -20.786  0.00  0.00    -0.089 HD
ENDBRANCH  28  29
ENDBRANCH  25  28
ENDBRANCH  21  22
BRANCH  21  34
ATOM     33  O   UNL     1      34.968 -14.836 -20.222  0.00  0.00    -0.250 OA
ATOM     34  C   UNL     1      33.844 -14.879 -20.702  0.00  0.00    +0.318 C 
BRANCH  34  35
ATOM     35  O   UNL     1      32.720 -14.826 -19.938  0.00  0.00    -0.480 OA
ATOM     36  H   UNL     1      32.377 -13.998 -19.666  0.00  0.00    +0.295 HD
ENDBRANCH  34  35
ENDBRANCH  21  34
ENDBRANCH  20  21
ENDBRANCH   1  20
TORSDOF 13
ENDMDL
MODEL 3
REMARK VINA RESULT:      -8.6      3.048      8.907
REMARK  Name = 23653508
REMARK  13 active torsions:
REMARK  status: ('A' for Active; 'I' for Inactive)
REMARK    1  A    between atoms: P_1  and  O_3
REMARK    2  A    between atoms: P_1  and  C_5
REMARK    3  A    between atoms: P_1  and  C_20
REMARK    4  A    between atoms: C_5  and  C_6
REMARK    5  A    between atoms: C_5  and  N_9
REMARK    6  A    between atoms: N_9  and  S_11
REMARK    7  A    between atoms: S_11  and  C_14
REMARK    8  A    between atoms: C_20  and  C_21
REMARK    9  A    between atoms: C_21  and  C_22
REMARK   10  A    between atoms: C_21  and  C_34
REMARK   11  A    between atoms: C_25  and  C_28
REMARK   12  A    between atoms: C_28  and  N_29
REMARK   13  A    between atoms: C_34  and  O_35
REMARK                            x       y       z     vdW  Elec       q    Type
REMARK                         _______ _______ _______ _____ _____    ______ ____
ROOT
ATOM      1  P   UNL     1      34.304 -15.276 -23.722  0.00  0.00    +0.236 P 
ATOM      2  O   UNL     1      35.581 -15.741 -24.358  0.00  0.00    -0.288 OA
ENDROOT
BRANCH   1   3
ATOM      3  O   UNL     1      33.052 -15.257 -24.746  0.00  0.00    -0.342 OA
ATOM      4  H   UNL     1      32.380 -15.889 -24.446  0.00  0.00    +0.218 HD
ENDBRANCH   1   3
BRANCH   1   5
ATOM      5  C   UNL     1      33.718 -16.286 -22.356  0.00  0.00    +0.152 C 
BRANCH   5   6
ATOM      6  C   UNL     1      33.077 -15.499 -21.192  0.00  0.00    +0.025 C 
ATOM      7  C   UNL     1      31.932 -16.276 -20.536  0.00  0.00    +0.002 C 
ATOM      8  C   UNL     1      34.072 -15.046 -20.123  0.00  0.00    +0.002 C 
ENDBRANCH   5   6
BRANCH   5   9
ATOM      9  N   UNL     1      34.895 -17.047 -21.883  0.00  0.00    -0.171 NA
ATOM     10  H   UNL     1      35.702 -16.439 -22.031  0.00  0.00    +0.149 HD
BRANCH   9  11
ATOM     11  S   UNL     1      35.323 -18.561 -22.524  0.00  0.00    +0.061 S 
ATOM     12  O   UNL     1      36.767 -18.685 -22.576  0.00  0.00    -0.153 OA
ATOM     13  O   UNL     1      34.530 -18.808 -23.713  0.00  0.00    -0.153 OA
BRANCH  11  14
ATOM     14  C   UNL     1      34.732 -19.669 -21.281  0.00  0.00    +0.122 C 
ATOM     15  C   UNL     1      35.637 -20.458 -20.593  0.00  0.00    +0.020 C 
ATOM     16  C   UNL     1      33.374 -19.727 -21.017  0.00  0.00    +0.020 C 
ATOM     17  C   UNL     1      35.170 -21.333 -19.611  0.00  0.00    +0.001 C 
ATOM     18  C   UNL     1      32.907 -20.602 -20.036  0.00  0.00    +0.001 C 
ATOM     19  C   UNL     1      33.805 -21.405 -19.333  0.00  0.00    +0.000 C 
ENDBRANCH  11  14
ENDBRANCH   9  11
ENDBRANCH   5   9
ENDBRANCH   1   5
BRANCH   1  20
ATOM     20  C   UNL     1      34.352 -13.587 -23.158  0.00  0.00    +0.104 C 
BRANCH  20  21
ATOM     21  C   UNL     1      33.289 -12.702 -23.820  0.00  0.00    +0.131 C 
BRANCH  21  22
ATOM     22  C   UNL     1      32.544 -11.827 -22.824  0.00  0.00    -0.012 C 
ATOM     23  C   UNL     1      32.490 -10.465 -23.039  0.00  0.00    -0.010 C 
ATOM     24  C   UNL     1      31.944 -12.422 -21.731  0.00  0.00    -0.004 C 
ATOM     25  C   UNL     1      31.807  -9.663 -22.125  0.00  0.00    -0.045 C 
ATOM     26  C   UNL     1      31.262 -11.620 -20.816  0.00  0.00    -0.001 C 
ATOM     27  C   UNL     1      31.193 -10.241 -21.013  0.00  0.00    -0.006 C 
BRANCH  25  28
ATOM     28  C   UNL     1      31.735  -8.189 -22.334  0.00  0.00    -0.059 C 
BRANCH  28  29
ATOM     29  N   UNL     1      31.053  -7.835 -23.581  0.00  0.00    +0.383 N 
ATOM     30  H   UNL     1      31.656  -8.058 -24.373  0.00  0.00    -0.089 HD
ATOM     31  H   UNL     1      30.843  -6.837 -23.583  0.00  0.00    -0.089 HD
ATOM     32  H   UNL     1      30.185  -8.366 -23.655  0.00  0.00    -0.089 HD
ENDBRANCH  28  29
ENDBRANCH  25  28
ENDBRANCH  21  22
BRANCH  21  34
ATOM     33  O   UNL     1      33.558 -11.885 -26.108  0.00  0.00    -0.250 OA
ATOM     34  C   UNL     1      33.912 -11.876 -24.936  0.00  0.00    +0.318 C 
BRANCH  34  35
ATOM     35  O   UNL     1      34.934 -11.098 -24.488  0.00  0.00    -0.480 OA
ATOM     36  H   UNL     1      34.930 -10.781 -23.607  0.00  0.00    +0.295 HD
ENDBRANCH  34  35
ENDBRANCH  21  34
ENDBRANCH  20  21
ENDBRANCH   1  20
TORSDOF 13
ENDMDL
MODEL 4
REMARK VINA RESULT:      -8.5      1.450      2.187
REMARK  Name = 23653508
REMARK  13 active torsions:
REMARK  status: ('A' for Active; 'I' for Inactive)
REMARK    1  A    between atoms: P_1  and  O_3
REMARK    2  A    between atoms: P_1  and  C_5
REMARK    3  A    between atoms: P_1  and  C_20
REMARK    4  A    between atoms: C_5  and  C_6
REMARK    5  A    between atoms: C_5  and  N_9
REMARK    6  A    between atoms: N_9  and  S_11
REMARK    7  A    between atoms: S_11  and  C_14
REMARK    8  A    between atoms: C_20  and  C_21
REMARK    9  A    between atoms: C_21  and  C_22
REMARK   10  A    between atoms: C_21  and  C_34
REMARK   11  A    between atoms: C_25  and  C_28
REMARK   12  A    between atoms: C_28  and  N_29
REMARK   13  A    between atoms: C_34  and  O_35
REMARK                            x       y       z     vdW  Elec       q    Type
REMARK                         _______ _______ _______ _____ _____    ______ ____
ROOT
ATOM      1  P   UNL     1      33.573 -14.590 -23.382  0.00  0.00    +0.236 P 
ATOM      2  O   UNL     1      32.807 -14.099 -24.575  0.00  0.00    -0.288 OA
ENDROOT
BRANCH   1   3
ATOM      3  O   UNL     1      35.175 -14.437 -23.545  0.00  0.00    -0.342 OA
ATOM      4  H   UNL     1      35.592 -14.441 -22.669  0.00  0.00    +0.218 HD
ENDBRANCH   1   3
BRANCH   1   5
ATOM      5  C   UNL     1      33.222 -13.732 -21.842  0.00  0.00    +0.152 C 
BRANCH   5   6
ATOM      6  C   UNL     1      33.212 -14.628 -20.585  0.00  0.00    +0.025 C 
ATOM      7  C   UNL     1      32.121 -15.699 -20.652  0.00  0.00    +0.002 C 
ATOM      8  C   UNL     1      34.560 -15.283 -20.275  0.00  0.00    +0.002 C 
ENDBRANCH   5   6
BRANCH   5   9
ATOM      9  N   UNL     1      31.904 -13.087 -22.032  0.00  0.00    -0.171 NA
ATOM     10  H   UNL     1      31.851 -12.838 -23.020  0.00  0.00    +0.149 HD
BRANCH   9  11
ATOM     11  S   UNL     1      31.432 -11.700 -21.171  0.00  0.00    +0.061 S 
ATOM     12  O   UNL     1      31.965 -11.751 -19.823  0.00  0.00    -0.153 OA
ATOM     13  O   UNL     1      30.015 -11.476 -21.383  0.00  0.00    -0.153 OA
BRANCH  11  14
ATOM     14  C   UNL     1      32.284 -10.418 -22.038  0.00  0.00    +0.122 C 
ATOM     15  C   UNL     1      32.918 -10.715 -23.232  0.00  0.00    +0.020 C 
ATOM     16  C   UNL     1      32.302  -9.139 -21.507  0.00  0.00    +0.020 C 
ATOM     17  C   UNL     1      33.590  -9.702 -23.916  0.00  0.00    +0.001 C 
ATOM     18  C   UNL     1      32.974  -8.127 -22.192  0.00  0.00    +0.001 C 
ATOM     19  C   UNL     1      33.619  -8.408 -23.397  0.00  0.00    +0.000 C 
ENDBRANCH  11  14
ENDBRANCH   9  11
ENDBRANCH   5   9
ENDBRANCH   1   5
BRANCH   1  20
ATOM     20  C   UNL     1      33.393 -16.335 -23.076  0.00  0.00    +0.104 C 
BRANCH  20  21
ATOM     21  C   UNL     1      34.683 -17.125 -23.326  0.00  0.00    +0.131 C 
BRANCH  21  22
ATOM     22  C   UNL     1      34.935 -18.195 -22.274  0.00  0.00    -0.012 C 
ATOM     23  C   UNL     1      33.856 -18.843 -21.707  0.00  0.00    -0.010 C 
ATOM     24  C   UNL     1      36.236 -18.485 -21.916  0.00  0.00    -0.004 C 
ATOM     25  C   UNL     1      34.088 -19.824 -20.743  0.00  0.00    -0.045 C 
ATOM     26  C   UNL     1      36.469 -19.465 -20.951  0.00  0.00    -0.001 C 
ATOM     27  C   UNL     1      35.394 -20.134 -20.364  0.00  0.00    -0.006 C 
BRANCH  25  28
ATOM     28  C   UNL     1      32.940 -20.538 -20.115  0.00  0.00    -0.059 C 
BRANCH  28  29
ATOM     29  N   UNL     1      33.285 -21.904 -19.716  0.00  0.00    +0.383 N 
ATOM     30  H   UNL     1      33.508 -21.922 -18.721  0.00  0.00    -0.089 HD
ATOM     31  H   UNL     1      34.092 -22.221 -20.251  0.00  0.00    -0.089 HD
ATOM     32  H   UNL     1      32.492 -22.521 -19.897  0.00  0.00    -0.089 HD
ENDBRANCH  28  29
ENDBRANCH  25  28
ENDBRANCH  21  22
BRANCH  21  34
ATOM     33  O   UNL     1      34.463 -18.882 -25.011  0.00  0.00    -0.250 OA
ATOM     34  C   UNL     1      34.678 -17.711 -24.731  0.00  0.00    +0.318 C 
BRANCH  34  35
ATOM     35  O   UNL     1      34.945 -16.771 -25.677  0.00  0.00    -0.480 OA
ATOM     36  H   UNL     1      35.758 -16.789 -26.139  0.00  0.00    +0.295 HD
ENDBRANCH  34  35
ENDBRANCH  21  34
ENDBRANCH  20  21
ENDBRANCH   1  20
TORSDOF 13
ENDMDL
MODEL 5
REMARK VINA RESULT:      -8.4      9.663     12.597
REMARK  Name = 23653508
REMARK  13 active torsions:
REMARK  status: ('A' for Active; 'I' for Inactive)
REMARK    1  A    between atoms: P_1  and  O_3
REMARK    2  A    between atoms: P_1  and  C_5
REMARK    3  A    between atoms: P_1  and  C_20
REMARK    4  A    between atoms: C_5  and  C_6
REMARK    5  A    between atoms: C_5  and  N_9
REMARK    6  A    between atoms: N_9  and  S_11
REMARK    7  A    between atoms: S_11  and  C_14
REMARK    8  A    between atoms: C_20  and  C_21
REMARK    9  A    between atoms: C_21  and  C_22
REMARK   10  A    between atoms: C_21  and  C_34
REMARK   11  A    between atoms: C_25  and  C_28
REMARK   12  A    between atoms: C_28  and  N_29
REMARK   13  A    between atoms: C_34  and  O_35
REMARK                            x       y       z     vdW  Elec       q    Type
REMARK                         _______ _______ _______ _____ _____    ______ ____
ROOT
ATOM      1  P   UNL     1      32.545 -23.839 -13.840  0.00  0.00    +0.236 P 
ATOM      2  O   UNL     1      31.700 -23.324 -12.712  0.00  0.00    -0.288 OA
ENDROOT
BRANCH   1   3
ATOM      3  O   UNL     1      32.499 -25.450 -13.987  0.00  0.00    -0.342 OA
ATOM      4  H   UNL     1      32.685 -25.696 -14.906  0.00  0.00    +0.218 HD
ENDBRANCH   1   3
BRANCH   1   5
ATOM      5  C   UNL     1      32.080 -23.252 -15.474  0.00  0.00    +0.152 C 
BRANCH   5   6
ATOM      6  C   UNL     1      30.596 -23.462 -15.844  0.00  0.00    +0.025 C 
ATOM      7  C   UNL     1      30.165 -24.922 -15.679  0.00  0.00    +0.002 C 
ATOM      8  C   UNL     1      29.629 -22.551 -15.085  0.00  0.00    +0.002 C 
ENDBRANCH   5   6
BRANCH   5   9
ATOM      9  N   UNL     1      32.959 -23.969 -16.424  0.00  0.00    -0.171 NA
ATOM     10  H   UNL     1      33.835 -24.136 -15.927  0.00  0.00    +0.149 HD
BRANCH   9  11
ATOM     11  S   UNL     1      33.391 -23.324 -17.935  0.00  0.00    +0.061 S 
ATOM     12  O   UNL     1      32.477 -22.258 -18.296  0.00  0.00    -0.153 OA
ATOM     13  O   UNL     1      33.634 -24.416 -18.859  0.00  0.00    -0.153 OA
BRANCH  11  14
ATOM     14  C   UNL     1      34.961 -22.592 -17.590  0.00  0.00    +0.122 C 
ATOM     15  C   UNL     1      35.573 -21.815 -18.558  0.00  0.00    +0.020 C 
ATOM     16  C   UNL     1      35.553 -22.810 -16.357  0.00  0.00    +0.020 C 
ATOM     17  C   UNL     1      36.813 -21.237 -18.285  0.00  0.00    +0.001 C 
ATOM     18  C   UNL     1      36.793 -22.233 -16.084  0.00  0.00    +0.001 C 
ATOM     19  C   UNL     1      37.424 -21.446 -17.049  0.00  0.00    +0.000 C 
ENDBRANCH  11  14
ENDBRANCH   9  11
ENDBRANCH   5   9
ENDBRANCH   1   5
BRANCH   1  20
ATOM     20  C   UNL     1      34.287 -23.532 -13.635  0.00  0.00    +0.104 C 
BRANCH  20  21
ATOM     21  C   UNL     1      35.009 -24.648 -12.871  0.00  0.00    +0.131 C 
BRANCH  21  22
ATOM     22  C   UNL     1      36.111 -25.307 -13.686  0.00  0.00    -0.012 C 
ATOM     23  C   UNL     1      37.428 -25.073 -13.342  0.00  0.00    -0.010 C 
ATOM     24  C   UNL     1      35.763 -26.118 -14.748  0.00  0.00    -0.004 C 
ATOM     25  C   UNL     1      38.438 -25.678 -14.090  0.00  0.00    -0.045 C 
ATOM     26  C   UNL     1      36.772 -26.721 -15.496  0.00  0.00    -0.001 C 
ATOM     27  C   UNL     1      38.110 -26.501 -15.167  0.00  0.00    -0.006 C 
BRANCH  25  28
ATOM     28  C   UNL     1      39.868 -25.441 -13.740  0.00  0.00    -0.059 C 
BRANCH  28  29
ATOM     29  N   UNL     1      40.726 -26.568 -14.112  0.00  0.00    +0.383 N 
ATOM     30  H   UNL     1      40.972 -26.496 -15.099  0.00  0.00    -0.089 HD
ATOM     31  H   UNL     1      40.229 -27.443 -13.948  0.00  0.00    -0.089 HD
ATOM     32  H   UNL     1      41.576 -26.548 -13.548  0.00  0.00    -0.089 HD
ENDBRANCH  28  29
ENDBRANCH  25  28
ENDBRANCH  21  22
BRANCH  21  34
ATOM     33  O   UNL     1      36.129 -23.067 -11.382  0.00  0.00    -0.250 OA
ATOM     34  C   UNL     1      35.531 -24.123 -11.541  0.00  0.00    +0.318 C 
BRANCH  34  35
ATOM     35  O   UNL     1      35.258 -24.970 -10.513  0.00  0.00    -0.480 OA
ATOM     36  H   UNL     1      34.382 -25.267 -10.371  0.00  0.00    +0.295 HD
ENDBRANCH  34  35
ENDBRANCH  21  34
ENDBRANCH  20  21
ENDBRANCH   1  20
TORSDOF 13
ENDMDL
MODEL 6
REMARK VINA RESULT:      -8.3      8.871     12.623
REMARK  Name = 23653508
REMARK  13 active torsions:
REMARK  status: ('A' for Active; 'I' for Inactive)
REMARK    1  A    between atoms: P_1  and  O_3
REMARK    2  A    between atoms: P_1  and  C_5
REMARK    3  A    between atoms: P_1  and  C_20
REMARK    4  A    between atoms: C_5  and  C_6
REMARK    5  A    between atoms: C_5  and  N_9
REMARK    6  A    between atoms: N_9  and  S_11
REMARK    7  A    between atoms: S_11  and  C_14
REMARK    8  A    between atoms: C_20  and  C_21
REMARK    9  A    between atoms: C_21  and  C_22
REMARK   10  A    between atoms: C_21  and  C_34
REMARK   11  A    between atoms: C_25  and  C_28
REMARK   12  A    between atoms: C_28  and  N_29
REMARK   13  A    between atoms: C_34  and  O_35
REMARK                            x       y       z     vdW  Elec       q    Type
REMARK                         _______ _______ _______ _____ _____    ______ ____
ROOT
ATOM      1  P   UNL     1      33.349 -23.144 -17.622  0.00  0.00    +0.236 P 
ATOM      2  O   UNL     1      32.087 -22.380 -17.895  0.00  0.00    -0.288 OA
ENDROOT
BRANCH   1   3
ATOM      3  O   UNL     1      33.573 -24.388 -18.633  0.00  0.00    -0.342 OA
ATOM      4  H   UNL     1      32.856 -25.031 -18.518  0.00  0.00    +0.218 HD
ENDBRANCH   1   3
BRANCH   1   5
ATOM      5  C   UNL     1      34.868 -22.195 -17.779  0.00  0.00    +0.152 C 
BRANCH   5   6
ATOM      6  C   UNL     1      35.242 -21.798 -19.223  0.00  0.00    +0.025 C 
ATOM      7  C   UNL     1      34.181 -20.899 -19.864  0.00  0.00    +0.002 C 
ATOM      8  C   UNL     1      36.619 -21.144 -19.354  0.00  0.00    +0.002 C 
ENDBRANCH   5   6
BRANCH   5   9
ATOM      9  N   UNL     1      35.929 -23.032 -17.178  0.00  0.00    -0.171 NA
ATOM     10  H   UNL     1      35.498 -23.936 -16.980  0.00  0.00    +0.149 HD
BRANCH   9  11
ATOM     11  S   UNL     1      36.755 -22.585 -15.762  0.00  0.00    +0.061 S 
ATOM     12  O   UNL     1      35.812 -22.107 -14.770  0.00  0.00    -0.153 OA
ATOM     13  O   UNL     1      37.901 -21.774 -16.124  0.00  0.00    -0.153 OA
BRANCH  11  14
ATOM     14  C   UNL     1      37.389 -24.135 -15.198  0.00  0.00    +0.122 C 
ATOM     15  C   UNL     1      38.742 -24.258 -14.937  0.00  0.00    +0.020 C 
ATOM     16  C   UNL     1      36.519 -25.199 -15.027  0.00  0.00    +0.020 C 
ATOM     17  C   UNL     1      39.242 -25.482 -14.492  0.00  0.00    +0.001 C 
ATOM     18  C   UNL     1      37.019 -26.423 -14.583  0.00  0.00    +0.001 C 
ATOM     19  C   UNL     1      38.381 -26.565 -14.315  0.00  0.00    +0.000 C 
ENDBRANCH  11  14
ENDBRANCH   9  11
ENDBRANCH   5   9
ENDBRANCH   1   5
BRANCH   1  20
ATOM     20  C   UNL     1      33.379 -23.945 -16.031  0.00  0.00    +0.104 C 
BRANCH  20  21
ATOM     21  C   UNL     1      32.423 -23.305 -15.018  0.00  0.00    +0.131 C 
BRANCH  21  22
ATOM     22  C   UNL     1      30.990 -23.793 -15.167  0.00  0.00    -0.012 C 
ATOM     23  C   UNL     1      30.029 -22.915 -15.628  0.00  0.00    -0.010 C 
ATOM     24  C   UNL     1      30.692 -25.099 -14.836  0.00  0.00    -0.004 C 
ATOM     25  C   UNL     1      28.715 -23.363 -15.764  0.00  0.00    -0.045 C 
ATOM     26  C   UNL     1      29.378 -25.548 -14.971  0.00  0.00    -0.001 C 
ATOM     27  C   UNL     1      28.390 -24.680 -15.435  0.00  0.00    -0.006 C 
BRANCH  25  28
ATOM     28  C   UNL     1      27.658 -22.435 -16.258  0.00  0.00    -0.059 C 
BRANCH  28  29
ATOM     29  N   UNL     1      27.487 -22.508 -17.710  0.00  0.00    +0.383 N 
ATOM     30  H   UNL     1      27.652 -23.464 -18.025  0.00  0.00    -0.089 HD
ATOM     31  H   UNL     1      28.152 -21.881 -18.163  0.00  0.00    -0.089 HD
ATOM     32  H   UNL     1      26.536 -22.230 -17.954  0.00  0.00    -0.089 HD
ENDBRANCH  28  29
ENDBRANCH  25  28
ENDBRANCH  21  22
BRANCH  21  34
ATOM     33  O   UNL     1      33.845 -24.271 -13.282  0.00  0.00    -0.250 OA
ATOM     34  C   UNL     1      32.941 -23.511 -13.602  0.00  0.00    +0.318 C 
BRANCH  34  35
ATOM     35  O   UNL     1      32.279 -22.741 -12.698  0.00  0.00    -0.480 OA
ATOM     36  H   UNL     1      31.383 -22.513 -12.844  0.00  0.00    +0.295 HD
ENDBRANCH  34  35
ENDBRANCH  21  34
ENDBRANCH  20  21
ENDBRANCH   1  20
TORSDOF 13
ENDMDL
MODEL 7
REMARK VINA RESULT:      -8.3      2.676      8.590
REMARK  Name = 23653508
REMARK  13 active torsions:
REMARK  status: ('A' for Active; 'I' for Inactive)
REMARK    1  A    between atoms: P_1  and  O_3
REMARK    2  A    between atoms: P_1  and  C_5
REMARK    3  A    between atoms: P_1  and  C_20
REMARK    4  A    between atoms: C_5  and  C_6
REMARK    5  A    between atoms: C_5  and  N_9
REMARK    6  A    between atoms: N_9  and  S_11
REMARK    7  A    between atoms: S_11  and  C_14
REMARK    8  A    between atoms: C_20  and  C_21
REMARK    9  A    between atoms: C_21  and  C_22
REMARK   10  A    between atoms: C_21  and  C_34
REMARK   11  A    between atoms: C_25  and  C_28
REMARK   12  A    between atoms: C_28  and  N_29
REMARK   13  A    between atoms: C_34  and  O_35
REMARK                            x       y       z     vdW  Elec       q    Type
REMARK                         _______ _______ _______ _____ _____    ______ ____
ROOT
ATOM      1  P   UNL     1      33.796 -14.788 -22.687  0.00  0.00    +0.236 P 
ATOM      2  O   UNL     1      32.315 -14.965 -22.853  0.00  0.00    -0.288 OA
ENDROOT
BRANCH   1   3
ATOM      3  O   UNL     1      34.259 -14.707 -21.139  0.00  0.00    -0.342 OA
ATOM      4  H   UNL     1      34.779 -15.495 -20.916  0.00  0.00    +0.218 HD
ENDBRANCH   1   3
BRANCH   1   5
ATOM      5  C   UNL     1      34.805 -16.114 -23.361  0.00  0.00    +0.152 C 
BRANCH   5   6
ATOM      6  C   UNL     1      34.577 -16.409 -24.860  0.00  0.00    +0.025 C 
ATOM      7  C   UNL     1      34.427 -17.908 -25.133  0.00  0.00    +0.002 C 
ATOM      8  C   UNL     1      33.396 -15.653 -25.472  0.00  0.00    +0.002 C 
ENDBRANCH   5   6
BRANCH   5   9
ATOM      9  N   UNL     1      34.498 -17.308 -22.544  0.00  0.00    -0.171 NA
ATOM     10  H   UNL     1      33.633 -17.096 -22.046  0.00  0.00    +0.149 HD
BRANCH   9  11
ATOM     11  S   UNL     1      35.573 -17.918 -21.378  0.00  0.00    +0.061 S 
ATOM     12  O   UNL     1      35.682 -16.987 -20.271  0.00  0.00    -0.153 OA
ATOM     13  O   UNL     1      36.769 -18.394 -22.046  0.00  0.00    -0.153 OA
BRANCH  11  14
ATOM     14  C   UNL     1      34.714 -19.348 -20.795  0.00  0.00    +0.122 C 
ATOM     15  C   UNL     1      33.335 -19.399 -20.901  0.00  0.00    +0.020 C 
ATOM     16  C   UNL     1      35.437 -20.393 -20.244  0.00  0.00    +0.020 C 
ATOM     17  C   UNL     1      32.658 -20.529 -20.440  0.00  0.00    +0.001 C 
ATOM     18  C   UNL     1      34.759 -21.522 -19.783  0.00  0.00    +0.001 C 
ATOM     19  C   UNL     1      33.370 -21.590 -19.881  0.00  0.00    +0.000 C 
ENDBRANCH  11  14
ENDBRANCH   9  11
ENDBRANCH   5   9
ENDBRANCH   1   5
BRANCH   1  20
ATOM     20  C   UNL     1      34.418 -13.254 -23.344  0.00  0.00    +0.104 C 
BRANCH  20  21
ATOM     21  C   UNL     1      33.344 -12.426 -24.060  0.00  0.00    +0.131 C 
BRANCH  21  22
ATOM     22  C   UNL     1      32.807 -11.288 -23.205  0.00  0.00    -0.012 C 
ATOM     23  C   UNL     1      32.211 -11.584 -21.996  0.00  0.00    -0.010 C 
ATOM     24  C   UNL     1      32.930  -9.993 -23.666  0.00  0.00    -0.004 C 
ATOM     25  C   UNL     1      31.719 -10.539 -21.213  0.00  0.00    -0.045 C 
ATOM     26  C   UNL     1      32.437  -8.948 -22.884  0.00  0.00    -0.001 C 
ATOM     27  C   UNL     1      31.831  -9.222 -21.658  0.00  0.00    -0.006 C 
BRANCH  25  28
ATOM     28  C   UNL     1      31.069 -10.831 -19.903  0.00  0.00    -0.059 C 
BRANCH  28  29
ATOM     29  N   UNL     1      31.730 -10.148 -18.789  0.00  0.00    +0.383 N 
ATOM     30  H   UNL     1      31.564  -9.144 -18.859  0.00  0.00    -0.089 HD
ATOM     31  H   UNL     1      32.733 -10.331 -18.825  0.00  0.00    -0.089 HD
ATOM     32  H   UNL     1      31.353 -10.494 -17.907  0.00  0.00    -0.089 HD
ENDBRANCH  28  29
ENDBRANCH  25  28
ENDBRANCH  21  22
BRANCH  21  34
ATOM     33  O   UNL     1      33.388 -12.184 -26.491  0.00  0.00    -0.250 OA
ATOM     34  C   UNL     1      33.870 -11.924 -25.397  0.00  0.00    +0.318 C 
BRANCH  34  35
ATOM     35  O   UNL     1      34.964 -11.129 -25.250  0.00  0.00    -0.480 OA
ATOM     36  H   UNL     1      35.821 -11.484 -25.375  0.00  0.00    +0.295 HD
ENDBRANCH  34  35
ENDBRANCH  21  34
ENDBRANCH  20  21
ENDBRANCH   1  20
TORSDOF 13
ENDMDL
MODEL 8
REMARK VINA RESULT:      -8.3      2.268      3.293
REMARK  Name = 23653508
REMARK  13 active torsions:
REMARK  status: ('A' for Active; 'I' for Inactive)
REMARK    1  A    between atoms: P_1  and  O_3
REMARK    2  A    between atoms: P_1  and  C_5
REMARK    3  A    between atoms: P_1  and  C_20
REMARK    4  A    between atoms: C_5  and  C_6
REMARK    5  A    between atoms: C_5  and  N_9
REMARK    6  A    between atoms: N_9  and  S_11
REMARK    7  A    between atoms: S_11  and  C_14
REMARK    8  A    between atoms: C_20  and  C_21
REMARK    9  A    between atoms: C_21  and  C_22
REMARK   10  A    between atoms: C_21  and  C_34
REMARK   11  A    between atoms: C_25  and  C_28
REMARK   12  A    between atoms: C_28  and  N_29
REMARK   13  A    between atoms: C_34  and  O_35
REMARK                            x       y       z     vdW  Elec       q    Type
REMARK                         _______ _______ _______ _____ _____    ______ ____
ROOT
ATOM      1  P   UNL     1      34.565 -16.439 -24.175  0.00  0.00    +0.236 P 
ATOM      2  O   UNL     1      34.870 -17.038 -25.517  0.00  0.00    -0.288 OA
ENDROOT
BRANCH   1   3
ATOM      3  O   UNL     1      35.880 -15.894 -23.406  0.00  0.00    -0.342 OA
ATOM      4  H   UNL     1      36.052 -14.977 -23.669  0.00  0.00    +0.218 HD
ENDBRANCH   1   3
BRANCH   1   5
ATOM      5  C   UNL     1      33.473 -15.011 -24.206  0.00  0.00    +0.152 C 
BRANCH   5   6
ATOM      6  C   UNL     1      33.552 -14.158 -25.490  0.00  0.00    +0.025 C 
ATOM      7  C   UNL     1      32.432 -14.501 -26.476  0.00  0.00    +0.002 C 
ATOM      8  C   UNL     1      33.571 -12.649 -25.237  0.00  0.00    +0.002 C 
ENDBRANCH   5   6
BRANCH   5   9
ATOM      9  N   UNL     1      33.835 -14.202 -23.021  0.00  0.00    -0.171 NA
ATOM     10  H   UNL     1      34.841 -14.316 -22.898  0.00  0.00    +0.149 HD
BRANCH   9  11
ATOM     11  S   UNL     1      33.142 -14.461 -21.492  0.00  0.00    +0.061 S 
ATOM     12  O   UNL     1      34.185 -14.620 -20.497  0.00  0.00    -0.153 OA
ATOM     13  O   UNL     1      32.096 -15.459 -21.612  0.00  0.00    -0.153 OA
BRANCH  11  14
ATOM     14  C   UNL     1      32.337 -12.918 -21.184  0.00  0.00    +0.122 C 
ATOM     15  C   UNL     1      32.135 -12.509 -19.878  0.00  0.00    +0.020 C 
ATOM     16  C   UNL     1      31.924 -12.146 -22.257  0.00  0.00    +0.020 C 
ATOM     17  C   UNL     1      31.499 -11.291 -19.636  0.00  0.00    +0.001 C 
ATOM     18  C   UNL     1      31.288 -10.928 -22.015  0.00  0.00    +0.001 C 
ATOM     19  C   UNL     1      31.075 -10.500 -20.704  0.00  0.00    +0.000 C 
ENDBRANCH  11  14
ENDBRANCH   9  11
ENDBRANCH   5   9
ENDBRANCH   1   5
BRANCH   1  20
ATOM     20  C   UNL     1      33.898 -17.599 -23.000  0.00  0.00    +0.104 C 
BRANCH  20  21
ATOM     21  C   UNL     1      34.963 -18.192 -22.070  0.00  0.00    +0.131 C 
BRANCH  21  22
ATOM     22  C   UNL     1      34.412 -19.273 -21.153  0.00  0.00    -0.012 C 
ATOM     23  C   UNL     1      35.296 -20.087 -20.473  0.00  0.00    -0.010 C 
ATOM     24  C   UNL     1      33.044 -19.409 -21.029  0.00  0.00    -0.004 C 
ATOM     25  C   UNL     1      34.790 -21.078 -19.632  0.00  0.00    -0.045 C 
ATOM     26  C   UNL     1      32.538 -20.400 -20.189  0.00  0.00    -0.001 C 
ATOM     27  C   UNL     1      33.411 -21.235 -19.490  0.00  0.00    -0.006 C 
BRANCH  25  28
ATOM     28  C   UNL     1      35.722 -21.971 -18.886  0.00  0.00    -0.059 C 
BRANCH  28  29
ATOM     29  N   UNL     1      36.719 -21.221 -18.120  0.00  0.00    +0.383 N 
ATOM     30  H   UNL     1      36.330 -20.319 -17.846  0.00  0.00    -0.089 HD
ATOM     31  H   UNL     1      37.549 -21.072 -18.695  0.00  0.00    -0.089 HD
ATOM     32  H   UNL     1      36.973 -21.749 -17.285  0.00  0.00    -0.089 HD
ENDBRANCH  28  29
ENDBRANCH  25  28
ENDBRANCH  21  22
BRANCH  21  34
ATOM     33  O   UNL     1      37.326 -18.476 -22.628  0.00  0.00    -0.250 OA
ATOM     34  C   UNL     1      36.149 -18.695 -22.882  0.00  0.00    +0.318 C 
BRANCH  34  35
ATOM     35  O   UNL     1      35.758 -19.439 -23.951  0.00  0.00    -0.480 OA
ATOM     36  H   UNL     1      36.065 -20.318 -24.047  0.00  0.00    +0.295 HD
ENDBRANCH  34  35
ENDBRANCH  21  34
ENDBRANCH  20  21
ENDBRANCH   1  20
TORSDOF 13
ENDMDL
MODEL 9
REMARK VINA RESULT:      -8.3      2.202      3.272
REMARK  Name = 23653508
REMARK  13 active torsions:
REMARK  status: ('A' for Active; 'I' for Inactive)
REMARK    1  A    between atoms: P_1  and  O_3
REMARK    2  A    between atoms: P_1  and  C_5
REMARK    3  A    between atoms: P_1  and  C_20
REMARK    4  A    between atoms: C_5  and  C_6
REMARK    5  A    between atoms: C_5  and  N_9
REMARK    6  A    between atoms: N_9  and  S_11
REMARK    7  A    between atoms: S_11  and  C_14
REMARK    8  A    between atoms: C_20  and  C_21
REMARK    9  A    between atoms: C_21  and  C_22
REMARK   10  A    between atoms: C_21  and  C_34
REMARK   11  A    between atoms: C_25  and  C_28
REMARK   12  A    between atoms: C_28  and  N_29
REMARK   13  A    between atoms: C_34  and  O_35
REMARK                            x       y       z     vdW  Elec       q    Type
REMARK                         _______ _______ _______ _____ _____    ______ ____
ROOT
ATOM      1  P   UNL     1      33.227 -13.312 -22.880  0.00  0.00    +0.236 P 
ATOM      2  O   UNL     1      34.570 -13.666 -22.310  0.00  0.00    -0.288 OA
ENDROOT
BRANCH   1   3
ATOM      3  O   UNL     1      32.049 -13.295 -21.771  0.00  0.00    -0.342 OA
ATOM      4  H   UNL     1      32.153 -14.054 -21.177  0.00  0.00    +0.218 HD
ENDBRANCH   1   3
BRANCH   1   5
ATOM      5  C   UNL     1      33.121 -11.684 -23.634  0.00  0.00    +0.152 C 
BRANCH   5   6
ATOM      6  C   UNL     1      34.272 -11.338 -24.602  0.00  0.00    +0.025 C 
ATOM      7  C   UNL     1      33.882 -11.574 -26.064  0.00  0.00    +0.002 C 
ATOM      8  C   UNL     1      34.822  -9.920 -24.438  0.00  0.00    +0.002 C 
ENDBRANCH   5   6
BRANCH   5   9
ATOM      9  N   UNL     1      33.080 -10.722 -22.510  0.00  0.00    -0.171 NA
ATOM     10  H   UNL     1      33.601 -11.156 -21.747  0.00  0.00    +0.149 HD
BRANCH   9  11
ATOM     11  S   UNL     1      31.624 -10.170 -21.831  0.00  0.00    +0.061 S 
ATOM     12  O   UNL     1      31.695 -10.243 -20.384  0.00  0.00    -0.153 OA
ATOM     13  O   UNL     1      30.515 -10.786 -22.535  0.00  0.00    -0.153 OA
BRANCH  11  14
ATOM     14  C   UNL     1      31.628  -8.463 -22.285  0.00  0.00    +0.122 C 
ATOM     15  C   UNL     1      32.041  -7.518 -21.362  0.00  0.00    +0.020 C 
ATOM     16  C   UNL     1      31.217  -8.100 -23.557  0.00  0.00    +0.020 C 
ATOM     17  C   UNL     1      32.043  -6.170 -21.721  0.00  0.00    +0.001 C 
ATOM     18  C   UNL     1      31.220  -6.752 -23.915  0.00  0.00    +0.001 C 
ATOM     19  C   UNL     1      31.632  -5.787 -22.997  0.00  0.00    +0.000 C 
ENDBRANCH  11  14
ENDBRANCH   9  11
ENDBRANCH   5   9
ENDBRANCH   1   5
BRANCH   1  20
ATOM     20  C   UNL     1      32.610 -14.492 -24.063  0.00  0.00    +0.104 C 
BRANCH  20  21
ATOM     21  C   UNL     1      33.713 -15.096 -24.940  0.00  0.00    +0.131 C 
BRANCH  21  22
ATOM     22  C   UNL     1      34.152 -16.475 -24.473  0.00  0.00    -0.012 C 
ATOM     23  C   UNL     1      34.461 -16.663 -23.141  0.00  0.00    -0.010 C 
ATOM     24  C   UNL     1      34.231 -17.499 -25.396  0.00  0.00    -0.004 C 
ATOM     25  C   UNL     1      34.864 -17.928 -22.714  0.00  0.00    -0.045 C 
ATOM     26  C   UNL     1      34.634 -18.763 -24.970  0.00  0.00    -0.001 C 
ATOM     27  C   UNL     1      34.951 -18.978 -23.628  0.00  0.00    -0.006 C 
BRANCH  25  28
ATOM     28  C   UNL     1      35.204 -18.158 -21.280  0.00  0.00    -0.059 C 
BRANCH  28  29
ATOM     29  N   UNL     1      35.152 -16.926 -20.491  0.00  0.00    +0.383 N 
ATOM     30  H   UNL     1      34.350 -16.959 -19.861  0.00  0.00    -0.089 HD
ATOM     31  H   UNL     1      35.060 -16.125 -21.116  0.00  0.00    -0.089 HD
ATOM     32  H   UNL     1      36.009 -16.835 -19.945  0.00  0.00    -0.089 HD
ENDBRANCH  28  29
ENDBRANCH  25  28
ENDBRANCH  21  22
BRANCH  21  34
ATOM     33  O   UNL     1      33.826 -14.506 -27.310  0.00  0.00    -0.250 OA
ATOM     34  C   UNL     1      33.276 -15.110 -26.399  0.00  0.00    +0.318 C 
BRANCH  34  35
ATOM     35  O   UNL     1      32.180 -15.889 -26.597  0.00  0.00    -0.480 OA
ATOM     36  H   UNL     1      31.439 -15.809 -26.029  0.00  0.00    +0.295 HD
ENDBRANCH  34  35
ENDBRANCH  21  34
ENDBRANCH  20  21
ENDBRANCH   1  20
TORSDOF 13
ENDMDL
