MODEL 1
REMARK VINA RESULT:      -5.7      0.000      0.000
REMARK  Name = 5369209
REMARK  4 active torsions:
REMARK  status: ('A' for Active; 'I' for Inactive)
REMARK    1  A    between atoms: C_1  and  C_4
REMARK    2  A    between atoms: C_2  and  C_8
REMARK    3  A    between atoms: C_4  and  O_5
REMARK    4  A    between atoms: C_8  and  O_9
REMARK                            x       y       z     vdW  Elec       q    Type
REMARK                         _______ _______ _______ _____ _____    ______ ____
ROOT
ATOM      1  C   UNL     1      38.787 -24.909 -12.927  0.00  0.00    +0.089 C 
ATOM      2  C   UNL     1      39.163 -25.651 -13.976  0.00  0.00    +0.088 C 
ENDROOT
BRANCH   1   4
ATOM      3  O   UNL     1      37.060 -26.422 -12.211  0.00  0.00    -0.245 OA
ATOM      4  C   UNL     1      37.647 -25.357 -12.094  0.00  0.00    +0.342 C 
BRANCH   4   5
ATOM      5  O   UNL     1      37.385 -24.375 -11.191  0.00  0.00    -0.441 OA
ATOM      6  C   UNL     1      37.212 -23.064 -11.739  0.00  0.00    +0.256 C 
ENDBRANCH   4   5
ENDBRANCH   1   4
BRANCH   2   8
ATOM      7  O   UNL     1      41.162 -24.501 -14.538  0.00  0.00    -0.245 OA
ATOM      8  C   UNL     1      40.287 -25.290 -14.864  0.00  0.00    +0.338 C 
BRANCH   8   9
ATOM      9  O   UNL     1      40.238 -25.919 -16.059  0.00  0.00    -0.477 OA
ATOM     10  H   UNL     1      39.717 -25.568 -16.752  0.00  0.00    +0.295 HD
ENDBRANCH   8   9
ENDBRANCH   2   8
TORSDOF 4
ENDMDL
MODEL 2
REMARK VINA RESULT:      -5.4      1.353      1.876
REMARK  Name = 5369209
REMARK  4 active torsions:
REMARK  status: ('A' for Active; 'I' for Inactive)
REMARK    1  A    between atoms: C_1  and  C_4
REMARK    2  A    between atoms: C_2  and  C_8
REMARK    3  A    between atoms: C_4  and  O_5
REMARK    4  A    between atoms: C_8  and  O_9
REMARK                            x       y       z     vdW  Elec       q    Type
REMARK                         _______ _______ _______ _____ _____    ______ ____
ROOT
ATOM      1  C   UNL     1      38.143 -24.582 -13.224  0.00  0.00    +0.089 C 
ATOM      2  C   UNL     1      39.291 -25.198 -13.530  0.00  0.00    +0.088 C 
ENDROOT
BRANCH   1   4
ATOM      3  O   UNL     1      38.547 -22.832 -11.625  0.00  0.00    -0.245 OA
ATOM      4  C   UNL     1      38.015 -23.891 -11.921  0.00  0.00    +0.342 C 
BRANCH   4   5
ATOM      5  O   UNL     1      37.205 -24.646 -11.132  0.00  0.00    -0.441 OA
ATOM      6  C   UNL     1      35.805 -24.543 -11.410  0.00  0.00    +0.256 C 
ENDBRANCH   4   5
ENDBRANCH   1   4
BRANCH   2   8
ATOM      7  O   UNL     1      40.633 -26.141 -15.246  0.00  0.00    -0.245 OA
ATOM      8  C   UNL     1      39.516 -25.912 -14.803  0.00  0.00    +0.338 C 
BRANCH   8   9
ATOM      9  O   UNL     1      38.368 -26.277 -15.414  0.00  0.00    -0.477 OA
ATOM     10  H   UNL     1      37.970 -27.100 -15.210  0.00  0.00    +0.295 HD
ENDBRANCH   8   9
ENDBRANCH   2   8
TORSDOF 4
ENDMDL
MODEL 3
REMARK VINA RESULT:      -5.1      1.956      4.621
REMARK  Name = 5369209
REMARK  4 active torsions:
REMARK  status: ('A' for Active; 'I' for Inactive)
REMARK    1  A    between atoms: C_1  and  C_4
REMARK    2  A    between atoms: C_2  and  C_8
REMARK    3  A    between atoms: C_4  and  O_5
REMARK    4  A    between atoms: C_8  and  O_9
REMARK                            x       y       z     vdW  Elec       q    Type
REMARK                         _______ _______ _______ _____ _____    ______ ____
ROOT
ATOM      1  C   UNL     1      37.238 -26.184 -13.161  0.00  0.00    +0.089 C 
ATOM      2  C   UNL     1      36.521 -25.109 -12.811  0.00  0.00    +0.088 C 
ENDROOT
BRANCH   1   4
ATOM      3  O   UNL     1      36.652 -26.351 -15.487  0.00  0.00    -0.245 OA
ATOM      4  C   UNL     1      37.481 -26.459 -14.595  0.00  0.00    +0.342 C 
BRANCH   4   5
ATOM      5  O   UNL     1      38.778 -26.844 -14.728  0.00  0.00    -0.441 OA
ATOM      6  C   UNL     1      39.747 -25.801 -14.583  0.00  0.00    +0.256 C 
ENDBRANCH   4   5
ENDBRANCH   1   4
BRANCH   2   8
ATOM      7  O   UNL     1      35.232 -25.148 -10.819  0.00  0.00    -0.245 OA
ATOM      8  C   UNL     1      36.226 -24.750 -11.409  0.00  0.00    +0.338 C 
BRANCH   8   9
ATOM      9  O   UNL     1      37.162 -23.944 -10.863  0.00  0.00    -0.477 OA
ATOM     10  H   UNL     1      38.068 -24.082 -11.054  0.00  0.00    +0.295 HD
ENDBRANCH   8   9
ENDBRANCH   2   8
TORSDOF 4
ENDMDL
MODEL 4
REMARK VINA RESULT:      -5.1      9.601     10.442
REMARK  Name = 5369209
REMARK  4 active torsions:
REMARK  status: ('A' for Active; 'I' for Inactive)
REMARK    1  A    between atoms: C_1  and  C_4
REMARK    2  A    between atoms: C_2  and  C_8
REMARK    3  A    between atoms: C_4  and  O_5
REMARK    4  A    between atoms: C_8  and  O_9
REMARK                            x       y       z     vdW  Elec       q    Type
REMARK                         _______ _______ _______ _____ _____    ______ ____
ROOT
ATOM      1  C   UNL     1      34.918 -20.429 -20.338  0.00  0.00    +0.089 C 
ATOM      2  C   UNL     1      33.727 -20.875 -19.920  0.00  0.00    +0.088 C 
ENDROOT
BRANCH   1   4
ATOM      3  O   UNL     1      35.645 -18.174 -20.749  0.00  0.00    -0.245 OA
ATOM      4  C   UNL     1      34.992 -19.152 -21.083  0.00  0.00    +0.342 C 
BRANCH   4   5
ATOM      5  O   UNL     1      34.213 -19.274 -22.191  0.00  0.00    -0.441 OA
ATOM      6  C   UNL     1      34.887 -19.095 -23.441  0.00  0.00    +0.256 C 
ENDBRANCH   4   5
ENDBRANCH   1   4
BRANCH   2   8
ATOM      7  O   UNL     1      32.578 -22.351 -18.458  0.00  0.00    -0.245 OA
ATOM      8  C   UNL     1      33.549 -22.135 -19.170  0.00  0.00    +0.338 C 
BRANCH   8   9
ATOM      9  O   UNL     1      34.564 -23.007 -19.356  0.00  0.00    -0.477 OA
ATOM     10  H   UNL     1      34.707 -23.697 -18.738  0.00  0.00    +0.295 HD
ENDBRANCH   8   9
ENDBRANCH   2   8
TORSDOF 4
ENDMDL
MODEL 5
REMARK VINA RESULT:      -5.1      9.536     10.275
REMARK  Name = 5369209
REMARK  4 active torsions:
REMARK  status: ('A' for Active; 'I' for Inactive)
REMARK    1  A    between atoms: C_1  and  C_4
REMARK    2  A    between atoms: C_2  and  C_8
REMARK    3  A    between atoms: C_4  and  O_5
REMARK    4  A    between atoms: C_8  and  O_9
REMARK                            x       y       z     vdW  Elec       q    Type
REMARK                         _______ _______ _______ _____ _____    ______ ____
ROOT
ATOM      1  C   UNL     1      34.962 -20.421 -20.432  0.00  0.00    +0.089 C 
ATOM      2  C   UNL     1      33.775 -20.881 -20.019  0.00  0.00    +0.088 C 
ENDROOT
BRANCH   1   4
ATOM      3  O   UNL     1      34.676 -19.300 -22.540  0.00  0.00    -0.245 OA
ATOM      4  C   UNL     1      35.010 -19.273 -21.365  0.00  0.00    +0.342 C 
BRANCH   4   5
ATOM      5  O   UNL     1      35.484 -18.201 -20.676  0.00  0.00    -0.441 OA
ATOM      6  C   UNL     1      34.965 -16.930 -21.080  0.00  0.00    +0.256 C 
ENDBRANCH   4   5
ENDBRANCH   1   4
BRANCH   2   8
ATOM      7  O   UNL     1      32.569 -22.278 -18.526  0.00  0.00    -0.245 OA
ATOM      8  C   UNL     1      33.623 -22.020 -19.090  0.00  0.00    +0.338 C 
BRANCH   8   9
ATOM      9  O   UNL     1      34.761 -22.730 -18.936  0.00  0.00    -0.477 OA
ATOM     10  H   UNL     1      34.800 -23.621 -19.223  0.00  0.00    +0.295 HD
ENDBRANCH   8   9
ENDBRANCH   2   8
TORSDOF 4
ENDMDL
MODEL 6
REMARK VINA RESULT:      -5.0      9.781     10.922
REMARK  Name = 5369209
REMARK  4 active torsions:
REMARK  status: ('A' for Active; 'I' for Inactive)
REMARK    1  A    between atoms: C_1  and  C_4
REMARK    2  A    between atoms: C_2  and  C_8
REMARK    3  A    between atoms: C_4  and  O_5
REMARK    4  A    between atoms: C_8  and  O_9
REMARK                            x       y       z     vdW  Elec       q    Type
REMARK                         _______ _______ _______ _____ _____    ______ ____
ROOT
ATOM      1  C   UNL     1      28.978 -22.868 -16.038  0.00  0.00    +0.089 C 
ATOM      2  C   UNL     1      29.345 -24.055 -15.541  0.00  0.00    +0.088 C 
ENDROOT
BRANCH   1   4
ATOM      3  O   UNL     1      27.543 -23.753 -17.753  0.00  0.00    -0.245 OA
ATOM      4  C   UNL     1      27.920 -22.811 -17.073  0.00  0.00    +0.342 C 
BRANCH   4   5
ATOM      5  O   UNL     1      27.456 -21.533 -17.118  0.00  0.00    -0.441 OA
ATOM      6  C   UNL     1      26.218 -21.353 -17.813  0.00  0.00    +0.256 C 
ENDBRANCH   4   5
ENDBRANCH   1   4
BRANCH   2   8
ATOM      7  O   UNL     1      31.444 -23.600 -14.531  0.00  0.00    -0.245 OA
ATOM      8  C   UNL     1      30.388 -24.216 -14.508  0.00  0.00    +0.338 C 
BRANCH   8   9
ATOM      9  O   UNL     1      30.049 -25.107 -13.550  0.00  0.00    -0.477 OA
ATOM     10  H   UNL     1      30.631 -25.269 -12.834  0.00  0.00    +0.295 HD
ENDBRANCH   8   9
ENDBRANCH   2   8
TORSDOF 4
ENDMDL
MODEL 7
REMARK VINA RESULT:      -5.0     13.624     14.467
REMARK  Name = 5369209
REMARK  4 active torsions:
REMARK  status: ('A' for Active; 'I' for Inactive)
REMARK    1  A    between atoms: C_1  and  C_4
REMARK    2  A    between atoms: C_2  and  C_8
REMARK    3  A    between atoms: C_4  and  O_5
REMARK    4  A    between atoms: C_8  and  O_9
REMARK                            x       y       z     vdW  Elec       q    Type
REMARK                         _______ _______ _______ _____ _____    ______ ____
ROOT
ATOM      1  C   UNL     1      35.005 -16.824 -23.484  0.00  0.00    +0.089 C 
ATOM      2  C   UNL     1      34.495 -16.215 -22.407  0.00  0.00    +0.088 C 
ENDROOT
BRANCH   1   4
ATOM      3  O   UNL     1      34.782 -17.038 -25.869  0.00  0.00    -0.245 OA
ATOM      4  C   UNL     1      34.502 -16.462 -24.829  0.00  0.00    +0.342 C 
BRANCH   4   5
ATOM      5  O   UNL     1      33.681 -15.387 -24.686  0.00  0.00    -0.441 OA
ATOM      6  C   UNL     1      33.075 -14.911 -25.892  0.00  0.00    +0.256 C 
ENDBRANCH   4   5
ENDBRANCH   1   4
BRANCH   2   8
ATOM      7  O   UNL     1      35.332 -17.607 -20.676  0.00  0.00    -0.245 OA
ATOM      8  C   UNL     1      34.931 -16.506 -21.026  0.00  0.00    +0.338 C 
BRANCH   8   9
ATOM      9  O   UNL     1      34.838 -15.436 -20.207  0.00  0.00    -0.477 OA
ATOM     10  H   UNL     1      34.284 -14.717 -20.437  0.00  0.00    +0.295 HD
ENDBRANCH   8   9
ENDBRANCH   2   8
TORSDOF 4
ENDMDL
MODEL 8
REMARK VINA RESULT:      -5.0     11.588     12.213
REMARK  Name = 5369209
REMARK  4 active torsions:
REMARK  status: ('A' for Active; 'I' for Inactive)
REMARK    1  A    between atoms: C_1  and  C_4
REMARK    2  A    between atoms: C_2  and  C_8
REMARK    3  A    between atoms: C_4  and  O_5
REMARK    4  A    between atoms: C_8  and  O_9
REMARK                            x       y       z     vdW  Elec       q    Type
REMARK                         _______ _______ _______ _____ _____    ______ ____
ROOT
ATOM      1  C   UNL     1      35.319 -18.298 -22.125  0.00  0.00    +0.089 C 
ATOM      2  C   UNL     1      34.798 -18.372 -23.356  0.00  0.00    +0.088 C 
ENDROOT
BRANCH   1   4
ATOM      3  O   UNL     1      35.826 -19.767 -20.291  0.00  0.00    -0.245 OA
ATOM      4  C   UNL     1      35.055 -19.388 -21.159  0.00  0.00    +0.342 C 
BRANCH   4   5
ATOM      5  O   UNL     1      33.811 -19.875 -21.416  0.00  0.00    -0.441 OA
ATOM      6  C   UNL     1      33.094 -20.362 -20.278  0.00  0.00    +0.256 C 
ENDBRANCH   4   5
ENDBRANCH   1   4
BRANCH   2   8
ATOM      7  O   UNL     1      34.641 -17.477 -25.549  0.00  0.00    -0.245 OA
ATOM      8  C   UNL     1      35.005 -17.337 -24.390  0.00  0.00    +0.338 C 
BRANCH   8   9
ATOM      9  O   UNL     1      35.632 -16.238 -23.918  0.00  0.00    -0.477 OA
ATOM     10  H   UNL     1      35.376 -15.388 -24.217  0.00  0.00    +0.295 HD
ENDBRANCH   8   9
ENDBRANCH   2   8
TORSDOF 4
ENDMDL
MODEL 9
REMARK VINA RESULT:      -4.9      9.100      9.485
REMARK  Name = 5369209
REMARK  4 active torsions:
REMARK  status: ('A' for Active; 'I' for Inactive)
REMARK    1  A    between atoms: C_1  and  C_4
REMARK    2  A    between atoms: C_2  and  C_8
REMARK    3  A    between atoms: C_4  and  O_5
REMARK    4  A    between atoms: C_8  and  O_9
REMARK                            x       y       z     vdW  Elec       q    Type
REMARK                         _______ _______ _______ _____ _____    ______ ____
ROOT
ATOM      1  C   UNL     1      34.886 -20.878 -19.972  0.00  0.00    +0.089 C 
ATOM      2  C   UNL     1      34.152 -19.997 -20.664  0.00  0.00    +0.088 C 
ENDROOT
BRANCH   1   4
ATOM      3  O   UNL     1      33.060 -22.349 -19.438  0.00  0.00    -0.245 OA
ATOM      4  C   UNL     1      34.207 -21.974 -19.244  0.00  0.00    +0.342 C 
BRANCH   4   5
ATOM      5  O   UNL     1      35.088 -22.476 -18.339  0.00  0.00    -0.441 OA
ATOM      6  C   UNL     1      36.338 -21.784 -18.248  0.00  0.00    +0.256 C 
ENDBRANCH   4   5
ENDBRANCH   1   4
BRANCH   2   8
ATOM      7  O   UNL     1      34.468 -18.655 -22.595  0.00  0.00    -0.245 OA
ATOM      8  C   UNL     1      34.735 -18.872 -21.422  0.00  0.00    +0.338 C 
BRANCH   8   9
ATOM      9  O   UNL     1      35.583 -18.122 -20.685  0.00  0.00    -0.477 OA
ATOM     10  H   UNL     1      35.857 -18.419 -19.840  0.00  0.00    +0.295 HD
ENDBRANCH   8   9
ENDBRANCH   2   8
TORSDOF 4
ENDMDL
