MODEL 1
REMARK VINA RESULT:     -11.1      0.000      0.000
REMARK  Name = 1948
REMARK  7 active torsions:
REMARK  status: ('A' for Active; 'I' for Inactive)
REMARK    1  A    between atoms: C_1  and  N_7
REMARK    2  A    between atoms: C_4  and  S_19
REMARK    3  A    between atoms: C_8  and  C_13
REMARK    4  A    between atoms: S_19  and  N_22
REMARK    5  A    between atoms: N_22  and  C_24
REMARK    6  A    between atoms: C_24  and  C_26
REMARK    7  A    between atoms: C_26  and  O_27
REMARK                            x       y       z     vdW  Elec       q    Type
REMARK                         _______ _______ _______ _____ _____    ______ ____
ROOT
ATOM      1  C   UNL     1      35.857 -22.012 -17.717  0.00  0.00    +0.048 C 
ATOM      2  C   UNL     1      34.805 -22.756 -17.149  0.00  0.00    +0.016 C 
ATOM      3  C   UNL     1      37.095 -21.995 -17.048  0.00  0.00    +0.016 C 
ATOM      4  C   UNL     1      36.221 -23.428 -15.310  0.00  0.00    +0.122 C 
ATOM      5  C   UNL     1      34.985 -23.458 -15.956  0.00  0.00    +0.021 C 
ATOM      6  C   UNL     1      37.275 -22.696 -15.855  0.00  0.00    +0.021 C 
ENDROOT
BRANCH   1   7
ATOM      7  N   UNL     1      35.676 -21.307 -18.914  0.00  0.00    -0.307 N 
ATOM      8  C   UNL     1      35.255 -19.977 -21.450  0.00  0.00    +0.026 C 
ATOM      9  C   UNL     1      34.106 -20.194 -20.452  0.00  0.00    +0.026 C 
ATOM     10  C   UNL     1      36.581 -19.855 -20.685  0.00  0.00    +0.026 C 
ATOM     11  C   UNL     1      34.364 -21.413 -19.567  0.00  0.00    +0.091 C 
ATOM     12  C   UNL     1      36.826 -21.072 -19.793  0.00  0.00    +0.091 C 
BRANCH   8  13
ATOM     13  C   UNL     1      35.006 -18.786 -22.356  0.00  0.00    -0.022 C 
ATOM     14  C   UNL     1      34.850 -18.979 -23.728  0.00  0.00    -0.004 C 
ATOM     15  C   UNL     1      34.935 -17.504 -21.815  0.00  0.00    -0.004 C 
ATOM     16  C   UNL     1      34.621 -17.883 -24.561  0.00  0.00    -0.000 C 
ATOM     17  C   UNL     1      34.707 -16.409 -22.648  0.00  0.00    -0.000 C 
ATOM     18  C   UNL     1      34.550 -16.600 -24.022  0.00  0.00    -0.000 C 
ENDBRANCH   8  13
ENDBRANCH   1   7
BRANCH   4  19
ATOM     19  S   UNL     1      36.446 -24.305 -13.817  0.00  0.00    +0.061 S 
ATOM     20  O   UNL     1      35.630 -23.685 -12.781  0.00  0.00    -0.153 OA
ATOM     21  O   UNL     1      36.277 -25.723 -14.105  0.00  0.00    -0.153 OA
BRANCH  19  22
ATOM     22  N   UNL     1      38.092 -24.013 -13.464  0.00  0.00    -0.168 NA
ATOM     23  H   UNL     1      38.117 -23.462 -12.605  0.00  0.00    +0.149 HD
BRANCH  22  24
ATOM     24  C   UNL     1      39.011 -25.143 -13.269  0.00  0.00    +0.200 C 
BRANCH  24  26
ATOM     25  O   UNL     1      40.975 -24.937 -14.689  0.00  0.00    -0.249 OA
ATOM     26  C   UNL     1      39.827 -25.318 -14.514  0.00  0.00    +0.332 C 
BRANCH  26  27
ATOM     27  O   UNL     1      39.102 -25.977 -15.455  0.00  0.00    -0.479 OA
ATOM     28  H   UNL     1      39.328 -26.856 -15.689  0.00  0.00    +0.295 HD
ENDBRANCH  26  27
ENDBRANCH  24  26
ENDBRANCH  22  24
ENDBRANCH  19  22
ENDBRANCH   4  19
TORSDOF 7
ENDMDL
MODEL 2
REMARK VINA RESULT:     -10.6      4.146      6.183
REMARK  Name = 1948
REMARK  7 active torsions:
REMARK  status: ('A' for Active; 'I' for Inactive)
REMARK    1  A    between atoms: C_1  and  N_7
REMARK    2  A    between atoms: C_4  and  S_19
REMARK    3  A    between atoms: C_8  and  C_13
REMARK    4  A    between atoms: S_19  and  N_22
REMARK    5  A    between atoms: N_22  and  C_24
REMARK    6  A    between atoms: C_24  and  C_26
REMARK    7  A    between atoms: C_26  and  O_27
REMARK                            x       y       z     vdW  Elec       q    Type
REMARK                         _______ _______ _______ _____ _____    ______ ____
ROOT
ATOM      1  C   UNL     1      34.116 -19.103 -21.115  0.00  0.00    +0.048 C 
ATOM      2  C   UNL     1      32.879 -19.623 -20.690  0.00  0.00    +0.016 C 
ATOM      3  C   UNL     1      35.289 -19.787 -20.740  0.00  0.00    +0.016 C 
ATOM      4  C   UNL     1      33.990 -21.447 -19.558  0.00  0.00    +0.122 C 
ATOM      5  C   UNL     1      32.816 -20.785 -19.918  0.00  0.00    +0.021 C 
ATOM      6  C   UNL     1      35.226 -20.948 -19.968  0.00  0.00    +0.021 C 
ENDROOT
BRANCH   1   7
ATOM      7  N   UNL     1      34.179 -17.937 -21.888  0.00  0.00    -0.307 N 
ATOM      8  C   UNL     1      34.459 -15.534 -23.477  0.00  0.00    +0.026 C 
ATOM      9  C   UNL     1      34.562 -16.933 -24.105  0.00  0.00    +0.026 C 
ATOM     10  C   UNL     1      33.532 -15.589 -22.254  0.00  0.00    +0.026 C 
ATOM     11  C   UNL     1      35.035 -17.965 -23.082  0.00  0.00    +0.091 C 
ATOM     12  C   UNL     1      34.005 -16.632 -21.241  0.00  0.00    +0.091 C 
BRANCH   8  13
ATOM     13  C   UNL     1      34.016 -14.488 -24.483  0.00  0.00    -0.022 C 
ATOM     14  C   UNL     1      34.022 -13.140 -24.130  0.00  0.00    -0.004 C 
ATOM     15  C   UNL     1      33.605 -14.879 -25.756  0.00  0.00    -0.004 C 
ATOM     16  C   UNL     1      33.614 -12.178 -25.055  0.00  0.00    -0.000 C 
ATOM     17  C   UNL     1      33.197 -13.918 -26.680  0.00  0.00    -0.000 C 
ATOM     18  C   UNL     1      33.201 -12.567 -26.329  0.00  0.00    -0.000 C 
ENDBRANCH   8  13
ENDBRANCH   1   7
BRANCH   4  19
ATOM     19  S   UNL     1      33.911 -22.899 -18.593  0.00  0.00    +0.061 S 
ATOM     20  O   UNL     1      33.933 -24.054 -19.481  0.00  0.00    -0.153 OA
ATOM     21  O   UNL     1      34.912 -22.789 -17.540  0.00  0.00    -0.153 OA
BRANCH  19  22
ATOM     22  N   UNL     1      32.360 -22.786 -17.884  0.00  0.00    -0.168 NA
ATOM     23  H   UNL     1      31.731 -23.349 -18.456  0.00  0.00    +0.149 HD
BRANCH  22  24
ATOM     24  C   UNL     1      32.159 -23.209 -16.491  0.00  0.00    +0.200 C 
BRANCH  24  26
ATOM     25  O   UNL     1      30.124 -23.884 -15.343  0.00  0.00    -0.249 OA
ATOM     26  C   UNL     1      30.689 -23.219 -16.200  0.00  0.00    +0.332 C 
BRANCH  26  27
ATOM     27  O   UNL     1      30.045 -22.366 -17.036  0.00  0.00    -0.479 OA
ATOM     28  H   UNL     1      30.350 -22.253 -17.915  0.00  0.00    +0.295 HD
ENDBRANCH  26  27
ENDBRANCH  24  26
ENDBRANCH  22  24
ENDBRANCH  19  22
ENDBRANCH   4  19
TORSDOF 7
ENDMDL
MODEL 3
REMARK VINA RESULT:     -10.5      1.386      2.030
REMARK  Name = 1948
REMARK  7 active torsions:
REMARK  status: ('A' for Active; 'I' for Inactive)
REMARK    1  A    between atoms: C_1  and  N_7
REMARK    2  A    between atoms: C_4  and  S_19
REMARK    3  A    between atoms: C_8  and  C_13
REMARK    4  A    between atoms: S_19  and  N_22
REMARK    5  A    between atoms: N_22  and  C_24
REMARK    6  A    between atoms: C_24  and  C_26
REMARK    7  A    between atoms: C_26  and  O_27
REMARK                            x       y       z     vdW  Elec       q    Type
REMARK                         _______ _______ _______ _____ _____    ______ ____
ROOT
ATOM      1  C   UNL     1      35.602 -21.677 -18.294  0.00  0.00    +0.048 C 
ATOM      2  C   UNL     1      36.804 -21.666 -17.560  0.00  0.00    +0.016 C 
ATOM      3  C   UNL     1      34.541 -22.471 -17.819  0.00  0.00    +0.016 C 
ATOM      4  C   UNL     1      35.875 -23.202 -15.942  0.00  0.00    +0.122 C 
ATOM      5  C   UNL     1      36.940 -22.422 -16.395  0.00  0.00    +0.021 C 
ATOM      6  C   UNL     1      34.677 -23.227 -16.653  0.00  0.00    +0.021 C 
ENDROOT
BRANCH   1   7
ATOM      7  N   UNL     1      35.466 -20.919 -19.464  0.00  0.00    -0.307 N 
ATOM      8  C   UNL     1      35.146 -19.478 -21.954  0.00  0.00    +0.026 C 
ATOM      9  C   UNL     1      33.951 -19.780 -21.037  0.00  0.00    +0.026 C 
ATOM     10  C   UNL     1      36.422 -19.353 -21.107  0.00  0.00    +0.026 C 
ATOM     11  C   UNL     1      34.199 -21.033 -20.197  0.00  0.00    +0.091 C 
ATOM     12  C   UNL     1      36.657 -20.606 -20.262  0.00  0.00    +0.091 C 
BRANCH   8  13
ATOM     13  C   UNL     1      34.909 -18.253 -22.815  0.00  0.00    -0.022 C 
ATOM     14  C   UNL     1      34.865 -16.990 -22.227  0.00  0.00    -0.004 C 
ATOM     15  C   UNL     1      34.736 -18.393 -24.190  0.00  0.00    -0.004 C 
ATOM     16  C   UNL     1      34.646 -15.862 -23.020  0.00  0.00    -0.000 C 
ATOM     17  C   UNL     1      34.518 -17.266 -24.982  0.00  0.00    -0.000 C 
ATOM     18  C   UNL     1      34.473 -16.000 -24.396  0.00  0.00    -0.000 C 
ENDBRANCH   8  13
ENDBRANCH   1   7
BRANCH   4  19
ATOM     19  S   UNL     1      36.045 -24.148 -14.484  0.00  0.00    +0.061 S 
ATOM     20  O   UNL     1      35.339 -23.473 -13.403  0.00  0.00    -0.153 OA
ATOM     21  O   UNL     1      35.707 -25.527 -14.807  0.00  0.00    -0.153 OA
BRANCH  19  22
ATOM     22  N   UNL     1      37.725 -24.056 -14.180  0.00  0.00    -0.168 NA
ATOM     23  H   UNL     1      37.881 -23.207 -13.636  0.00  0.00    +0.149 HD
BRANCH  22  24
ATOM     24  C   UNL     1      38.400 -25.148 -13.464  0.00  0.00    +0.200 C 
BRANCH  24  26
ATOM     25  O   UNL     1      37.806 -24.602 -11.170  0.00  0.00    -0.249 OA
ATOM     26  C   UNL     1      37.727 -25.342 -12.140  0.00  0.00    +0.332 C 
BRANCH  26  27
ATOM     27  O   UNL     1      36.992 -26.484 -12.156  0.00  0.00    -0.479 OA
ATOM     28  H   UNL     1      37.196 -27.179 -11.561  0.00  0.00    +0.295 HD
ENDBRANCH  26  27
ENDBRANCH  24  26
ENDBRANCH  22  24
ENDBRANCH  19  22
ENDBRANCH   4  19
TORSDOF 7
ENDMDL
MODEL 4
REMARK VINA RESULT:     -10.4      3.018      5.014
REMARK  Name = 1948
REMARK  7 active torsions:
REMARK  status: ('A' for Active; 'I' for Inactive)
REMARK    1  A    between atoms: C_1  and  N_7
REMARK    2  A    between atoms: C_4  and  S_19
REMARK    3  A    between atoms: C_8  and  C_13
REMARK    4  A    between atoms: S_19  and  N_22
REMARK    5  A    between atoms: N_22  and  C_24
REMARK    6  A    between atoms: C_24  and  C_26
REMARK    7  A    between atoms: C_26  and  O_27
REMARK                            x       y       z     vdW  Elec       q    Type
REMARK                         _______ _______ _______ _____ _____    ______ ____
ROOT
ATOM      1  C   UNL     1      34.103 -19.129 -21.073  0.00  0.00    +0.048 C 
ATOM      2  C   UNL     1      32.867 -19.619 -20.608  0.00  0.00    +0.016 C 
ATOM      3  C   UNL     1      35.271 -19.830 -20.716  0.00  0.00    +0.016 C 
ATOM      4  C   UNL     1      33.972 -21.446 -19.477  0.00  0.00    +0.122 C 
ATOM      5  C   UNL     1      32.802 -20.767 -19.817  0.00  0.00    +0.021 C 
ATOM      6  C   UNL     1      35.206 -20.978 -19.925  0.00  0.00    +0.021 C 
ENDROOT
BRANCH   1   7
ATOM      7  N   UNL     1      34.168 -17.977 -21.865  0.00  0.00    -0.307 N 
ATOM      8  C   UNL     1      34.452 -15.603 -23.498  0.00  0.00    +0.026 C 
ATOM      9  C   UNL     1      34.515 -17.014 -24.106  0.00  0.00    +0.026 C 
ATOM     10  C   UNL     1      33.555 -15.623 -22.252  0.00  0.00    +0.026 C 
ATOM     11  C   UNL     1      34.994 -18.039 -23.079  0.00  0.00    +0.091 C 
ATOM     12  C   UNL     1      34.033 -16.659 -21.234  0.00  0.00    +0.091 C 
BRANCH   8  13
ATOM     13  C   UNL     1      34.004 -14.566 -24.509  0.00  0.00    -0.022 C 
ATOM     14  C   UNL     1      34.027 -13.213 -24.172  0.00  0.00    -0.004 C 
ATOM     15  C   UNL     1      33.571 -14.967 -25.771  0.00  0.00    -0.004 C 
ATOM     16  C   UNL     1      33.614 -12.258 -25.102  0.00  0.00    -0.000 C 
ATOM     17  C   UNL     1      33.158 -14.012 -26.701  0.00  0.00    -0.000 C 
ATOM     18  C   UNL     1      33.179 -12.658 -26.365  0.00  0.00    -0.000 C 
ENDBRANCH   8  13
ENDBRANCH   1   7
BRANCH   4  19
ATOM     19  S   UNL     1      33.891 -22.882 -18.487  0.00  0.00    +0.061 S 
ATOM     20  O   UNL     1      32.779 -22.747 -17.555  0.00  0.00    -0.153 OA
ATOM     21  O   UNL     1      33.943 -24.037 -19.373  0.00  0.00    -0.153 OA
BRANCH  19  22
ATOM     22  N   UNL     1      35.353 -22.805 -17.606  0.00  0.00    -0.168 NA
ATOM     23  H   UNL     1      35.830 -21.952 -17.899  0.00  0.00    +0.149 HD
BRANCH  22  24
ATOM     24  C   UNL     1      35.323 -22.791 -16.136  0.00  0.00    +0.200 C 
BRANCH  24  26
ATOM     25  O   UNL     1      37.556 -22.560 -15.201  0.00  0.00    -0.249 OA
ATOM     26  C   UNL     1      36.650 -23.263 -15.625  0.00  0.00    +0.332 C 
BRANCH  26  27
ATOM     27  O   UNL     1      36.719 -24.617 -15.694  0.00  0.00    -0.479 OA
ATOM     28  H   UNL     1      37.167 -25.097 -15.025  0.00  0.00    +0.295 HD
ENDBRANCH  26  27
ENDBRANCH  24  26
ENDBRANCH  22  24
ENDBRANCH  19  22
ENDBRANCH   4  19
TORSDOF 7
ENDMDL
MODEL 5
REMARK VINA RESULT:     -10.2      6.996     10.071
REMARK  Name = 1948
REMARK  7 active torsions:
REMARK  status: ('A' for Active; 'I' for Inactive)
REMARK    1  A    between atoms: C_1  and  N_7
REMARK    2  A    between atoms: C_4  and  S_19
REMARK    3  A    between atoms: C_8  and  C_13
REMARK    4  A    between atoms: S_19  and  N_22
REMARK    5  A    between atoms: N_22  and  C_24
REMARK    6  A    between atoms: C_24  and  C_26
REMARK    7  A    between atoms: C_26  and  O_27
REMARK                            x       y       z     vdW  Elec       q    Type
REMARK                         _______ _______ _______ _____ _____    ______ ____
ROOT
ATOM      1  C   UNL     1      33.744 -14.342 -22.496  0.00  0.00    +0.048 C 
ATOM      2  C   UNL     1      33.999 -14.934 -21.243  0.00  0.00    +0.016 C 
ATOM      3  C   UNL     1      34.040 -15.087 -23.654  0.00  0.00    +0.016 C 
ATOM      4  C   UNL     1      34.812 -16.942 -22.314  0.00  0.00    +0.122 C 
ATOM      5  C   UNL     1      34.528 -16.222 -21.153  0.00  0.00    +0.021 C 
ATOM      6  C   UNL     1      34.569 -16.375 -23.564  0.00  0.00    +0.021 C 
ENDROOT
BRANCH   1   7
ATOM      7  N   UNL     1      33.214 -13.049 -22.587  0.00  0.00    -0.307 N 
ATOM      8  C   UNL     1      31.990 -10.437 -22.818  0.00  0.00    +0.026 C 
ATOM      9  C   UNL     1      31.821 -11.298 -21.557  0.00  0.00    +0.026 C 
ATOM     10  C   UNL     1      33.337 -10.758 -23.481  0.00  0.00    +0.026 C 
ATOM     11  C   UNL     1      31.954 -12.786 -21.880  0.00  0.00    +0.091 C 
ATOM     12  C   UNL     1      33.468 -12.250 -23.790  0.00  0.00    +0.091 C 
BRANCH   8  13
ATOM     13  C   UNL     1      31.835  -8.957 -22.524  0.00  0.00    -0.022 C 
ATOM     14  C   UNL     1      32.323  -8.433 -21.328  0.00  0.00    -0.004 C 
ATOM     15  C   UNL     1      31.206  -8.126 -23.448  0.00  0.00    -0.004 C 
ATOM     16  C   UNL     1      32.180  -7.072 -21.056  0.00  0.00    -0.000 C 
ATOM     17  C   UNL     1      31.064  -6.766 -23.177  0.00  0.00    -0.000 C 
ATOM     18  C   UNL     1      31.551  -6.239 -21.980  0.00  0.00    -0.000 C 
ENDBRANCH   8  13
ENDBRANCH   1   7
BRANCH   4  19
ATOM     19  S   UNL     1      35.475 -18.553 -22.200  0.00  0.00    +0.061 S 
ATOM     20  O   UNL     1      34.825 -19.399 -23.194  0.00  0.00    -0.153 OA
ATOM     21  O   UNL     1      36.927 -18.439 -22.201  0.00  0.00    -0.153 OA
BRANCH  19  22
ATOM     22  N   UNL     1      34.969 -19.051 -20.646  0.00  0.00    -0.168 NA
ATOM     23  H   UNL     1      34.091 -18.568 -20.452  0.00  0.00    +0.149 HD
BRANCH  22  24
ATOM     24  C   UNL     1      34.737 -20.476 -20.372  0.00  0.00    +0.200 C 
BRANCH  24  26
ATOM     25  O   UNL     1      32.382 -19.871 -20.350  0.00  0.00    -0.249 OA
ATOM     26  C   UNL     1      33.268 -20.695 -20.176  0.00  0.00    +0.332 C 
BRANCH  26  27
ATOM     27  O   UNL     1      33.039 -21.970 -19.770  0.00  0.00    -0.479 OA
ATOM     28  H   UNL     1      32.185 -22.220 -19.473  0.00  0.00    +0.295 HD
ENDBRANCH  26  27
ENDBRANCH  24  26
ENDBRANCH  22  24
ENDBRANCH  19  22
ENDBRANCH   4  19
TORSDOF 7
ENDMDL
MODEL 6
REMARK VINA RESULT:      -9.9      5.533      6.711
REMARK  Name = 1948
REMARK  7 active torsions:
REMARK  status: ('A' for Active; 'I' for Inactive)
REMARK    1  A    between atoms: C_1  and  N_7
REMARK    2  A    between atoms: C_4  and  S_19
REMARK    3  A    between atoms: C_8  and  C_13
REMARK    4  A    between atoms: S_19  and  N_22
REMARK    5  A    between atoms: N_22  and  C_24
REMARK    6  A    between atoms: C_24  and  C_26
REMARK    7  A    between atoms: C_26  and  O_27
REMARK                            x       y       z     vdW  Elec       q    Type
REMARK                         _______ _______ _______ _____ _____    ______ ____
ROOT
ATOM      1  C   UNL     1      33.953 -23.759 -14.125  0.00  0.00    +0.048 C 
ATOM      2  C   UNL     1      34.133 -24.320 -12.846  0.00  0.00    +0.016 C 
ATOM      3  C   UNL     1      35.091 -23.295 -14.813  0.00  0.00    +0.016 C 
ATOM      4  C   UNL     1      36.518 -23.949 -12.976  0.00  0.00    +0.122 C 
ATOM      5  C   UNL     1      35.404 -24.414 -12.276  0.00  0.00    +0.021 C 
ATOM      6  C   UNL     1      36.362 -23.389 -14.243  0.00  0.00    +0.021 C 
ENDROOT
BRANCH   1   7
ATOM      7  N   UNL     1      32.678 -23.664 -14.696  0.00  0.00    -0.307 N 
ATOM      8  C   UNL     1      30.037 -23.615 -15.879  0.00  0.00    +0.026 C 
ATOM      9  C   UNL     1      30.240 -23.767 -14.363  0.00  0.00    +0.026 C 
ATOM     10  C   UNL     1      31.202 -22.810 -16.473  0.00  0.00    +0.026 C 
ATOM     11  C   UNL     1      31.591 -24.407 -14.047  0.00  0.00    +0.091 C 
ATOM     12  C   UNL     1      32.550 -23.450 -16.142  0.00  0.00    +0.091 C 
BRANCH   8  13
ATOM     13  C   UNL     1      28.690 -23.005 -16.216  0.00  0.00    -0.022 C 
ATOM     14  C   UNL     1      27.898 -22.467 -15.203  0.00  0.00    -0.004 C 
ATOM     15  C   UNL     1      28.247 -22.985 -17.537  0.00  0.00    -0.004 C 
ATOM     16  C   UNL     1      26.659 -21.906 -15.513  0.00  0.00    -0.000 C 
ATOM     17  C   UNL     1      27.008 -22.425 -17.847  0.00  0.00    -0.000 C 
ATOM     18  C   UNL     1      26.214 -21.886 -16.834  0.00  0.00    -0.000 C 
ENDBRANCH   8  13
ENDBRANCH   1   7
BRANCH   4  19
ATOM     19  S   UNL     1      38.107 -24.066 -12.263  0.00  0.00    +0.061 S 
ATOM     20  O   UNL     1      38.493 -22.754 -11.760  0.00  0.00    -0.153 OA
ATOM     21  O   UNL     1      38.105 -25.206 -11.355  0.00  0.00    -0.153 OA
BRANCH  19  22
ATOM     22  N   UNL     1      39.087 -24.445 -13.610  0.00  0.00    -0.168 NA
ATOM     23  H   UNL     1      40.055 -24.299 -13.322  0.00  0.00    +0.149 HD
BRANCH  22  24
ATOM     24  C   UNL     1      39.021 -25.785 -14.210  0.00  0.00    +0.200 C 
BRANCH  24  26
ATOM     25  O   UNL     1      41.293 -26.640 -14.060  0.00  0.00    -0.249 OA
ATOM     26  C   UNL     1      40.383 -26.153 -14.715  0.00  0.00    +0.332 C 
BRANCH  26  27
ATOM     27  O   UNL     1      40.480 -25.867 -16.039  0.00  0.00    -0.479 OA
ATOM     28  H   UNL     1      41.086 -25.215 -16.333  0.00  0.00    +0.295 HD
ENDBRANCH  26  27
ENDBRANCH  24  26
ENDBRANCH  22  24
ENDBRANCH  19  22
ENDBRANCH   4  19
TORSDOF 7
ENDMDL
MODEL 7
REMARK VINA RESULT:      -9.7      8.072     11.205
REMARK  Name = 1948
REMARK  7 active torsions:
REMARK  status: ('A' for Active; 'I' for Inactive)
REMARK    1  A    between atoms: C_1  and  N_7
REMARK    2  A    between atoms: C_4  and  S_19
REMARK    3  A    between atoms: C_8  and  C_13
REMARK    4  A    between atoms: S_19  and  N_22
REMARK    5  A    between atoms: N_22  and  C_24
REMARK    6  A    between atoms: C_24  and  C_26
REMARK    7  A    between atoms: C_26  and  O_27
REMARK                            x       y       z     vdW  Elec       q    Type
REMARK                         _______ _______ _______ _____ _____    ______ ____
ROOT
ATOM      1  C   UNL     1      33.256 -13.605 -22.227  0.00  0.00    +0.048 C 
ATOM      2  C   UNL     1      32.745 -14.426 -21.203  0.00  0.00    +0.016 C 
ATOM      3  C   UNL     1      34.256 -14.134 -23.066  0.00  0.00    +0.016 C 
ATOM      4  C   UNL     1      34.208 -16.231 -21.868  0.00  0.00    +0.122 C 
ATOM      5  C   UNL     1      33.218 -15.727 -21.025  0.00  0.00    +0.021 C 
ATOM      6  C   UNL     1      34.728 -15.435 -22.887  0.00  0.00    +0.021 C 
ENDROOT
BRANCH   1   7
ATOM      7  N   UNL     1      32.783 -12.299 -22.406  0.00  0.00    -0.307 N 
ATOM      8  C   UNL     1      31.674  -9.657 -22.814  0.00  0.00    +0.026 C 
ATOM      9  C   UNL     1      31.479 -10.419 -21.493  0.00  0.00    +0.026 C 
ATOM     10  C   UNL     1      33.000 -10.084 -23.460  0.00  0.00    +0.026 C 
ATOM     11  C   UNL     1      31.542 -11.930 -21.712  0.00  0.00    +0.091 C 
ATOM     12  C   UNL     1      33.061 -11.598 -23.664  0.00  0.00    +0.091 C 
BRANCH   8  13
ATOM     13  C   UNL     1      31.588  -8.155 -22.623  0.00  0.00    -0.022 C 
ATOM     14  C   UNL     1      31.088  -7.352 -23.647  0.00  0.00    -0.004 C 
ATOM     15  C   UNL     1      32.011  -7.581 -21.426  0.00  0.00    -0.004 C 
ATOM     16  C   UNL     1      31.010  -5.970 -23.472  0.00  0.00    -0.000 C 
ATOM     17  C   UNL     1      31.933  -6.199 -21.251  0.00  0.00    -0.000 C 
ATOM     18  C   UNL     1      31.432  -5.394 -22.275  0.00  0.00    -0.000 C 
ENDBRANCH   8  13
ENDBRANCH   1   7
BRANCH   4  19
ATOM     19  S   UNL     1      34.799 -17.859 -21.644  0.00  0.00    +0.061 S 
ATOM     20  O   UNL     1      35.772 -17.859 -20.559  0.00  0.00    -0.153 OA
ATOM     21  O   UNL     1      33.645 -18.745 -21.568  0.00  0.00    -0.153 OA
BRANCH  19  22
ATOM     22  N   UNL     1      35.620 -18.157 -23.113  0.00  0.00    -0.168 NA
ATOM     23  H   UNL     1      36.514 -18.584 -22.870  0.00  0.00    +0.149 HD
BRANCH  22  24
ATOM     24  C   UNL     1      35.004 -19.015 -24.135  0.00  0.00    +0.200 C 
BRANCH  24  26
ATOM     25  O   UNL     1      34.997 -17.148 -25.693  0.00  0.00    -0.249 OA
ATOM     26  C   UNL     1      34.464 -18.146 -25.230  0.00  0.00    +0.332 C 
BRANCH  26  27
ATOM     27  O   UNL     1      33.268 -18.626 -25.656  0.00  0.00    -0.479 OA
ATOM     28  H   UNL     1      32.825 -19.287 -25.160  0.00  0.00    +0.295 HD
ENDBRANCH  26  27
ENDBRANCH  24  26
ENDBRANCH  22  24
ENDBRANCH  19  22
ENDBRANCH   4  19
TORSDOF 7
ENDMDL
MODEL 8
REMARK VINA RESULT:      -9.3     10.526     14.179
REMARK  Name = 1948
REMARK  7 active torsions:
REMARK  status: ('A' for Active; 'I' for Inactive)
REMARK    1  A    between atoms: C_1  and  N_7
REMARK    2  A    between atoms: C_4  and  S_19
REMARK    3  A    between atoms: C_8  and  C_13
REMARK    4  A    between atoms: S_19  and  N_22
REMARK    5  A    between atoms: N_22  and  C_24
REMARK    6  A    between atoms: C_24  and  C_26
REMARK    7  A    between atoms: C_26  and  O_27
REMARK                            x       y       z     vdW  Elec       q    Type
REMARK                         _______ _______ _______ _____ _____    ______ ____
ROOT
ATOM      1  C   UNL     1      32.952 -12.567 -22.712  0.00  0.00    +0.048 C 
ATOM      2  C   UNL     1      31.941 -11.891 -22.001  0.00  0.00    +0.016 C 
ATOM      3  C   UNL     1      33.684 -11.845 -23.674  0.00  0.00    +0.016 C 
ATOM      4  C   UNL     1      32.412  -9.846 -23.200  0.00  0.00    +0.122 C 
ATOM      5  C   UNL     1      31.674 -10.543 -22.243  0.00  0.00    +0.021 C 
ATOM      6  C   UNL     1      33.416 -10.497 -23.916  0.00  0.00    +0.021 C 
ENDROOT
BRANCH   1   7
ATOM      7  N   UNL     1      33.220 -13.920 -22.470  0.00  0.00    -0.307 N 
ATOM      8  C   UNL     1      33.701 -16.750 -22.097  0.00  0.00    +0.026 C 
ATOM      9  C   UNL     1      34.607 -15.888 -22.991  0.00  0.00    +0.026 C 
ATOM     10  C   UNL     1      33.105 -15.879 -20.981  0.00  0.00    +0.026 C 
ATOM     11  C   UNL     1      33.848 -14.687 -23.554  0.00  0.00    +0.091 C 
ATOM     12  C   UNL     1      32.358 -14.673 -21.552  0.00  0.00    +0.091 C 
BRANCH   8  13
ATOM     13  C   UNL     1      34.428 -17.963 -21.548  0.00  0.00    -0.022 C 
ATOM     14  C   UNL     1      35.822 -17.980 -21.513  0.00  0.00    -0.004 C 
ATOM     15  C   UNL     1      33.702 -19.056 -21.081  0.00  0.00    -0.004 C 
ATOM     16  C   UNL     1      36.491 -19.095 -21.009  0.00  0.00    -0.000 C 
ATOM     17  C   UNL     1      34.371 -20.171 -20.577  0.00  0.00    -0.000 C 
ATOM     18  C   UNL     1      35.766 -20.191 -20.542  0.00  0.00    -0.000 C 
ENDBRANCH   8  13
ENDBRANCH   1   7
BRANCH   4  19
ATOM     19  S   UNL     1      32.077  -8.160 -23.503  0.00  0.00    +0.061 S 
ATOM     20  O   UNL     1      33.293  -7.520 -23.988  0.00  0.00    -0.153 OA
ATOM     21  O   UNL     1      30.863  -8.085 -24.305  0.00  0.00    -0.153 OA
BRANCH  19  22
ATOM     22  N   UNL     1      31.734  -7.567 -21.938  0.00  0.00    -0.168 NA
ATOM     23  H   UNL     1      32.228  -8.168 -21.278  0.00  0.00    +0.149 HD
BRANCH  22  24
ATOM     24  C   UNL     1      32.078  -6.181 -21.588  0.00  0.00    +0.200 C 
BRANCH  24  26
ATOM     25  O   UNL     1      30.011  -4.968 -22.004  0.00  0.00    -0.249 OA
ATOM     26  C   UNL     1      31.155  -5.257 -22.323  0.00  0.00    +0.332 C 
BRANCH  26  27
ATOM     27  O   UNL     1      31.775  -4.764 -23.426  0.00  0.00    -0.479 OA
ATOM     28  H   UNL     1      32.680  -4.953 -23.579  0.00  0.00    +0.295 HD
ENDBRANCH  26  27
ENDBRANCH  24  26
ENDBRANCH  22  24
ENDBRANCH  19  22
ENDBRANCH   4  19
TORSDOF 7
ENDMDL
MODEL 9
REMARK VINA RESULT:      -9.3     10.534     14.089
REMARK  Name = 1948
REMARK  7 active torsions:
REMARK  status: ('A' for Active; 'I' for Inactive)
REMARK    1  A    between atoms: C_1  and  N_7
REMARK    2  A    between atoms: C_4  and  S_19
REMARK    3  A    between atoms: C_8  and  C_13
REMARK    4  A    between atoms: S_19  and  N_22
REMARK    5  A    between atoms: N_22  and  C_24
REMARK    6  A    between atoms: C_24  and  C_26
REMARK    7  A    between atoms: C_26  and  O_27
REMARK                            x       y       z     vdW  Elec       q    Type
REMARK                         _______ _______ _______ _____ _____    ______ ____
ROOT
ATOM      1  C   UNL     1      32.651 -10.230 -23.227  0.00  0.00    +0.048 C 
ATOM      2  C   UNL     1      33.580 -11.027 -23.922  0.00  0.00    +0.016 C 
ATOM      3  C   UNL     1      31.909 -10.826 -22.189  0.00  0.00    +0.016 C 
ATOM      4  C   UNL     1      33.017 -12.941 -22.559  0.00  0.00    +0.122 C 
ATOM      5  C   UNL     1      33.762 -12.371 -23.591  0.00  0.00    +0.021 C 
ATOM      6  C   UNL     1      32.090 -12.170 -21.858  0.00  0.00    +0.021 C 
ENDROOT
BRANCH   1   7
ATOM      7  N   UNL     1      32.468  -8.882 -23.560  0.00  0.00    -0.307 N 
ATOM      8  C   UNL     1      32.143  -6.059 -24.114  0.00  0.00    +0.026 C 
ATOM      9  C   UNL     1      33.489  -6.773 -24.320  0.00  0.00    +0.026 C 
ATOM     10  C   UNL     1      30.996  -7.059 -24.322  0.00  0.00    +0.026 C 
ATOM     11  C   UNL     1      33.620  -7.985 -23.399  0.00  0.00    +0.091 C 
ATOM     12  C   UNL     1      31.141  -8.275 -23.405  0.00  0.00    +0.091 C 
BRANCH   8  13
ATOM     13  C   UNL     1      32.003  -4.837 -25.000  0.00  0.00    -0.022 C 
ATOM     14  C   UNL     1      31.082  -3.844 -24.673  0.00  0.00    -0.004 C 
ATOM     15  C   UNL     1      32.795  -4.711 -26.140  0.00  0.00    -0.004 C 
ATOM     16  C   UNL     1      30.953  -2.719 -25.489  0.00  0.00    -0.000 C 
ATOM     17  C   UNL     1      32.667  -3.587 -26.955  0.00  0.00    -0.000 C 
ATOM     18  C   UNL     1      31.744  -2.591 -26.630  0.00  0.00    -0.000 C 
ENDBRANCH   8  13
ENDBRANCH   1   7
BRANCH   4  19
ATOM     19  S   UNL     1      33.244 -14.622 -22.145  0.00  0.00    +0.061 S 
ATOM     20  O   UNL     1      34.501 -14.762 -21.423  0.00  0.00    -0.153 OA
ATOM     21  O   UNL     1      32.012 -15.100 -21.532  0.00  0.00    -0.153 OA
BRANCH  19  22
ATOM     22  N   UNL     1      33.410 -15.359 -23.678  0.00  0.00    -0.168 NA
ATOM     23  H   UNL     1      33.376 -14.610 -24.371  0.00  0.00    +0.149 HD
BRANCH  22  24
ATOM     24  C   UNL     1      34.605 -16.161 -23.979  0.00  0.00    +0.200 C 
BRANCH  24  26
ATOM     25  O   UNL     1      34.647 -17.982 -25.591  0.00  0.00    -0.249 OA
ATOM     26  C   UNL     1      34.421 -16.812 -25.316  0.00  0.00    +0.332 C 
BRANCH  26  27
ATOM     27  O   UNL     1      33.954 -15.907 -26.213  0.00  0.00    -0.479 OA
ATOM     28  H   UNL     1      34.540 -15.281 -26.594  0.00  0.00    +0.295 HD
ENDBRANCH  26  27
ENDBRANCH  24  26
ENDBRANCH  22  24
ENDBRANCH  19  22
ENDBRANCH   4  19
TORSDOF 7
ENDMDL
