MODEL 1
REMARK VINA RESULT:      -8.0      0.000      0.000
REMARK  Name = 19063
REMARK  5 active torsions:
REMARK  status: ('A' for Active; 'I' for Inactive)
REMARK    1  A    between atoms: N_2  and  N_5
REMARK    2  A    between atoms: C_3  and  C_10
REMARK    3  A    between atoms: N_5  and  C_7
REMARK    4  A    between atoms: C_10  and  O_11
REMARK    5  A    between atoms: O_11  and  C_13
REMARK                            x       y       z     vdW  Elec       q    Type
REMARK                         _______ _______ _______ _____ _____    ______ ____
ROOT
ATOM      1  O   UNL     1      34.243 -19.003 -24.948  0.00  0.00    -0.270 OA
ATOM      2  N   UNL     1      35.018 -16.819 -24.742  0.00  0.00    -0.247 N 
ATOM      3  C   UNL     1      34.901 -18.146 -24.364  0.00  0.00    +0.280 C 
ATOM      4  H   UNL     1      35.568 -16.197 -24.215  0.00  0.00    +0.169 HD
ENDROOT
BRANCH   2   5
ATOM      5  N   UNL     1      34.351 -16.380 -25.873  0.00  0.00    -0.231 NA
ATOM      6  H   UNL     1      33.918 -17.178 -26.340  0.00  0.00    +0.145 HD
BRANCH   5   7
ATOM      7  C   UNL     1      33.319 -15.419 -25.510  0.00  0.00    +0.072 C 
ATOM      8  C   UNL     1      33.200 -14.339 -26.581  0.00  0.00    +0.019 C 
ATOM      9  C   UNL     1      33.650 -14.810 -24.150  0.00  0.00    +0.019 C 
ENDBRANCH   5   7
ENDBRANCH   2   5
BRANCH   3  10
ATOM     10  C   UNL     1      35.700 -18.439 -23.112  0.00  0.00    +0.291 C 
BRANCH  10  11
ATOM     11  O   UNL     1      34.929 -18.180 -21.958  0.00  0.00    -0.466 OA
BRANCH  11  13
ATOM     12 CL   UNL     1      33.584 -22.761 -18.541  0.00  0.00    -0.082 Cl
ATOM     13  C   UNL     1      34.614 -19.253 -21.158  0.00  0.00    +0.139 C 
ATOM     14  C   UNL     1      33.285 -19.519 -20.864  0.00  0.00    +0.038 C 
ATOM     15  C   UNL     1      35.631 -20.054 -20.658  0.00  0.00    +0.038 C 
ATOM     16  C   UNL     1      32.965 -20.607 -20.052  0.00  0.00    +0.015 C 
ATOM     17  C   UNL     1      35.312 -21.142 -19.845  0.00  0.00    +0.015 C 
ATOM     18  C   UNL     1      33.978 -21.419 -19.542  0.00  0.00    +0.058 C 
ENDBRANCH  11  13
ENDBRANCH  10  11
ENDBRANCH   3  10
TORSDOF 5
ENDMDL
MODEL 2
REMARK VINA RESULT:      -8.0      5.854      8.668
REMARK  Name = 19063
REMARK  5 active torsions:
REMARK  status: ('A' for Active; 'I' for Inactive)
REMARK    1  A    between atoms: N_2  and  N_5
REMARK    2  A    between atoms: C_3  and  C_10
REMARK    3  A    between atoms: N_5  and  C_7
REMARK    4  A    between atoms: C_10  and  O_11
REMARK    5  A    between atoms: O_11  and  C_13
REMARK                            x       y       z     vdW  Elec       q    Type
REMARK                         _______ _______ _______ _____ _____    ______ ____
ROOT
ATOM      1  O   UNL     1      33.064 -23.634 -15.609  0.00  0.00    -0.270 OA
ATOM      2  N   UNL     1      31.299 -22.783 -16.862  0.00  0.00    -0.247 N 
ATOM      3  C   UNL     1      32.594 -23.229 -16.669  0.00  0.00    +0.280 C 
ATOM      4  H   UNL     1      31.003 -22.474 -17.749  0.00  0.00    +0.169 HD
ENDROOT
BRANCH   2   5
ATOM      5  N   UNL     1      30.422 -22.778 -15.790  0.00  0.00    -0.231 NA
ATOM      6  H   UNL     1      30.086 -21.827 -15.635  0.00  0.00    +0.145 HD
BRANCH   5   7
ATOM      7  C   UNL     1      29.288 -23.650 -16.061  0.00  0.00    +0.072 C 
ATOM      8  C   UNL     1      27.980 -22.874 -15.933  0.00  0.00    +0.019 C 
ATOM      9  C   UNL     1      29.318 -24.835 -15.101  0.00  0.00    +0.019 C 
ENDBRANCH   5   7
ENDBRANCH   2   5
BRANCH   3  10
ATOM     10  C   UNL     1      33.399 -23.165 -17.950  0.00  0.00    +0.291 C 
BRANCH  10  11
ATOM     11  O   UNL     1      32.782 -22.305 -18.884  0.00  0.00    -0.466 OA
BRANCH  11  13
ATOM     12 CL   UNL     1      36.247 -18.557 -21.785  0.00  0.00    -0.082 Cl
ATOM     13  C   UNL     1      33.593 -21.427 -19.563  0.00  0.00    +0.139 C 
ATOM     14  C   UNL     1      33.027 -20.349 -20.228  0.00  0.00    +0.038 C 
ATOM     15  C   UNL     1      34.965 -21.632 -19.572  0.00  0.00    +0.038 C 
ATOM     16  C   UNL     1      33.850 -19.458 -20.918  0.00  0.00    +0.015 C 
ATOM     17  C   UNL     1      35.789 -20.743 -20.262  0.00  0.00    +0.015 C 
ATOM     18  C   UNL     1      35.231 -19.655 -20.935  0.00  0.00    +0.058 C 
ENDBRANCH  11  13
ENDBRANCH  10  11
ENDBRANCH   3  10
TORSDOF 5
ENDMDL
MODEL 3
REMARK VINA RESULT:      -8.0      1.811      2.168
REMARK  Name = 19063
REMARK  5 active torsions:
REMARK  status: ('A' for Active; 'I' for Inactive)
REMARK    1  A    between atoms: N_2  and  N_5
REMARK    2  A    between atoms: C_3  and  C_10
REMARK    3  A    between atoms: N_5  and  C_7
REMARK    4  A    between atoms: C_10  and  O_11
REMARK    5  A    between atoms: O_11  and  C_13
REMARK                            x       y       z     vdW  Elec       q    Type
REMARK                         _______ _______ _______ _____ _____    ______ ____
ROOT
ATOM      1  O   UNL     1      34.843 -17.314 -25.018  0.00  0.00    -0.270 OA
ATOM      2  N   UNL     1      35.021 -16.635 -22.800  0.00  0.00    -0.247 N 
ATOM      3  C   UNL     1      34.951 -17.566 -23.821  0.00  0.00    +0.280 C 
ATOM      4  H   UNL     1      35.107 -16.925 -21.864  0.00  0.00    +0.169 HD
ENDROOT
BRANCH   2   5
ATOM      5  N   UNL     1      34.971 -15.287 -23.115  0.00  0.00    -0.231 NA
ATOM      6  H   UNL     1      34.469 -15.165 -23.995  0.00  0.00    +0.145 HD
BRANCH   5   7
ATOM      7  C   UNL     1      34.284 -14.549 -22.064  0.00  0.00    +0.072 C 
ATOM      8  C   UNL     1      34.467 -15.247 -20.719  0.00  0.00    +0.019 C 
ATOM      9  C   UNL     1      32.805 -14.421 -22.418  0.00  0.00    +0.019 C 
ENDBRANCH   5   7
ENDBRANCH   2   5
BRANCH   3  10
ATOM     10  C   UNL     1      35.025 -18.981 -23.287  0.00  0.00    +0.291 C 
BRANCH  10  11
ATOM     11  O   UNL     1      35.570 -18.994 -21.985  0.00  0.00    -0.466 OA
BRANCH  11  13
ATOM     12 CL   UNL     1      33.197 -22.717 -18.115  0.00  0.00    -0.082 Cl
ATOM     13  C   UNL     1      35.015 -19.866 -21.079  0.00  0.00    +0.139 C 
ATOM     14  C   UNL     1      33.645 -19.840 -20.857  0.00  0.00    +0.038 C 
ATOM     15  C   UNL     1      35.831 -20.760 -20.401  0.00  0.00    +0.038 C 
ATOM     16  C   UNL     1      33.081 -20.724 -19.937  0.00  0.00    +0.015 C 
ATOM     17  C   UNL     1      35.268 -21.645 -19.481  0.00  0.00    +0.015 C 
ATOM     18  C   UNL     1      33.892 -21.627 -19.249  0.00  0.00    +0.058 C 
ENDBRANCH  11  13
ENDBRANCH  10  11
ENDBRANCH   3  10
TORSDOF 5
ENDMDL
MODEL 4
REMARK VINA RESULT:      -8.0      1.589      2.252
REMARK  Name = 19063
REMARK  5 active torsions:
REMARK  status: ('A' for Active; 'I' for Inactive)
REMARK    1  A    between atoms: N_2  and  N_5
REMARK    2  A    between atoms: C_3  and  C_10
REMARK    3  A    between atoms: N_5  and  C_7
REMARK    4  A    between atoms: C_10  and  O_11
REMARK    5  A    between atoms: O_11  and  C_13
REMARK                            x       y       z     vdW  Elec       q    Type
REMARK                         _______ _______ _______ _____ _____    ______ ____
ROOT
ATOM      1  O   UNL     1      34.525 -17.479 -25.387  0.00  0.00    -0.270 OA
ATOM      2  N   UNL     1      34.856 -16.573 -23.270  0.00  0.00    -0.247 N 
ATOM      3  C   UNL     1      34.774 -17.603 -24.190  0.00  0.00    +0.280 C 
ATOM      4  H   UNL     1      35.062 -16.762 -22.326  0.00  0.00    +0.169 HD
ENDROOT
BRANCH   2   5
ATOM      5  N   UNL     1      34.646 -15.272 -23.695  0.00  0.00    -0.231 NA
ATOM      6  H   UNL     1      33.915 -15.264 -24.407  0.00  0.00    +0.145 HD
BRANCH   5   7
ATOM      7  C   UNL     1      34.234 -14.436 -22.576  0.00  0.00    +0.072 C 
ATOM      8  C   UNL     1      34.438 -15.177 -21.258  0.00  0.00    +0.019 C 
ATOM      9  C   UNL     1      32.774 -14.030 -22.757  0.00  0.00    +0.019 C 
ENDBRANCH   5   7
ENDBRANCH   2   5
BRANCH   3  10
ATOM     10  C   UNL     1      35.036 -18.947 -23.544  0.00  0.00    +0.291 C 
BRANCH  10  11
ATOM     11  O   UNL     1      35.424 -18.784 -22.196  0.00  0.00    -0.466 OA
BRANCH  11  13
ATOM     12 CL   UNL     1      33.122 -22.501 -18.278  0.00  0.00    -0.082 Cl
ATOM     13  C   UNL     1      34.885 -19.654 -21.278  0.00  0.00    +0.139 C 
ATOM     14  C   UNL     1      35.717 -20.531 -20.598  0.00  0.00    +0.038 C 
ATOM     15  C   UNL     1      33.517 -19.641 -21.046  0.00  0.00    +0.038 C 
ATOM     16  C   UNL     1      35.171 -21.415 -19.667  0.00  0.00    +0.015 C 
ATOM     17  C   UNL     1      32.969 -20.525 -20.115  0.00  0.00    +0.015 C 
ATOM     18  C   UNL     1      33.797 -21.412 -19.426  0.00  0.00    +0.058 C 
ENDBRANCH  11  13
ENDBRANCH  10  11
ENDBRANCH   3  10
TORSDOF 5
ENDMDL
MODEL 5
REMARK VINA RESULT:      -7.9      6.162      9.306
REMARK  Name = 19063
REMARK  5 active torsions:
REMARK  status: ('A' for Active; 'I' for Inactive)
REMARK    1  A    between atoms: N_2  and  N_5
REMARK    2  A    between atoms: C_3  and  C_10
REMARK    3  A    between atoms: N_5  and  C_7
REMARK    4  A    between atoms: C_10  and  O_11
REMARK    5  A    between atoms: O_11  and  C_13
REMARK                            x       y       z     vdW  Elec       q    Type
REMARK                         _______ _______ _______ _____ _____    ______ ____
ROOT
ATOM      1  O   UNL     1      30.722 -22.428 -17.216  0.00  0.00    -0.270 OA
ATOM      2  N   UNL     1      31.938 -23.139 -15.365  0.00  0.00    -0.247 N 
ATOM      3  C   UNL     1      31.765 -22.820 -16.700  0.00  0.00    +0.280 C 
ATOM      4  H   UNL     1      32.812 -23.446 -15.033  0.00  0.00    +0.169 HD
ENDROOT
BRANCH   2   5
ATOM      5  N   UNL     1      30.863 -23.019 -14.500  0.00  0.00    -0.231 NA
ATOM      6  H   UNL     1      30.047 -22.696 -15.020  0.00  0.00    +0.145 HD
BRANCH   5   7
ATOM      7  C   UNL     1      30.563 -24.304 -13.886  0.00  0.00    +0.072 C 
ATOM      8  C   UNL     1      31.837 -25.132 -13.741  0.00  0.00    +0.019 C 
ATOM      9  C   UNL     1      29.525 -25.039 -14.728  0.00  0.00    +0.019 C 
ENDBRANCH   5   7
ENDBRANCH   2   5
BRANCH   3  10
ATOM     10  C   UNL     1      33.046 -23.009 -17.486  0.00  0.00    +0.291 C 
BRANCH  10  11
ATOM     11  O   UNL     1      32.844 -22.702 -18.849  0.00  0.00    -0.466 OA
BRANCH  11  13
ATOM     12 CL   UNL     1      36.497 -18.807 -21.289  0.00  0.00    -0.082 Cl
ATOM     13  C   UNL     1      33.699 -21.791 -19.421  0.00  0.00    +0.139 C 
ATOM     14  C   UNL     1      35.069 -21.942 -19.256  0.00  0.00    +0.038 C 
ATOM     15  C   UNL     1      33.181 -20.733 -20.155  0.00  0.00    +0.038 C 
ATOM     16  C   UNL     1      35.937 -21.016 -19.836  0.00  0.00    +0.015 C 
ATOM     17  C   UNL     1      34.048 -19.807 -20.734  0.00  0.00    +0.015 C 
ATOM     18  C   UNL     1      35.427 -19.949 -20.575  0.00  0.00    +0.058 C 
ENDBRANCH  11  13
ENDBRANCH  10  11
ENDBRANCH   3  10
TORSDOF 5
ENDMDL
MODEL 6
REMARK VINA RESULT:      -7.8      1.893      2.297
REMARK  Name = 19063
REMARK  5 active torsions:
REMARK  status: ('A' for Active; 'I' for Inactive)
REMARK    1  A    between atoms: N_2  and  N_5
REMARK    2  A    between atoms: C_3  and  C_10
REMARK    3  A    between atoms: N_5  and  C_7
REMARK    4  A    between atoms: C_10  and  O_11
REMARK    5  A    between atoms: O_11  and  C_13
REMARK                            x       y       z     vdW  Elec       q    Type
REMARK                         _______ _______ _______ _____ _____    ______ ____
ROOT
ATOM      1  O   UNL     1      35.021 -16.188 -20.752  0.00  0.00    -0.270 OA
ATOM      2  N   UNL     1      34.785 -15.677 -23.010  0.00  0.00    -0.247 N 
ATOM      3  C   UNL     1      34.941 -16.528 -21.930  0.00  0.00    +0.280 C 
ATOM      4  H   UNL     1      34.729 -16.035 -23.925  0.00  0.00    +0.169 HD
ENDROOT
BRANCH   2   5
ATOM      5  N   UNL     1      34.707 -14.312 -22.785  0.00  0.00    -0.231 NA
ATOM      6  H   UNL     1      35.472 -13.847 -23.275  0.00  0.00    +0.145 HD
BRANCH   5   7
ATOM      7  C   UNL     1      33.438 -13.792 -23.273  0.00  0.00    +0.072 C 
ATOM      8  C   UNL     1      33.645 -12.440 -23.952  0.00  0.00    +0.019 C 
ATOM      9  C   UNL     1      32.456 -13.677 -22.111  0.00  0.00    +0.019 C 
ENDBRANCH   5   7
ENDBRANCH   2   5
BRANCH   3  10
ATOM     10  C   UNL     1      35.001 -17.975 -22.369  0.00  0.00    +0.291 C 
BRANCH  10  11
ATOM     11  O   UNL     1      35.878 -18.711 -21.542  0.00  0.00    -0.466 OA
BRANCH  11  13
ATOM     12 CL   UNL     1      33.546 -23.055 -18.353  0.00  0.00    -0.082 Cl
ATOM     13  C   UNL     1      35.332 -19.729 -20.796  0.00  0.00    +0.139 C 
ATOM     14  C   UNL     1      33.953 -19.864 -20.730  0.00  0.00    +0.038 C 
ATOM     15  C   UNL     1      36.168 -20.605 -20.120  0.00  0.00    +0.038 C 
ATOM     16  C   UNL     1      33.398 -20.896 -19.972  0.00  0.00    +0.015 C 
ATOM     17  C   UNL     1      35.615 -21.637 -19.362  0.00  0.00    +0.015 C 
ATOM     18  C   UNL     1      34.229 -21.782 -19.288  0.00  0.00    +0.058 C 
ENDBRANCH  11  13
ENDBRANCH  10  11
ENDBRANCH   3  10
TORSDOF 5
ENDMDL
MODEL 7
REMARK VINA RESULT:      -7.7      5.878      9.114
REMARK  Name = 19063
REMARK  5 active torsions:
REMARK  status: ('A' for Active; 'I' for Inactive)
REMARK    1  A    between atoms: N_2  and  N_5
REMARK    2  A    between atoms: C_3  and  C_10
REMARK    3  A    between atoms: N_5  and  C_7
REMARK    4  A    between atoms: C_10  and  O_11
REMARK    5  A    between atoms: O_11  and  C_13
REMARK                            x       y       z     vdW  Elec       q    Type
REMARK                         _______ _______ _______ _____ _____    ______ ____
ROOT
ATOM      1  O   UNL     1      32.030 -23.183 -16.236  0.00  0.00    -0.270 OA
ATOM      2  N   UNL     1      34.332 -23.151 -15.901  0.00  0.00    -0.247 N 
ATOM      3  C   UNL     1      33.180 -23.202 -16.666  0.00  0.00    +0.280 C 
ATOM      4  H   UNL     1      35.218 -23.172 -16.329  0.00  0.00    +0.169 HD
ENDROOT
BRANCH   2   5
ATOM      5  N   UNL     1      34.221 -23.069 -14.523  0.00  0.00    -0.231 NA
ATOM      6  H   UNL     1      33.244 -22.912 -14.272  0.00  0.00    +0.145 HD
BRANCH   5   7
ATOM      7  C   UNL     1      34.682 -24.305 -13.905  0.00  0.00    +0.072 C 
ATOM      8  C   UNL     1      35.134 -24.044 -12.471  0.00  0.00    +0.019 C 
ATOM      9  C   UNL     1      35.816 -24.896 -14.738  0.00  0.00    +0.019 C 
ENDBRANCH   5   7
ENDBRANCH   2   5
BRANCH   3  10
ATOM     10  C   UNL     1      33.499 -23.285 -18.144  0.00  0.00    +0.291 C 
BRANCH  10  11
ATOM     11  O   UNL     1      32.842 -22.257 -18.854  0.00  0.00    -0.466 OA
BRANCH  11  13
ATOM     12 CL   UNL     1      36.206 -18.498 -21.859  0.00  0.00    -0.082 Cl
ATOM     13  C   UNL     1      33.630 -21.376 -19.557  0.00  0.00    +0.139 C 
ATOM     14  C   UNL     1      33.033 -20.360 -20.289  0.00  0.00    +0.038 C 
ATOM     15  C   UNL     1      35.010 -21.517 -19.524  0.00  0.00    +0.038 C 
ATOM     16  C   UNL     1      33.832 -19.467 -21.004  0.00  0.00    +0.015 C 
ATOM     17  C   UNL     1      35.810 -20.625 -20.238  0.00  0.00    +0.015 C 
ATOM     18  C   UNL     1      35.220 -19.599 -20.978  0.00  0.00    +0.058 C 
ENDBRANCH  11  13
ENDBRANCH  10  11
ENDBRANCH   3  10
TORSDOF 5
ENDMDL
MODEL 8
REMARK VINA RESULT:      -7.6      4.401      7.456
REMARK  Name = 19063
REMARK  5 active torsions:
REMARK  status: ('A' for Active; 'I' for Inactive)
REMARK    1  A    between atoms: N_2  and  N_5
REMARK    2  A    between atoms: C_3  and  C_10
REMARK    3  A    between atoms: N_5  and  C_7
REMARK    4  A    between atoms: C_10  and  O_11
REMARK    5  A    between atoms: O_11  and  C_13
REMARK                            x       y       z     vdW  Elec       q    Type
REMARK                         _______ _______ _______ _____ _____    ______ ____
ROOT
ATOM      1  O   UNL     1      32.589 -20.614 -20.164  0.00  0.00    -0.270 OA
ATOM      2  N   UNL     1      33.712 -22.096 -18.766  0.00  0.00    -0.247 N 
ATOM      3  C   UNL     1      33.625 -21.133 -19.756  0.00  0.00    +0.280 C 
ATOM      4  H   UNL     1      34.587 -22.459 -18.498  0.00  0.00    +0.169 HD
ENDROOT
BRANCH   2   5
ATOM      5  N   UNL     1      32.551 -22.541 -18.155  0.00  0.00    -0.231 NA
ATOM      6  H   UNL     1      31.992 -23.058 -18.833  0.00  0.00    +0.145 HD
BRANCH   5   7
ATOM      7  C   UNL     1      32.873 -23.412 -17.034  0.00  0.00    +0.072 C 
ATOM      8  C   UNL     1      31.882 -23.196 -15.893  0.00  0.00    +0.019 C 
ATOM      9  C   UNL     1      34.304 -23.143 -16.576  0.00  0.00    +0.019 C 
ENDBRANCH   5   7
ENDBRANCH   2   5
BRANCH   3  10
ATOM     10  C   UNL     1      34.990 -20.771 -20.300  0.00  0.00    +0.291 C 
BRANCH  10  11
ATOM     11  O   UNL     1      35.175 -19.371 -20.292  0.00  0.00    -0.466 OA
BRANCH  11  13
ATOM     12 CL   UNL     1      34.767 -16.583 -25.443  0.00  0.00    -0.082 Cl
ATOM     13  C   UNL     1      35.079 -18.718 -21.498  0.00  0.00    +0.139 C 
ATOM     14  C   UNL     1      34.862 -19.451 -22.657  0.00  0.00    +0.038 C 
ATOM     15  C   UNL     1      35.199 -17.337 -21.539  0.00  0.00    +0.038 C 
ATOM     16  C   UNL     1      34.765 -18.789 -23.881  0.00  0.00    +0.015 C 
ATOM     17  C   UNL     1      35.103 -16.673 -22.762  0.00  0.00    +0.015 C 
ATOM     18  C   UNL     1      34.886 -17.400 -23.934  0.00  0.00    +0.058 C 
ENDBRANCH  11  13
ENDBRANCH  10  11
ENDBRANCH   3  10
TORSDOF 5
ENDMDL
MODEL 9
REMARK VINA RESULT:      -7.5     10.536     12.258
REMARK  Name = 19063
REMARK  5 active torsions:
REMARK  status: ('A' for Active; 'I' for Inactive)
REMARK    1  A    between atoms: N_2  and  N_5
REMARK    2  A    between atoms: C_3  and  C_10
REMARK    3  A    between atoms: N_5  and  C_7
REMARK    4  A    between atoms: C_10  and  O_11
REMARK    5  A    between atoms: O_11  and  C_13
REMARK                            x       y       z     vdW  Elec       q    Type
REMARK                         _______ _______ _______ _____ _____    ______ ____
ROOT
ATOM      1  O   UNL     1      34.941 -24.193 -11.382  0.00  0.00    -0.270 OA
ATOM      2  N   UNL     1      35.896 -25.482 -13.067  0.00  0.00    -0.247 N 
ATOM      3  C   UNL     1      35.001 -24.560 -12.553  0.00  0.00    +0.280 C 
ATOM      4  H   UNL     1      35.875 -25.720 -14.022  0.00  0.00    +0.169 HD
ENDROOT
BRANCH   2   5
ATOM      5  N   UNL     1      36.823 -26.066 -12.219  0.00  0.00    -0.231 NA
ATOM      6  H   UNL     1      36.713 -27.080 -12.247  0.00  0.00    +0.145 HD
BRANCH   5   7
ATOM      7  C   UNL     1      38.175 -25.718 -12.633  0.00  0.00    +0.072 C 
ATOM      8  C   UNL     1      38.514 -24.296 -12.193  0.00  0.00    +0.019 C 
ATOM      9  C   UNL     1      38.297 -25.868 -14.146  0.00  0.00    +0.019 C 
ENDBRANCH   5   7
ENDBRANCH   2   5
BRANCH   3  10
ATOM     10  C   UNL     1      34.073 -24.031 -13.625  0.00  0.00    +0.291 C 
BRANCH  10  11
ATOM     11  O   UNL     1      32.777 -23.822 -13.105  0.00  0.00    -0.466 OA
BRANCH  11  13
ATOM     12 CL   UNL     1      28.278 -24.288 -16.847  0.00  0.00    -0.082 Cl
ATOM     13  C   UNL     1      31.723 -23.931 -13.980  0.00  0.00    +0.139 C 
ATOM     14  C   UNL     1      30.938 -25.075 -13.965  0.00  0.00    +0.038 C 
ATOM     15  C   UNL     1      31.461 -22.896 -14.866  0.00  0.00    +0.038 C 
ATOM     16  C   UNL     1      29.869 -25.186 -14.855  0.00  0.00    +0.015 C 
ATOM     17  C   UNL     1      30.393 -23.006 -15.756  0.00  0.00    +0.015 C 
ATOM     18  C   UNL     1      29.596 -24.152 -15.750  0.00  0.00    +0.058 C 
ENDBRANCH  11  13
ENDBRANCH  10  11
ENDBRANCH   3  10
TORSDOF 5
ENDMDL
