MODEL 1
REMARK VINA RESULT:     -12.9      0.000      0.000
REMARK  Name = 10297043
REMARK  6 active torsions:
REMARK  status: ('A' for Active; 'I' for Inactive)
REMARK    1  A    between atoms: N_2  and  C_30
REMARK    2  A    between atoms: C_5  and  C_16
REMARK    3  A    between atoms: C_13  and  C_19
REMARK    4  A    between atoms: C_19  and  N_20
REMARK    5  A    between atoms: N_21  and  C_28
REMARK    6  A    between atoms: C_30  and  C_32
REMARK                            x       y       z     vdW  Elec       q    Type
REMARK                         _______ _______ _______ _____ _____    ______ ____
ROOT
ATOM      1  N   UNL     1      34.540 -17.579 -23.999  0.00  0.00    -0.301 N 
ATOM      2  N   UNL     1      33.148 -13.255 -22.934  0.00  0.00    -0.319 N 
ATOM      3  N   UNL     1      33.899 -16.203 -25.873  0.00  0.00    -0.233 NA
ATOM      4  N   UNL     1      33.190 -13.969 -25.212  0.00  0.00    -0.233 NA
ATOM      5  C   UNL     1      34.613 -17.436 -22.637  0.00  0.00    +0.046 C 
ATOM      6  C   UNL     1      33.868 -15.503 -23.532  0.00  0.00    +0.131 C 
ATOM      7  C   UNL     1      34.202 -16.159 -22.319  0.00  0.00    +0.003 C 
ATOM      8  C   UNL     1      34.089 -16.413 -24.559  0.00  0.00    +0.117 C 
ATOM      9  C   UNL     1      33.401 -14.243 -23.903  0.00  0.00    +0.113 C 
ATOM     10  C   UNL     1      33.448 -14.953 -26.103  0.00  0.00    +0.252 C 
ATOM     11  H   UNL     1      34.776 -18.394 -24.498  0.00  0.00    +0.153 HD
ATOM     12  H   UNL     1      33.308 -13.474 -21.987  0.00  0.00    +0.148 HD
ENDROOT
BRANCH   5  16
ATOM     13  C   UNL     1      35.906 -20.573 -20.125  0.00  0.00    -0.043 C 
ATOM     14  C   UNL     1      34.557 -20.454 -20.438  0.00  0.00    -0.006 C 
ATOM     15  C   UNL     1      36.834 -19.670 -20.629  0.00  0.00    -0.006 C 
ATOM     16  C   UNL     1      35.055 -18.508 -21.779  0.00  0.00    +0.013 C 
ATOM     17  C   UNL     1      34.130 -19.418 -21.269  0.00  0.00    +0.001 C 
ATOM     18  C   UNL     1      36.407 -18.634 -21.460  0.00  0.00    +0.001 C 
BRANCH  13  19
ATOM     19  C   UNL     1      36.366 -21.688 -19.230  0.00  0.00    -0.050 C 
BRANCH  19  20
ATOM     20  N   UNL     1      35.447 -21.908 -18.115  0.00  0.00    +0.387 N 
ATOM     21  N   UNL     1      34.155 -23.569 -16.132  0.00  0.00    +0.384 N 
ATOM     22  C   UNL     1      34.394 -22.862 -18.488  0.00  0.00    -0.100 C 
ATOM     23  C   UNL     1      36.170 -22.380 -16.928  0.00  0.00    -0.100 C 
ATOM     24  C   UNL     1      33.432 -23.097 -17.319  0.00  0.00    -0.101 C 
ATOM     25  C   UNL     1      35.206 -22.614 -15.760  0.00  0.00    -0.101 C 
ATOM     26  H   UNL     1      35.006 -21.015 -17.890  0.00  0.00    -0.079 HD
ATOM     27  H   UNL     1      34.597 -24.460 -16.358  0.00  0.00    -0.080 HD
BRANCH  21  28
ATOM     28  C   UNL     1      33.236 -23.791 -15.018  0.00  0.00    -0.078 C 
ATOM     29  C   UNL     1      31.913 -23.080 -15.247  0.00  0.00    -0.025 C 
ENDBRANCH  21  28
ENDBRANCH  19  20
ENDBRANCH  13  19
ENDBRANCH   5  16
BRANCH   2  30
ATOM     30  C   UNL     1      32.668 -11.946 -23.260  0.00  0.00    +0.093 C 
ATOM     31  C   UNL     1      33.751 -11.191 -24.026  0.00  0.00    +0.026 C 
BRANCH  30  32
ATOM     32  C   UNL     1      32.215 -11.227 -22.008  0.00  0.00    -0.005 C 
ATOM     33  C   UNL     1      32.239  -9.843 -21.978  0.00  0.00    -0.003 C 
ATOM     34  C   UNL     1      31.788 -11.967 -20.919  0.00  0.00    -0.003 C 
ATOM     35  C   UNL     1      31.822  -9.179 -20.825  0.00  0.00    -0.000 C 
ATOM     36  C   UNL     1      31.371 -11.303 -19.766  0.00  0.00    -0.000 C 
ATOM     37  C   UNL     1      31.389  -9.910 -19.718  0.00  0.00    -0.000 C 
ENDBRANCH  30  32
ENDBRANCH   2  30
TORSDOF 6
ENDMDL
MODEL 2
REMARK VINA RESULT:     -12.3      2.460     11.920
REMARK  Name = 10297043
REMARK  6 active torsions:
REMARK  status: ('A' for Active; 'I' for Inactive)
REMARK    1  A    between atoms: N_2  and  C_30
REMARK    2  A    between atoms: C_5  and  C_16
REMARK    3  A    between atoms: C_13  and  C_19
REMARK    4  A    between atoms: C_19  and  N_20
REMARK    5  A    between atoms: N_21  and  C_28
REMARK    6  A    between atoms: C_30  and  C_32
REMARK                            x       y       z     vdW  Elec       q    Type
REMARK                         _______ _______ _______ _____ _____    ______ ____
ROOT
ATOM      1  N   UNL     1      32.452 -22.054 -18.395  0.00  0.00    -0.301 N 
ATOM      2  N   UNL     1      35.142 -24.060 -15.153  0.00  0.00    -0.319 N 
ATOM      3  N   UNL     1      31.277 -23.282 -16.684  0.00  0.00    -0.233 NA
ATOM      4  N   UNL     1      32.768 -24.288 -15.044  0.00  0.00    -0.233 NA
ATOM      5  C   UNL     1      33.759 -21.767 -18.695  0.00  0.00    +0.046 C 
ATOM      6  C   UNL     1      33.703 -23.029 -16.825  0.00  0.00    +0.131 C 
ATOM      7  C   UNL     1      34.557 -22.358 -17.738  0.00  0.00    +0.003 C 
ATOM      8  C   UNL     1      32.400 -22.821 -17.261  0.00  0.00    +0.117 C 
ATOM      9  C   UNL     1      33.862 -23.795 -15.671  0.00  0.00    +0.113 C 
ATOM     10  C   UNL     1      31.560 -24.006 -15.582  0.00  0.00    +0.252 C 
ATOM     11  H   UNL     1      31.671 -21.755 -18.914  0.00  0.00    +0.153 HD
ATOM     12  H   UNL     1      35.925 -23.692 -15.625  0.00  0.00    +0.148 HD
ENDROOT
BRANCH   5  16
ATOM     13  C   UNL     1      34.825 -19.445 -22.056  0.00  0.00    -0.043 C 
ATOM     14  C   UNL     1      35.818 -20.054 -21.297  0.00  0.00    -0.006 C 
ATOM     15  C   UNL     1      33.484 -19.592 -21.720  0.00  0.00    -0.006 C 
ATOM     16  C   UNL     1      34.122 -20.974 -19.843  0.00  0.00    +0.013 C 
ATOM     17  C   UNL     1      35.465 -20.821 -20.188  0.00  0.00    +0.001 C 
ATOM     18  C   UNL     1      33.132 -20.360 -20.610  0.00  0.00    +0.001 C 
BRANCH  13  19
ATOM     19  C   UNL     1      35.204 -18.619 -23.251  0.00  0.00    -0.050 C 
BRANCH  19  20
ATOM     20  N   UNL     1      34.480 -17.350 -23.290  0.00  0.00    +0.387 N 
ATOM     21  N   UNL     1      34.307 -14.496 -23.719  0.00  0.00    +0.384 N 
ATOM     22  C   UNL     1      35.045 -16.398 -22.324  0.00  0.00    -0.100 C 
ATOM     23  C   UNL     1      34.497 -16.780 -24.642  0.00  0.00    -0.100 C 
ATOM     24  C   UNL     1      34.291 -15.065 -22.366  0.00  0.00    -0.101 C 
ATOM     25  C   UNL     1      33.741 -15.447 -24.682  0.00  0.00    -0.101 C 
ATOM     26  H   UNL     1      33.510 -17.533 -23.030  0.00  0.00    -0.079 HD
ATOM     27  H   UNL     1      35.277 -14.314 -23.979  0.00  0.00    -0.080 HD
BRANCH  21  28
ATOM     28  C   UNL     1      33.585 -13.226 -23.757  0.00  0.00    -0.078 C 
ATOM     29  C   UNL     1      32.420 -13.227 -22.783  0.00  0.00    -0.025 C 
ENDBRANCH  21  28
ENDBRANCH  19  20
ENDBRANCH  13  19
ENDBRANCH   5  16
BRANCH   2  30
ATOM     30  C   UNL     1      35.362 -24.841 -13.974  0.00  0.00    +0.093 C 
ATOM     31  C   UNL     1      34.779 -24.104 -12.770  0.00  0.00    +0.026 C 
BRANCH  30  32
ATOM     32  C   UNL     1      36.833 -25.158 -13.821  0.00  0.00    -0.005 C 
ATOM     33  C   UNL     1      37.337 -25.439 -12.562  0.00  0.00    -0.003 C 
ATOM     34  C   UNL     1      37.645 -25.161 -14.942  0.00  0.00    -0.003 C 
ATOM     35  C   UNL     1      38.692 -25.731 -12.420  0.00  0.00    -0.000 C 
ATOM     36  C   UNL     1      39.001 -25.453 -14.800  0.00  0.00    -0.000 C 
ATOM     37  C   UNL     1      39.525 -25.737 -13.539  0.00  0.00    -0.000 C 
ENDBRANCH  30  32
ENDBRANCH   2  30
TORSDOF 6
ENDMDL
MODEL 3
REMARK VINA RESULT:     -12.3      1.431      2.206
REMARK  Name = 10297043
REMARK  6 active torsions:
REMARK  status: ('A' for Active; 'I' for Inactive)
REMARK    1  A    between atoms: N_2  and  C_30
REMARK    2  A    between atoms: C_5  and  C_16
REMARK    3  A    between atoms: C_13  and  C_19
REMARK    4  A    between atoms: C_19  and  N_20
REMARK    5  A    between atoms: N_21  and  C_28
REMARK    6  A    between atoms: C_30  and  C_32
REMARK                            x       y       z     vdW  Elec       q    Type
REMARK                         _______ _______ _______ _____ _____    ______ ____
ROOT
ATOM      1  N   UNL     1      33.987 -16.340 -25.007  0.00  0.00    -0.301 N 
ATOM      2  N   UNL     1      34.001 -11.774 -24.047  0.00  0.00    -0.319 N 
ATOM      3  N   UNL     1      33.189 -14.905 -26.773  0.00  0.00    -0.233 NA
ATOM      4  N   UNL     1      33.237 -12.545 -26.174  0.00  0.00    -0.233 NA
ATOM      5  C   UNL     1      34.468 -16.179 -23.733  0.00  0.00    +0.046 C 
ATOM      6  C   UNL     1      33.978 -14.148 -24.587  0.00  0.00    +0.131 C 
ATOM      7  C   UNL     1      34.474 -14.830 -23.446  0.00  0.00    +0.003 C 
ATOM      8  C   UNL     1      33.683 -15.115 -25.541  0.00  0.00    +0.117 C 
ATOM      9  C   UNL     1      33.734 -12.823 -24.946  0.00  0.00    +0.113 C 
ATOM     10  C   UNL     1      32.998 -13.589 -27.000  0.00  0.00    +0.252 C 
ATOM     11  H   UNL     1      33.877 -17.203 -25.467  0.00  0.00    +0.153 HD
ATOM     12  H   UNL     1      34.362 -11.998 -23.159  0.00  0.00    +0.148 HD
ENDROOT
BRANCH   5  16
ATOM     13  C   UNL     1      35.641 -19.461 -21.351  0.00  0.00    -0.043 C 
ATOM     14  C   UNL     1      35.578 -18.191 -20.789  0.00  0.00    -0.006 C 
ATOM     15  C   UNL     1      35.322 -19.662 -22.689  0.00  0.00    -0.006 C 
ATOM     16  C   UNL     1      34.869 -17.300 -22.920  0.00  0.00    +0.013 C 
ATOM     17  C   UNL     1      35.190 -17.107 -21.577  0.00  0.00    +0.001 C 
ATOM     18  C   UNL     1      34.934 -18.578 -23.476  0.00  0.00    +0.001 C 
BRANCH  13  19
ATOM     19  C   UNL     1      36.059 -20.628 -20.504  0.00  0.00    -0.050 C 
BRANCH  19  20
ATOM     20  N   UNL     1      35.066 -20.943 -19.479  0.00  0.00    +0.387 N 
ATOM     21  N   UNL     1      33.117 -22.673 -18.228  0.00  0.00    +0.384 N 
ATOM     22  C   UNL     1      33.747 -21.169 -20.084  0.00  0.00    -0.100 C 
ATOM     23  C   UNL     1      35.478 -22.113 -18.695  0.00  0.00    -0.100 C 
ATOM     24  C   UNL     1      32.704 -21.502 -19.012  0.00  0.00    -0.101 C 
ATOM     25  C   UNL     1      34.434 -22.445 -17.623  0.00  0.00    -0.101 C 
ATOM     26  H   UNL     1      34.998 -20.142 -18.851  0.00  0.00    -0.079 HD
ATOM     27  H   UNL     1      33.186 -23.473 -18.857  0.00  0.00    -0.080 HD
BRANCH  21  28
ATOM     28  C   UNL     1      32.123 -22.989 -17.204  0.00  0.00    -0.078 C 
ATOM     29  C   UNL     1      32.788 -23.393 -15.899  0.00  0.00    -0.025 C 
ENDBRANCH  21  28
ENDBRANCH  19  20
ENDBRANCH  13  19
ENDBRANCH   5  16
BRANCH   2  30
ATOM     30  C   UNL     1      33.769 -10.397 -24.363  0.00  0.00    +0.093 C 
ATOM     31  C   UNL     1      35.069  -9.773 -24.866  0.00  0.00    +0.026 C 
BRANCH  30  32
ATOM     32  C   UNL     1      33.187  -9.675 -23.167  0.00  0.00    -0.005 C 
ATOM     33  C   UNL     1      32.249 -10.320 -22.379  0.00  0.00    -0.003 C 
ATOM     34  C   UNL     1      33.604  -8.385 -22.887  0.00  0.00    -0.003 C 
ATOM     35  C   UNL     1      31.712  -9.655 -21.278  0.00  0.00    -0.000 C 
ATOM     36  C   UNL     1      33.067  -7.720 -21.785  0.00  0.00    -0.000 C 
ATOM     37  C   UNL     1      32.121  -8.355 -20.981  0.00  0.00    -0.000 C 
ENDBRANCH  30  32
ENDBRANCH   2  30
TORSDOF 6
ENDMDL
MODEL 4
REMARK VINA RESULT:     -11.7      3.190     11.893
REMARK  Name = 10297043
REMARK  6 active torsions:
REMARK  status: ('A' for Active; 'I' for Inactive)
REMARK    1  A    between atoms: N_2  and  C_30
REMARK    2  A    between atoms: C_5  and  C_16
REMARK    3  A    between atoms: C_13  and  C_19
REMARK    4  A    between atoms: C_19  and  N_20
REMARK    5  A    between atoms: N_21  and  C_28
REMARK    6  A    between atoms: C_30  and  C_32
REMARK                            x       y       z     vdW  Elec       q    Type
REMARK                         _______ _______ _______ _____ _____    ______ ____
ROOT
ATOM      1  N   UNL     1      33.299 -14.108 -24.683  0.00  0.00    -0.301 N 
ATOM      2  N   UNL     1      35.431 -17.170 -21.882  0.00  0.00    -0.319 N 
ATOM      3  N   UNL     1      33.820 -16.241 -25.680  0.00  0.00    -0.233 NA
ATOM      4  N   UNL     1      34.929 -17.765 -24.138  0.00  0.00    -0.233 NA
ATOM      5  C   UNL     1      33.464 -13.514 -23.459  0.00  0.00    +0.046 C 
ATOM      6  C   UNL     1      34.319 -15.601 -23.376  0.00  0.00    +0.131 C 
ATOM      7  C   UNL     1      34.094 -14.417 -22.628  0.00  0.00    +0.003 C 
ATOM      8  C   UNL     1      33.814 -15.377 -24.651  0.00  0.00    +0.117 C 
ATOM      9  C   UNL     1      34.892 -16.850 -23.141  0.00  0.00    +0.113 C 
ATOM     10  C   UNL     1      34.398 -17.408 -25.330  0.00  0.00    +0.252 C 
ATOM     11  H   UNL     1      32.876 -13.687 -25.466  0.00  0.00    +0.153 HD
ATOM     12  H   UNL     1      35.394 -16.490 -21.170  0.00  0.00    +0.148 HD
ENDROOT
BRANCH   5  16
ATOM     13  C   UNL     1      32.162  -9.573 -22.689  0.00  0.00    -0.043 C 
ATOM     14  C   UNL     1      33.144  -9.798 -23.647  0.00  0.00    -0.006 C 
ATOM     15  C   UNL     1      31.605 -10.631 -21.981  0.00  0.00    -0.006 C 
ATOM     16  C   UNL     1      33.019 -12.168 -23.196  0.00  0.00    +0.013 C 
ATOM     17  C   UNL     1      33.573 -11.101 -23.902  0.00  0.00    +0.001 C 
ATOM     18  C   UNL     1      32.034 -11.933 -22.236  0.00  0.00    +0.001 C 
BRANCH  13  19
ATOM     19  C   UNL     1      31.700  -8.170 -22.415  0.00  0.00    -0.050 C 
BRANCH  19  20
ATOM     20  N   UNL     1      31.799  -7.321 -23.600  0.00  0.00    +0.387 N 
ATOM     21  N   UNL     1      32.322  -4.808 -24.930  0.00  0.00    +0.384 N 
ATOM     22  C   UNL     1      30.848  -6.204 -23.521  0.00  0.00    -0.100 C 
ATOM     23  C   UNL     1      33.168  -6.819 -23.769  0.00  0.00    -0.100 C 
ATOM     24  C   UNL     1      30.953  -5.310 -24.761  0.00  0.00    -0.101 C 
ATOM     25  C   UNL     1      33.271  -5.925 -25.010  0.00  0.00    -0.101 C 
ATOM     26  H   UNL     1      31.561  -7.888 -24.414  0.00  0.00    -0.079 HD
ATOM     27  H   UNL     1      32.560  -4.242 -24.115  0.00  0.00    -0.080 HD
BRANCH  21  28
ATOM     28  C   UNL     1      32.421  -3.957 -26.114  0.00  0.00    -0.078 C 
ATOM     29  C   UNL     1      33.280  -4.605 -27.186  0.00  0.00    -0.025 C 
ENDBRANCH  21  28
ENDBRANCH  19  20
ENDBRANCH  13  19
ENDBRANCH   5  16
BRANCH   2  30
ATOM     30  C   UNL     1      36.031 -18.436 -21.587  0.00  0.00    +0.093 C 
ATOM     31  C   UNL     1      36.647 -19.007 -22.862  0.00  0.00    +0.026 C 
BRANCH  30  32
ATOM     32  C   UNL     1      35.017 -19.362 -20.950  0.00  0.00    -0.005 C 
ATOM     33  C   UNL     1      35.461 -20.471 -20.251  0.00  0.00    -0.003 C 
ATOM     34  C   UNL     1      33.668 -19.081 -21.081  0.00  0.00    -0.003 C 
ATOM     35  C   UNL     1      34.528 -21.325 -19.664  0.00  0.00    -0.000 C 
ATOM     36  C   UNL     1      32.735 -19.935 -20.495  0.00  0.00    -0.000 C 
ATOM     37  C   UNL     1      33.164 -21.057 -19.787  0.00  0.00    -0.000 C 
ENDBRANCH  30  32
ENDBRANCH   2  30
TORSDOF 6
ENDMDL
MODEL 5
REMARK VINA RESULT:     -10.9      2.037     11.176
REMARK  Name = 10297043
REMARK  6 active torsions:
REMARK  status: ('A' for Active; 'I' for Inactive)
REMARK    1  A    between atoms: N_2  and  C_30
REMARK    2  A    between atoms: C_5  and  C_16
REMARK    3  A    between atoms: C_13  and  C_19
REMARK    4  A    between atoms: C_19  and  N_20
REMARK    5  A    between atoms: N_21  and  C_28
REMARK    6  A    between atoms: C_30  and  C_32
REMARK                            x       y       z     vdW  Elec       q    Type
REMARK                         _______ _______ _______ _____ _____    ______ ____
ROOT
ATOM      1  N   UNL     1      36.866 -20.994 -18.859  0.00  0.00    -0.301 N 
ATOM      2  N   UNL     1      33.701 -23.151 -16.196  0.00  0.00    -0.319 N 
ATOM      3  N   UNL     1      37.739 -22.118 -16.913  0.00  0.00    -0.233 NA
ATOM      4  N   UNL     1      36.010 -23.211 -15.592  0.00  0.00    -0.233 NA
ATOM      5  C   UNL     1      35.634 -20.802 -19.430  0.00  0.00    +0.046 C 
ATOM      6  C   UNL     1      35.384 -22.038 -17.559  0.00  0.00    +0.131 C 
ATOM      7  C   UNL     1      34.696 -21.439 -18.645  0.00  0.00    +0.003 C 
ATOM      8  C   UNL     1      36.732 -21.743 -17.720  0.00  0.00    +0.117 C 
ATOM      9  C   UNL     1      35.040 -22.802 -16.444  0.00  0.00    +0.113 C 
ATOM     10  C   UNL     1      37.281 -22.848 -15.875  0.00  0.00    +0.252 C 
ATOM     11  H   UNL     1      37.716 -20.646 -19.213  0.00  0.00    +0.153 HD
ATOM     12  H   UNL     1      33.011 -22.843 -16.827  0.00  0.00    +0.148 HD
ENDROOT
BRANCH   5  16
ATOM     13  C   UNL     1      35.138 -18.581 -22.986  0.00  0.00    -0.043 C 
ATOM     14  C   UNL     1      36.377 -18.602 -22.355  0.00  0.00    -0.006 C 
ATOM     15  C   UNL     1      34.061 -19.283 -22.458  0.00  0.00    -0.006 C 
ATOM     16  C   UNL     1      35.465 -20.044 -20.645  0.00  0.00    +0.013 C 
ATOM     17  C   UNL     1      36.541 -19.337 -21.181  0.00  0.00    +0.001 C 
ATOM     18  C   UNL     1      34.225 -20.017 -21.284  0.00  0.00    +0.001 C 
BRANCH  13  19
ATOM     19  C   UNL     1      34.962 -17.790 -24.250  0.00  0.00    -0.050 C 
BRANCH  19  20
ATOM     20  N   UNL     1      34.242 -16.540 -24.016  0.00  0.00    +0.387 N 
ATOM     21  N   UNL     1      33.962 -13.666 -24.153  0.00  0.00    +0.384 N 
ATOM     22  C   UNL     1      35.009 -15.656 -23.128  0.00  0.00    -0.100 C 
ATOM     23  C   UNL     1      33.947 -15.862 -25.284  0.00  0.00    -0.100 C 
ATOM     24  C   UNL     1      34.258 -14.343 -22.884  0.00  0.00    -0.101 C 
ATOM     25  C   UNL     1      33.195 -14.549 -25.038  0.00  0.00    -0.101 C 
ATOM     26  H   UNL     1      33.358 -16.766 -23.559  0.00  0.00    -0.079 HD
ATOM     27  H   UNL     1      34.846 -13.440 -24.610  0.00  0.00    -0.080 HD
BRANCH  21  28
ATOM     28  C   UNL     1      33.245 -12.414 -23.919  0.00  0.00    -0.078 C 
ATOM     29  C   UNL     1      34.011 -11.228 -24.480  0.00  0.00    -0.025 C 
ENDBRANCH  21  28
ENDBRANCH  19  20
ENDBRANCH  13  19
ENDBRANCH   5  16
BRANCH   2  30
ATOM     30  C   UNL     1      33.293 -23.931 -15.067  0.00  0.00    +0.093 C 
ATOM     31  C   UNL     1      34.071 -25.246 -15.059  0.00  0.00    +0.026 C 
BRANCH  30  32
ATOM     32  C   UNL     1      31.793 -24.129 -15.080  0.00  0.00    -0.005 C 
ATOM     33  C   UNL     1      31.227 -25.063 -14.228  0.00  0.00    -0.003 C 
ATOM     34  C   UNL     1      31.018 -23.373 -15.942  0.00  0.00    -0.003 C 
ATOM     35  C   UNL     1      29.845 -25.246 -14.240  0.00  0.00    -0.000 C 
ATOM     36  C   UNL     1      29.636 -23.556 -15.954  0.00  0.00    -0.000 C 
ATOM     37  C   UNL     1      29.049 -24.493 -15.103  0.00  0.00    -0.000 C 
ENDBRANCH  30  32
ENDBRANCH   2  30
TORSDOF 6
ENDMDL
MODEL 6
REMARK VINA RESULT:     -10.8      1.790      3.263
REMARK  Name = 10297043
REMARK  6 active torsions:
REMARK  status: ('A' for Active; 'I' for Inactive)
REMARK    1  A    between atoms: N_2  and  C_30
REMARK    2  A    between atoms: C_5  and  C_16
REMARK    3  A    between atoms: C_13  and  C_19
REMARK    4  A    between atoms: C_19  and  N_20
REMARK    5  A    between atoms: N_21  and  C_28
REMARK    6  A    between atoms: C_30  and  C_32
REMARK                            x       y       z     vdW  Elec       q    Type
REMARK                         _______ _______ _______ _____ _____    ______ ____
ROOT
ATOM      1  N   UNL     1      33.146 -15.807 -20.793  0.00  0.00    -0.301 N 
ATOM      2  N   UNL     1      33.353 -13.886 -25.040  0.00  0.00    -0.319 N 
ATOM      3  N   UNL     1      32.136 -13.627 -20.998  0.00  0.00    -0.233 NA
ATOM      4  N   UNL     1      32.296 -12.713 -23.249  0.00  0.00    -0.233 NA
ATOM      5  C   UNL     1      33.799 -16.684 -21.621  0.00  0.00    +0.046 C 
ATOM      6  C   UNL     1      33.224 -14.853 -22.809  0.00  0.00    +0.131 C 
ATOM      7  C   UNL     1      33.861 -16.119 -22.878  0.00  0.00    +0.003 C 
ATOM      8  C   UNL     1      32.790 -14.688 -21.500  0.00  0.00    +0.117 C 
ATOM      9  C   UNL     1      32.953 -13.810 -23.694  0.00  0.00    +0.113 C 
ATOM     10  C   UNL     1      31.934 -12.689 -21.946  0.00  0.00    +0.252 C 
ATOM     11  H   UNL     1      32.962 -15.958 -19.838  0.00  0.00    +0.153 HD
ATOM     12  H   UNL     1      33.830 -14.692 -25.343  0.00  0.00    +0.148 HD
ENDROOT
BRANCH   5  16
ATOM     13  C   UNL     1      35.253 -20.400 -20.242  0.00  0.00    -0.043 C 
ATOM     14  C   UNL     1      33.882 -20.198 -20.359  0.00  0.00    -0.006 C 
ATOM     15  C   UNL     1      36.150 -19.392 -20.574  0.00  0.00    -0.006 C 
ATOM     16  C   UNL     1      34.296 -17.953 -21.150  0.00  0.00    +0.013 C 
ATOM     17  C   UNL     1      33.402 -18.970 -20.815  0.00  0.00    +0.001 C 
ATOM     18  C   UNL     1      35.669 -18.164 -21.030  0.00  0.00    +0.001 C 
BRANCH  13  19
ATOM     19  C   UNL     1      35.770 -21.721 -19.751  0.00  0.00    -0.050 C 
BRANCH  19  20
ATOM     20  N   UNL     1      35.621 -21.862 -18.304  0.00  0.00    +0.387 N 
ATOM     21  N   UNL     1      35.829 -23.336 -15.826  0.00  0.00    +0.384 N 
ATOM     22  C   UNL     1      34.683 -22.945 -17.980  0.00  0.00    -0.100 C 
ATOM     23  C   UNL     1      36.921 -22.101 -17.666  0.00  0.00    -0.100 C 
ATOM     24  C   UNL     1      34.528 -23.098 -16.463  0.00  0.00    -0.101 C 
ATOM     25  C   UNL     1      36.765 -22.253 -16.149  0.00  0.00    -0.101 C 
ATOM     26  H   UNL     1      35.240 -20.988 -17.940  0.00  0.00    -0.079 HD
ATOM     27  H   UNL     1      36.211 -24.210 -16.191  0.00  0.00    -0.080 HD
BRANCH  21  28
ATOM     28  C   UNL     1      35.681 -23.479 -14.379  0.00  0.00    -0.078 C 
ATOM     29  C   UNL     1      34.315 -24.040 -14.020  0.00  0.00    -0.025 C 
ENDBRANCH  21  28
ENDBRANCH  19  20
ENDBRANCH  13  19
ENDBRANCH   5  16
BRANCH   2  30
ATOM     30  C   UNL     1      33.101 -12.844 -25.990  0.00  0.00    +0.093 C 
ATOM     31  C   UNL     1      33.286 -13.398 -27.401  0.00  0.00    +0.026 C 
BRANCH  30  32
ATOM     32  C   UNL     1      33.981 -11.647 -25.701  0.00  0.00    -0.005 C 
ATOM     33  C   UNL     1      35.009 -11.338 -26.575  0.00  0.00    -0.003 C 
ATOM     34  C   UNL     1      33.739 -10.887 -24.570  0.00  0.00    -0.003 C 
ATOM     35  C   UNL     1      35.820 -10.235 -26.309  0.00  0.00    -0.000 C 
ATOM     36  C   UNL     1      34.550  -9.784 -24.305  0.00  0.00    -0.000 C 
ATOM     37  C   UNL     1      35.590  -9.458 -25.174  0.00  0.00    -0.000 C 
ENDBRANCH  30  32
ENDBRANCH   2  30
TORSDOF 6
ENDMDL
MODEL 7
REMARK VINA RESULT:     -10.6      4.533      8.363
REMARK  Name = 10297043
REMARK  6 active torsions:
REMARK  status: ('A' for Active; 'I' for Inactive)
REMARK    1  A    between atoms: N_2  and  C_30
REMARK    2  A    between atoms: C_5  and  C_16
REMARK    3  A    between atoms: C_13  and  C_19
REMARK    4  A    between atoms: C_19  and  N_20
REMARK    5  A    between atoms: N_21  and  C_28
REMARK    6  A    between atoms: C_30  and  C_32
REMARK                            x       y       z     vdW  Elec       q    Type
REMARK                         _______ _______ _______ _____ _____    ______ ____
ROOT
ATOM      1  N   UNL     1      32.467  -9.756 -21.743  0.00  0.00    -0.301 N 
ATOM      2  N   UNL     1      32.351  -6.049 -24.573  0.00  0.00    -0.319 N 
ATOM      3  N   UNL     1      32.056  -7.639 -20.665  0.00  0.00    -0.233 NA
ATOM      4  N   UNL     1      32.014  -5.771 -22.226  0.00  0.00    -0.233 NA
ATOM      5  C   UNL     1      32.688 -10.196 -23.023  0.00  0.00    +0.046 C 
ATOM      6  C   UNL     1      32.404  -7.958 -23.062  0.00  0.00    +0.131 C 
ATOM      7  C   UNL     1      32.654  -9.102 -23.862  0.00  0.00    +0.003 C 
ATOM      8  C   UNL     1      32.293  -8.398 -21.749  0.00  0.00    +0.117 C 
ATOM      9  C   UNL     1      32.255  -6.588 -23.277  0.00  0.00    +0.113 C 
ATOM     10  C   UNL     1      31.932  -6.339 -21.001  0.00  0.00    +0.252 C 
ATOM     11  H   UNL     1      32.439 -10.329 -20.943  0.00  0.00    +0.153 HD
ATOM     12  H   UNL     1      32.526  -6.661 -25.324  0.00  0.00    +0.148 HD
ENDROOT
BRANCH   5  16
ATOM     13  C   UNL     1      33.337 -14.273 -23.909  0.00  0.00    -0.043 C 
ATOM     14  C   UNL     1      33.944 -13.294 -24.688  0.00  0.00    -0.006 C 
ATOM     15  C   UNL     1      32.518 -13.924 -22.841  0.00  0.00    -0.006 C 
ATOM     16  C   UNL     1      32.910 -11.589 -23.325  0.00  0.00    +0.013 C 
ATOM     17  C   UNL     1      33.730 -11.948 -24.394  0.00  0.00    +0.001 C 
ATOM     18  C   UNL     1      32.304 -12.577 -22.548  0.00  0.00    +0.001 C 
BRANCH  13  19
ATOM     19  C   UNL     1      33.567 -15.723 -24.225  0.00  0.00    -0.050 C 
BRANCH  19  20
ATOM     20  N   UNL     1      34.551 -16.327 -23.330  0.00  0.00    +0.387 N 
ATOM     21  N   UNL     1      35.521 -18.453 -21.627  0.00  0.00    +0.384 N 
ATOM     22  C   UNL     1      33.971 -16.565 -22.001  0.00  0.00    -0.100 C 
ATOM     23  C   UNL     1      35.071 -17.579 -23.894  0.00  0.00    -0.100 C 
ATOM     24  C   UNL     1      35.001 -17.202 -21.062  0.00  0.00    -0.101 C 
ATOM     25  C   UNL     1      36.101 -18.214 -22.954  0.00  0.00    -0.101 C 
ATOM     26  H   UNL     1      35.328 -15.673 -23.229  0.00  0.00    -0.079 HD
ATOM     27  H   UNL     1      34.743 -19.107 -21.730  0.00  0.00    -0.080 HD
BRANCH  21  28
ATOM     28  C   UNL     1      36.504 -19.059 -20.732  0.00  0.00    -0.078 C 
ATOM     29  C   UNL     1      36.083 -20.459 -20.321  0.00  0.00    -0.025 C 
ENDBRANCH  21  28
ENDBRANCH  19  20
ENDBRANCH  13  19
ENDBRANCH   5  16
BRANCH   2  30
ATOM     30  C   UNL     1      32.207  -4.652 -24.850  0.00  0.00    +0.093 C 
ATOM     31  C   UNL     1      30.737  -4.262 -24.709  0.00  0.00    +0.026 C 
BRANCH  30  32
ATOM     32  C   UNL     1      32.781  -4.324 -26.211  0.00  0.00    -0.005 C 
ATOM     33  C   UNL     1      34.005  -4.859 -26.574  0.00  0.00    -0.003 C 
ATOM     34  C   UNL     1      32.070  -3.498 -27.064  0.00  0.00    -0.003 C 
ATOM     35  C   UNL     1      34.535  -4.557 -27.828  0.00  0.00    -0.000 C 
ATOM     36  C   UNL     1      32.600  -3.196 -28.318  0.00  0.00    -0.000 C 
ATOM     37  C   UNL     1      33.832  -3.725 -28.700  0.00  0.00    -0.000 C 
ENDBRANCH  30  32
ENDBRANCH   2  30
TORSDOF 6
ENDMDL
MODEL 8
REMARK VINA RESULT:     -10.5      1.913     11.016
REMARK  Name = 10297043
REMARK  6 active torsions:
REMARK  status: ('A' for Active; 'I' for Inactive)
REMARK    1  A    between atoms: N_2  and  C_30
REMARK    2  A    between atoms: C_5  and  C_16
REMARK    3  A    between atoms: C_13  and  C_19
REMARK    4  A    between atoms: C_19  and  N_20
REMARK    5  A    between atoms: N_21  and  C_28
REMARK    6  A    between atoms: C_30  and  C_32
REMARK                            x       y       z     vdW  Elec       q    Type
REMARK                         _______ _______ _______ _____ _____    ______ ____
ROOT
ATOM      1  N   UNL     1      35.923 -17.784 -21.479  0.00  0.00    -0.301 N 
ATOM      2  N   UNL     1      34.138 -21.595 -19.464  0.00  0.00    -0.319 N 
ATOM      3  N   UNL     1      37.518 -19.498 -20.902  0.00  0.00    -0.233 NA
ATOM      4  N   UNL     1      36.488 -21.442 -19.858  0.00  0.00    -0.233 NA
ATOM      5  C   UNL     1      34.567 -17.609 -21.374  0.00  0.00    +0.046 C 
ATOM      6  C   UNL     1      35.109 -19.624 -20.513  0.00  0.00    +0.131 C 
ATOM      7  C   UNL     1      34.036 -18.735 -20.779  0.00  0.00    +0.003 C 
ATOM      8  C   UNL     1      36.269 -19.004 -20.960  0.00  0.00    +0.117 C 
ATOM      9  C   UNL     1      35.255 -20.889 -19.945  0.00  0.00    +0.113 C 
ATOM     10  C   UNL     1      37.528 -20.722 -20.335  0.00  0.00    +0.252 C 
ATOM     11  H   UNL     1      36.551 -17.133 -21.867  0.00  0.00    +0.153 HD
ATOM     12  H   UNL     1      33.250 -21.175 -19.537  0.00  0.00    +0.148 HD
ENDROOT
BRANCH   5  16
ATOM     13  C   UNL     1      32.650 -14.101 -22.729  0.00  0.00    -0.043 C 
ATOM     14  C   UNL     1      32.435 -14.543 -21.429  0.00  0.00    -0.006 C 
ATOM     15  C   UNL     1      33.489 -14.801 -23.588  0.00  0.00    -0.006 C 
ATOM     16  C   UNL     1      33.913 -16.411 -21.837  0.00  0.00    +0.013 C 
ATOM     17  C   UNL     1      33.069 -15.702 -20.982  0.00  0.00    +0.001 C 
ATOM     18  C   UNL     1      34.122 -15.960 -23.140  0.00  0.00    +0.001 C 
BRANCH  13  19
ATOM     19  C   UNL     1      31.968 -12.853 -23.212  0.00  0.00    -0.050 C 
BRANCH  19  20
ATOM     20  N   UNL     1      32.786 -11.663 -22.990  0.00  0.00    +0.387 N 
ATOM     21  N   UNL     1      33.555  -8.930 -23.535  0.00  0.00    +0.384 N 
ATOM     22  C   UNL     1      33.529 -11.308 -24.206  0.00  0.00    -0.100 C 
ATOM     23  C   UNL     1      31.957 -10.535 -22.548  0.00  0.00    -0.100 C 
ATOM     24  C   UNL     1      34.384 -10.057 -23.978  0.00  0.00    -0.101 C 
ATOM     25  C   UNL     1      32.814  -9.285 -22.319  0.00  0.00    -0.101 C 
ATOM     26  H   UNL     1      33.458 -11.876 -22.253  0.00  0.00    -0.079 HD
ATOM     27  H   UNL     1      32.881  -8.717 -24.272  0.00  0.00    -0.080 HD
BRANCH  21  28
ATOM     28  C   UNL     1      34.373  -7.738 -23.316  0.00  0.00    -0.078 C 
ATOM     29  C   UNL     1      34.432  -6.875 -24.564  0.00  0.00    -0.025 C 
ENDBRANCH  21  28
ENDBRANCH  19  20
ENDBRANCH  13  19
ENDBRANCH   5  16
BRANCH   2  30
ATOM     30  C   UNL     1      34.231 -22.896 -18.872  0.00  0.00    +0.093 C 
ATOM     31  C   UNL     1      33.788 -23.943 -19.892  0.00  0.00    +0.026 C 
BRANCH  30  32
ATOM     32  C   UNL     1      33.436 -22.945 -17.586  0.00  0.00    -0.005 C 
ATOM     33  C   UNL     1      32.072 -22.714 -17.626  0.00  0.00    -0.003 C 
ATOM     34  C   UNL     1      34.089 -23.220 -16.397  0.00  0.00    -0.003 C 
ATOM     35  C   UNL     1      31.339 -22.759 -16.441  0.00  0.00    -0.000 C 
ATOM     36  C   UNL     1      33.356 -23.264 -15.212  0.00  0.00    -0.000 C 
ATOM     37  C   UNL     1      31.981 -23.034 -15.233  0.00  0.00    -0.000 C 
ENDBRANCH  30  32
ENDBRANCH   2  30
TORSDOF 6
ENDMDL
MODEL 9
REMARK VINA RESULT:     -10.4      2.890     11.652
REMARK  Name = 10297043
REMARK  6 active torsions:
REMARK  status: ('A' for Active; 'I' for Inactive)
REMARK    1  A    between atoms: N_2  and  C_30
REMARK    2  A    between atoms: C_5  and  C_16
REMARK    3  A    between atoms: C_13  and  C_19
REMARK    4  A    between atoms: C_19  and  N_20
REMARK    5  A    between atoms: N_21  and  C_28
REMARK    6  A    between atoms: C_30  and  C_32
REMARK                            x       y       z     vdW  Elec       q    Type
REMARK                         _______ _______ _______ _____ _____    ______ ____
ROOT
ATOM      1  N   UNL     1      33.863 -14.696 -24.429  0.00  0.00    -0.301 N 
ATOM      2  N   UNL     1      33.597 -18.472 -21.702  0.00  0.00    -0.319 N 
ATOM      3  N   UNL     1      34.628 -16.753 -25.426  0.00  0.00    -0.233 NA
ATOM      4  N   UNL     1      34.448 -18.661 -23.925  0.00  0.00    -0.233 NA
ATOM      5  C   UNL     1      33.345 -14.307 -23.220  0.00  0.00    +0.046 C 
ATOM      6  C   UNL     1      33.752 -16.526 -23.157  0.00  0.00    +0.131 C 
ATOM      7  C   UNL     1      33.264 -15.421 -22.412  0.00  0.00    +0.003 C 
ATOM      8  C   UNL     1      34.117 -16.042 -24.407  0.00  0.00    +0.117 C 
ATOM      9  C   UNL     1      33.937 -17.890 -22.936  0.00  0.00    +0.113 C 
ATOM     10  C   UNL     1      34.759 -18.053 -25.092  0.00  0.00    +0.252 C 
ATOM     11  H   UNL     1      34.027 -14.099 -25.194  0.00  0.00    +0.153 HD
ATOM     12  H   UNL     1      33.226 -17.894 -20.996  0.00  0.00    +0.148 HD
ENDROOT
BRANCH   5  16
ATOM     13  C   UNL     1      32.283 -10.299 -22.424  0.00  0.00    -0.043 C 
ATOM     14  C   UNL     1      31.778 -11.316 -21.623  0.00  0.00    -0.006 C 
ATOM     15  C   UNL     1      33.133 -10.587 -23.485  0.00  0.00    -0.006 C 
ATOM     16  C   UNL     1      32.983 -12.938 -22.948  0.00  0.00    +0.013 C 
ATOM     17  C   UNL     1      32.130 -12.641 -21.886  0.00  0.00    +0.001 C 
ATOM     18  C   UNL     1      33.484 -11.911 -23.748  0.00  0.00    +0.001 C 
BRANCH  13  19
ATOM     19  C   UNL     1      31.905  -8.874 -22.142  0.00  0.00    -0.050 C 
BRANCH  19  20
ATOM     20  N   UNL     1      32.071  -8.021 -23.317  0.00  0.00    +0.387 N 
ATOM     21  N   UNL     1      32.406  -5.458 -24.612  0.00  0.00    +0.384 N 
ATOM     22  C   UNL     1      30.954  -7.076 -23.438  0.00  0.00    -0.100 C 
ATOM     23  C   UNL     1      33.349  -7.300 -23.262  0.00  0.00    -0.100 C 
ATOM     24  C   UNL     1      31.128  -6.178 -24.667  0.00  0.00    -0.101 C 
ATOM     25  C   UNL     1      33.522  -6.403 -24.493  0.00  0.00    -0.101 C 
ATOM     26  H   UNL     1      32.076  -8.621 -24.143  0.00  0.00    -0.079 HD
ATOM     27  H   UNL     1      32.402  -4.859 -23.785  0.00  0.00    -0.080 HD
BRANCH  21  28
ATOM     28  C   UNL     1      32.572  -4.604 -25.786  0.00  0.00    -0.078 C 
ATOM     29  C   UNL     1      33.755  -5.051 -26.628  0.00  0.00    -0.025 C 
ENDBRANCH  21  28
ENDBRANCH  19  20
ENDBRANCH  13  19
ENDBRANCH   5  16
BRANCH   2  30
ATOM     30  C   UNL     1      33.766 -19.866 -21.423  0.00  0.00    +0.093 C 
ATOM     31  C   UNL     1      32.545 -20.376 -20.661  0.00  0.00    +0.026 C 
BRANCH  30  32
ATOM     32  C   UNL     1      35.066 -20.100 -20.685  0.00  0.00    -0.005 C 
ATOM     33  C   UNL     1      35.128 -21.094 -19.723  0.00  0.00    -0.003 C 
ATOM     34  C   UNL     1      36.165 -19.314 -20.985  0.00  0.00    -0.003 C 
ATOM     35  C   UNL     1      36.326 -21.309 -19.043  0.00  0.00    -0.000 C 
ATOM     36  C   UNL     1      37.363 -19.529 -20.305  0.00  0.00    -0.000 C 
ATOM     37  C   UNL     1      37.444 -20.526 -19.333  0.00  0.00    -0.000 C 
ENDBRANCH  30  32
ENDBRANCH   2  30
TORSDOF 6
ENDMDL
