MODEL 1
REMARK VINA RESULT:      -7.9      0.000      0.000
REMARK  Name = 2515
REMARK  7 active torsions:
REMARK  status: ('A' for Active; 'I' for Inactive)
REMARK    1  A    between atoms: N_1  and  C_17
REMARK    2  A    between atoms: N_1  and  C_19
REMARK    3  A    between atoms: N_4  and  N_11
REMARK    4  A    between atoms: C_12  and  O_14
REMARK    5  A    between atoms: O_14  and  C_15
REMARK    6  A    between atoms: C_19  and  C_20
REMARK    7  A    between atoms: C_20  and  O_22
REMARK                            x       y       z     vdW  Elec       q    Type
REMARK                         _______ _______ _______ _____ _____    ______ ____
ROOT
ATOM      1  N   UNL     1      35.043 -21.234 -19.453  0.00  0.00    -0.289 N 
ATOM      2  N   UNL     1      36.518 -19.797 -20.654  0.00  0.00    -0.132 NA
ATOM      3  N   UNL     1      36.720 -18.780 -21.535  0.00  0.00    -0.130 NA
ATOM      4  N   UNL     1      35.863 -17.121 -23.018  0.00  0.00    -0.244 N 
ATOM      5  C   UNL     1      35.252 -20.188 -20.361  0.00  0.00    +0.154 C 
ATOM      6  C   UNL     1      34.145 -19.582 -20.933  0.00  0.00    +0.039 C 
ATOM      7  C   UNL     1      34.351 -18.547 -21.830  0.00  0.00    +0.040 C 
ATOM      8  C   UNL     1      35.653 -18.179 -22.102  0.00  0.00    +0.166 C 
ATOM      9  H   UNL     1      36.756 -16.961 -23.400  0.00  0.00    +0.172 HD
ENDROOT
BRANCH   4  11
ATOM     10  O   UNL     1      35.052 -16.791 -25.621  0.00  0.00    -0.225 OA
ATOM     11  N   UNL     1      34.814 -16.331 -23.361  0.00  0.00    -0.200 N 
ATOM     12  C   UNL     1      34.482 -16.228 -24.692  0.00  0.00    +0.418 C 
ATOM     13  H   UNL     1      34.305 -15.844 -22.674  0.00  0.00    +0.176 HD
BRANCH  12  14
ATOM     14  O   UNL     1      33.407 -15.395 -24.833  0.00  0.00    -0.434 OA
BRANCH  14  15
ATOM     15  C   UNL     1      32.918 -15.230 -26.169  0.00  0.00    +0.210 C 
ATOM     16  C   UNL     1      33.088 -13.783 -26.582  0.00  0.00    +0.051 C 
ENDBRANCH  14  15
ENDBRANCH  12  14
ENDBRANCH   4  11
BRANCH   1  17
ATOM     17  C   UNL     1      33.682 -21.663 -19.128  0.00  0.00    +0.092 C 
ATOM     18  C   UNL     1      33.717 -22.963 -18.347  0.00  0.00    +0.023 C 
ENDBRANCH   1  17
BRANCH   1  19
ATOM     19  C   UNL     1      36.150 -21.922 -18.828  0.00  0.00    +0.121 C 
BRANCH  19  20
ATOM     20  C   UNL     1      36.432 -21.312 -17.456  0.00  0.00    +0.130 C 
ATOM     21  C   UNL     1      37.029 -22.343 -16.508  0.00  0.00    +0.034 C 
BRANCH  20  22
ATOM     22  O   UNL     1      37.365 -20.246 -17.617  0.00  0.00    -0.383 OA
ATOM     23  H   UNL     1      37.897 -20.398 -18.414  0.00  0.00    +0.210 HD
ENDBRANCH  20  22
ENDBRANCH  19  20
ENDBRANCH   1  19
TORSDOF 7
ENDMDL
MODEL 2
REMARK VINA RESULT:      -7.8      8.980      9.933
REMARK  Name = 2515
REMARK  7 active torsions:
REMARK  status: ('A' for Active; 'I' for Inactive)
REMARK    1  A    between atoms: N_1  and  C_17
REMARK    2  A    between atoms: N_1  and  C_19
REMARK    3  A    between atoms: N_4  and  N_11
REMARK    4  A    between atoms: C_12  and  O_14
REMARK    5  A    between atoms: O_14  and  C_15
REMARK    6  A    between atoms: C_19  and  C_20
REMARK    7  A    between atoms: C_20  and  O_22
REMARK                            x       y       z     vdW  Elec       q    Type
REMARK                         _______ _______ _______ _____ _____    ______ ____
ROOT
ATOM      1  N   UNL     1      35.880 -24.055 -14.228  0.00  0.00    -0.289 N 
ATOM      2  N   UNL     1      33.814 -23.952 -13.039  0.00  0.00    -0.132 NA
ATOM      3  N   UNL     1      32.469 -23.755 -13.024  0.00  0.00    -0.130 NA
ATOM      4  N   UNL     1      30.433 -23.257 -14.162  0.00  0.00    -0.244 N 
ATOM      5  C   UNL     1      34.494 -23.851 -14.210  0.00  0.00    +0.154 C 
ATOM      6  C   UNL     1      33.857 -23.550 -15.404  0.00  0.00    +0.039 C 
ATOM      7  C   UNL     1      32.488 -23.350 -15.388  0.00  0.00    +0.040 C 
ATOM      8  C   UNL     1      31.833 -23.461 -14.177  0.00  0.00    +0.166 C 
ATOM      9  H   UNL     1      29.958 -23.119 -13.310  0.00  0.00    +0.172 HD
ENDROOT
BRANCH   4  11
ATOM     10  O   UNL     1      28.448 -25.067 -14.730  0.00  0.00    -0.225 OA
ATOM     11  N   UNL     1      29.756 -23.252 -15.338  0.00  0.00    -0.200 N 
ATOM     12  C   UNL     1      28.778 -24.199 -15.532  0.00  0.00    +0.418 C 
ATOM     13  H   UNL     1      29.962 -22.587 -16.034  0.00  0.00    +0.176 HD
BRANCH  12  14
ATOM     14  O   UNL     1      28.215 -24.031 -16.766  0.00  0.00    -0.434 OA
BRANCH  14  15
ATOM     15  C   UNL     1      27.852 -22.688 -17.108  0.00  0.00    +0.210 C 
ATOM     16  C   UNL     1      26.820 -22.189 -16.117  0.00  0.00    +0.051 C 
ENDBRANCH  14  15
ENDBRANCH  12  14
ENDBRANCH   4  11
BRANCH   1  17
ATOM     17  C   UNL     1      36.621 -23.950 -15.484  0.00  0.00    +0.092 C 
ATOM     18  C   UNL     1      37.436 -22.671 -15.503  0.00  0.00    +0.023 C 
ENDBRANCH   1  17
BRANCH   1  19
ATOM     19  C   UNL     1      36.612 -24.358 -13.019  0.00  0.00    +0.121 C 
BRANCH  19  20
ATOM     20  C   UNL     1      37.254 -25.739 -13.133  0.00  0.00    +0.130 C 
ATOM     21  C   UNL     1      38.773 -25.642 -13.133  0.00  0.00    +0.034 C 
BRANCH  20  22
ATOM     22  O   UNL     1      36.848 -26.523 -12.012  0.00  0.00    -0.383 OA
ATOM     23  H   UNL     1      36.101 -26.091 -11.569  0.00  0.00    +0.210 HD
ENDBRANCH  20  22
ENDBRANCH  19  20
ENDBRANCH   1  19
TORSDOF 7
ENDMDL
MODEL 3
REMARK VINA RESULT:      -7.6      3.457      5.706
REMARK  Name = 2515
REMARK  7 active torsions:
REMARK  status: ('A' for Active; 'I' for Inactive)
REMARK    1  A    between atoms: N_1  and  C_17
REMARK    2  A    between atoms: N_1  and  C_19
REMARK    3  A    between atoms: N_4  and  N_11
REMARK    4  A    between atoms: C_12  and  O_14
REMARK    5  A    between atoms: O_14  and  C_15
REMARK    6  A    between atoms: C_19  and  C_20
REMARK    7  A    between atoms: C_20  and  O_22
REMARK                            x       y       z     vdW  Elec       q    Type
REMARK                         _______ _______ _______ _____ _____    ______ ____
ROOT
ATOM      1  N   UNL     1      36.266 -23.875 -15.007  0.00  0.00    -0.289 N 
ATOM      2  N   UNL     1      34.643 -23.597 -16.732  0.00  0.00    -0.132 NA
ATOM      3  N   UNL     1      34.227 -22.991 -17.876  0.00  0.00    -0.130 NA
ATOM      4  N   UNL     1      34.579 -21.424 -19.638  0.00  0.00    -0.244 N 
ATOM      5  C   UNL     1      35.835 -23.250 -16.185  0.00  0.00    +0.154 C 
ATOM      6  C   UNL     1      36.654 -22.290 -16.758  0.00  0.00    +0.039 C 
ATOM      7  C   UNL     1      36.230 -21.673 -17.923  0.00  0.00    +0.040 C 
ATOM      8  C   UNL     1      35.011 -22.053 -18.447  0.00  0.00    +0.166 C 
ATOM      9  H   UNL     1      33.643 -21.503 -19.934  0.00  0.00    +0.172 HD
ENDROOT
BRANCH   4  11
ATOM     10  O   UNL     1      33.917 -19.073 -20.894  0.00  0.00    -0.225 OA
ATOM     11  N   UNL     1      35.473 -20.708 -20.366  0.00  0.00    -0.200 N 
ATOM     12  C   UNL     1      35.049 -19.541 -20.959  0.00  0.00    +0.418 C 
ATOM     13  H   UNL     1      36.402 -21.018 -20.466  0.00  0.00    +0.176 HD
BRANCH  12  14
ATOM     14  O   UNL     1      36.087 -18.970 -21.639  0.00  0.00    -0.434 OA
BRANCH  14  15
ATOM     15  C   UNL     1      35.735 -17.912 -22.540  0.00  0.00    +0.210 C 
ATOM     16  C   UNL     1      35.261 -18.514 -23.846  0.00  0.00    +0.051 C 
ENDBRANCH  14  15
ENDBRANCH  12  14
ENDBRANCH   4  11
BRANCH   1  17
ATOM     17  C   UNL     1      37.551 -23.509 -14.410  0.00  0.00    +0.092 C 
ATOM     18  C   UNL     1      38.326 -24.758 -14.034  0.00  0.00    +0.023 C 
ENDBRANCH   1  17
BRANCH   1  19
ATOM     19  C   UNL     1      35.459 -24.875 -14.346  0.00  0.00    +0.121 C 
BRANCH  19  20
ATOM     20  C   UNL     1      34.622 -24.225 -13.247  0.00  0.00    +0.130 C 
ATOM     21  C   UNL     1      33.142 -24.234 -13.604  0.00  0.00    +0.034 C 
BRANCH  20  22
ATOM     22  O   UNL     1      34.805 -24.962 -12.040  0.00  0.00    -0.383 OA
ATOM     23  H   UNL     1      35.508 -24.551 -11.513  0.00  0.00    +0.210 HD
ENDBRANCH  20  22
ENDBRANCH  19  20
ENDBRANCH   1  19
TORSDOF 7
ENDMDL
MODEL 4
REMARK VINA RESULT:      -7.6      4.837      9.044
REMARK  Name = 2515
REMARK  7 active torsions:
REMARK  status: ('A' for Active; 'I' for Inactive)
REMARK    1  A    between atoms: N_1  and  C_17
REMARK    2  A    between atoms: N_1  and  C_19
REMARK    3  A    between atoms: N_4  and  N_11
REMARK    4  A    between atoms: C_12  and  O_14
REMARK    5  A    between atoms: O_14  and  C_15
REMARK    6  A    between atoms: C_19  and  C_20
REMARK    7  A    between atoms: C_20  and  O_22
REMARK                            x       y       z     vdW  Elec       q    Type
REMARK                         _______ _______ _______ _____ _____    ______ ____
ROOT
ATOM      1  N   UNL     1      31.472 -10.960 -21.939  0.00  0.00    -0.289 N 
ATOM      2  N   UNL     1      33.051 -11.715 -23.560  0.00  0.00    -0.132 NA
ATOM      3  N   UNL     1      33.819 -12.704 -24.090  0.00  0.00    -0.130 NA
ATOM      4  N   UNL     1      34.584 -14.963 -24.085  0.00  0.00    -0.244 N 
ATOM      5  C   UNL     1      32.266 -11.978 -22.485  0.00  0.00    +0.154 C 
ATOM      6  C   UNL     1      32.218 -13.234 -21.901  0.00  0.00    +0.039 C 
ATOM      7  C   UNL     1      33.000 -14.241 -22.441  0.00  0.00    +0.040 C 
ATOM      8  C   UNL     1      33.786 -13.933 -23.533  0.00  0.00    +0.166 C 
ATOM      9  H   UNL     1      35.306 -14.750 -24.719  0.00  0.00    +0.172 HD
ENDROOT
BRANCH   4  11
ATOM     10  O   UNL     1      34.892 -17.067 -25.822  0.00  0.00    -0.225 OA
ATOM     11  N   UNL     1      34.340 -16.248 -23.725  0.00  0.00    -0.200 N 
ATOM     12  C   UNL     1      34.522 -17.236 -24.664  0.00  0.00    +0.418 C 
ATOM     13  H   UNL     1      34.039 -16.467 -22.813  0.00  0.00    +0.176 HD
BRANCH  12  14
ATOM     14  O   UNL     1      34.230 -18.452 -24.114  0.00  0.00    -0.434 OA
BRANCH  14  15
ATOM     15  C   UNL     1      35.146 -18.924 -23.119  0.00  0.00    +0.210 C 
ATOM     16  C   UNL     1      34.364 -19.391 -21.910  0.00  0.00    +0.051 C 
ENDBRANCH  14  15
ENDBRANCH  12  14
ENDBRANCH   4  11
BRANCH   1  17
ATOM     17  C   UNL     1      30.621 -11.234 -20.782  0.00  0.00    +0.092 C 
ATOM     18  C   UNL     1      31.371 -10.928 -19.499  0.00  0.00    +0.023 C 
ENDBRANCH   1  17
BRANCH   1  19
ATOM     19  C   UNL     1      31.481  -9.623 -22.488  0.00  0.00    +0.121 C 
BRANCH  19  20
ATOM     20  C   UNL     1      32.549  -8.783 -21.791  0.00  0.00    +0.130 C 
ATOM     21  C   UNL     1      33.484  -8.132 -22.801  0.00  0.00    +0.034 C 
BRANCH  20  22
ATOM     22  O   UNL     1      31.903  -7.757 -21.041  0.00  0.00    -0.383 OA
ATOM     23  H   UNL     1      31.841  -8.026 -20.111  0.00  0.00    +0.210 HD
ENDBRANCH  20  22
ENDBRANCH  19  20
ENDBRANCH   1  19
TORSDOF 7
ENDMDL
MODEL 5
REMARK VINA RESULT:      -7.6      1.971      8.107
REMARK  Name = 2515
REMARK  7 active torsions:
REMARK  status: ('A' for Active; 'I' for Inactive)
REMARK    1  A    between atoms: N_1  and  C_17
REMARK    2  A    between atoms: N_1  and  C_19
REMARK    3  A    between atoms: N_4  and  N_11
REMARK    4  A    between atoms: C_12  and  O_14
REMARK    5  A    between atoms: O_14  and  C_15
REMARK    6  A    between atoms: C_19  and  C_20
REMARK    7  A    between atoms: C_20  and  O_22
REMARK                            x       y       z     vdW  Elec       q    Type
REMARK                         _______ _______ _______ _____ _____    ______ ____
ROOT
ATOM      1  N   UNL     1      33.487 -14.611 -23.223  0.00  0.00    -0.289 N 
ATOM      2  N   UNL     1      35.125 -16.332 -23.429  0.00  0.00    -0.132 NA
ATOM      3  N   UNL     1      35.728 -17.453 -22.949  0.00  0.00    -0.130 NA
ATOM      4  N   UNL     1      35.929 -19.146 -21.283  0.00  0.00    -0.244 N 
ATOM      5  C   UNL     1      34.110 -15.764 -22.729  0.00  0.00    +0.154 C 
ATOM      6  C   UNL     1      33.661 -16.292 -21.529  0.00  0.00    +0.039 C 
ATOM      7  C   UNL     1      34.275 -17.433 -21.041  0.00  0.00    +0.040 C 
ATOM      8  C   UNL     1      35.303 -17.980 -21.782  0.00  0.00    +0.166 C 
ATOM      9  H   UNL     1      36.788 -19.451 -21.656  0.00  0.00    +0.172 HD
ENDROOT
BRANCH   4  11
ATOM     10  O   UNL     1      36.973 -21.472 -20.262  0.00  0.00    -0.225 OA
ATOM     11  N   UNL     1      35.329 -19.839 -20.282  0.00  0.00    -0.200 N 
ATOM     12  C   UNL     1      35.927 -20.994 -19.836  0.00  0.00    +0.418 C 
ATOM     13  H   UNL     1      34.485 -19.521 -19.886  0.00  0.00    +0.176 HD
BRANCH  12  14
ATOM     14  O   UNL     1      35.177 -21.541 -18.832  0.00  0.00    -0.434 OA
BRANCH  14  15
ATOM     15  C   UNL     1      33.937 -22.137 -19.234  0.00  0.00    +0.210 C 
ATOM     16  C   UNL     1      33.300 -22.804 -18.033  0.00  0.00    +0.051 C 
ENDBRANCH  14  15
ENDBRANCH  12  14
ENDBRANCH   4  11
BRANCH   1  17
ATOM     17  C   UNL     1      32.391 -13.991 -22.477  0.00  0.00    +0.092 C 
ATOM     18  C   UNL     1      32.427 -12.485 -22.652  0.00  0.00    +0.023 C 
ENDBRANCH   1  17
BRANCH   1  19
ATOM     19  C   UNL     1      33.911 -13.997 -24.460  0.00  0.00    +0.121 C 
BRANCH  19  20
ATOM     20  C   UNL     1      33.128 -14.589 -25.630  0.00  0.00    +0.130 C 
ATOM     21  C   UNL     1      32.998 -13.588 -26.769  0.00  0.00    +0.034 C 
BRANCH  20  22
ATOM     22  O   UNL     1      33.826 -15.737 -26.109  0.00  0.00    -0.383 OA
ATOM     23  H   UNL     1      33.191 -16.378 -26.464  0.00  0.00    +0.210 HD
ENDBRANCH  20  22
ENDBRANCH  19  20
ENDBRANCH   1  19
TORSDOF 7
ENDMDL
MODEL 6
REMARK VINA RESULT:      -7.6      5.445     10.000
REMARK  Name = 2515
REMARK  7 active torsions:
REMARK  status: ('A' for Active; 'I' for Inactive)
REMARK    1  A    between atoms: N_1  and  C_17
REMARK    2  A    between atoms: N_1  and  C_19
REMARK    3  A    between atoms: N_4  and  N_11
REMARK    4  A    between atoms: C_12  and  O_14
REMARK    5  A    between atoms: O_14  and  C_15
REMARK    6  A    between atoms: C_19  and  C_20
REMARK    7  A    between atoms: C_20  and  O_22
REMARK                            x       y       z     vdW  Elec       q    Type
REMARK                         _______ _______ _______ _____ _____    ______ ____
ROOT
ATOM      1  N   UNL     1      32.654  -8.978 -22.909  0.00  0.00    -0.289 N 
ATOM      2  N   UNL     1      31.949 -11.061 -21.987  0.00  0.00    -0.132 NA
ATOM      3  N   UNL     1      31.952 -12.421 -22.002  0.00  0.00    -0.130 NA
ATOM      4  N   UNL     1      32.662 -14.482 -22.967  0.00  0.00    -0.244 N 
ATOM      5  C   UNL     1      32.654 -10.379 -22.924  0.00  0.00    +0.154 C 
ATOM      6  C   UNL     1      33.386 -11.026 -23.908  0.00  0.00    +0.039 C 
ATOM      7  C   UNL     1      33.389 -12.410 -23.922  0.00  0.00    +0.040 C 
ATOM      8  C   UNL     1      32.658 -13.068 -22.952  0.00  0.00    +0.166 C 
ATOM      9  H   UNL     1      32.004 -14.989 -22.440  0.00  0.00    +0.172 HD
ENDROOT
BRANCH   4  11
ATOM     10  O   UNL     1      34.616 -16.070 -21.869  0.00  0.00    -0.225 OA
ATOM     11  N   UNL     1      33.587 -15.129 -23.722  0.00  0.00    -0.200 N 
ATOM     12  C   UNL     1      34.527 -15.903 -23.082  0.00  0.00    +0.418 C 
ATOM     13  H   UNL     1      33.583 -15.046 -24.703  0.00  0.00    +0.176 HD
BRANCH  12  14
ATOM     14  O   UNL     1      35.361 -16.468 -24.005  0.00  0.00    -0.434 OA
BRANCH  14  15
ATOM     15  C   UNL     1      34.720 -17.108 -25.115  0.00  0.00    +0.210 C 
ATOM     16  C   UNL     1      34.488 -18.566 -24.776  0.00  0.00    +0.051 C 
ENDBRANCH  14  15
ENDBRANCH  12  14
ENDBRANCH   4  11
BRANCH   1  17
ATOM     17  C   UNL     1      33.412  -8.232 -23.914  0.00  0.00    +0.092 C 
ATOM     18  C   UNL     1      34.705  -7.715 -23.314  0.00  0.00    +0.023 C 
ENDBRANCH   1  17
BRANCH   1  19
ATOM     19  C   UNL     1      31.902  -8.236 -21.922  0.00  0.00    +0.121 C 
BRANCH  19  20
ATOM     20  C   UNL     1      32.801  -7.891 -20.736  0.00  0.00    +0.130 C 
ATOM     21  C   UNL     1      32.414  -6.553 -20.123  0.00  0.00    +0.034 C 
BRANCH  20  22
ATOM     22  O   UNL     1      32.655  -8.906 -19.746  0.00  0.00    -0.383 OA
ATOM     23  H   UNL     1      32.300  -8.516 -18.932  0.00  0.00    +0.210 HD
ENDBRANCH  20  22
ENDBRANCH  19  20
ENDBRANCH   1  19
TORSDOF 7
ENDMDL
MODEL 7
REMARK VINA RESULT:      -7.5      3.736      6.220
REMARK  Name = 2515
REMARK  7 active torsions:
REMARK  status: ('A' for Active; 'I' for Inactive)
REMARK    1  A    between atoms: N_1  and  C_17
REMARK    2  A    between atoms: N_1  and  C_19
REMARK    3  A    between atoms: N_4  and  N_11
REMARK    4  A    between atoms: C_12  and  O_14
REMARK    5  A    between atoms: O_14  and  C_15
REMARK    6  A    between atoms: C_19  and  C_20
REMARK    7  A    between atoms: C_20  and  O_22
REMARK                            x       y       z     vdW  Elec       q    Type
REMARK                         _______ _______ _______ _____ _____    ______ ____
ROOT
ATOM      1  N   UNL     1      37.001 -24.297 -14.740  0.00  0.00    -0.289 N 
ATOM      2  N   UNL     1      35.132 -23.898 -16.166  0.00  0.00    -0.132 NA
ATOM      3  N   UNL     1      34.553 -23.221 -17.194  0.00  0.00    -0.130 NA
ATOM      4  N   UNL     1      34.656 -21.558 -18.899  0.00  0.00    -0.244 N 
ATOM      5  C   UNL     1      36.403 -23.599 -15.798  0.00  0.00    +0.154 C 
ATOM      6  C   UNL     1      37.142 -22.617 -16.440  0.00  0.00    +0.039 C 
ATOM      7  C   UNL     1      36.552 -21.929 -17.486  0.00  0.00    +0.040 C 
ATOM      8  C   UNL     1      35.257 -22.261 -17.830  0.00  0.00    +0.166 C 
ATOM      9  H   UNL     1      33.684 -21.607 -19.046  0.00  0.00    +0.172 HD
ENDROOT
BRANCH   4  11
ATOM     10  O   UNL     1      33.619 -19.831 -20.766  0.00  0.00    -0.225 OA
ATOM     11  N   UNL     1      35.440 -20.812 -19.719  0.00  0.00    -0.200 N 
ATOM     12  C   UNL     1      34.829 -19.975 -20.624  0.00  0.00    +0.418 C 
ATOM     13  H   UNL     1      36.421 -20.871 -19.667  0.00  0.00    +0.176 HD
BRANCH  12  14
ATOM     14  O   UNL     1      35.779 -19.314 -21.351  0.00  0.00    -0.434 OA
BRANCH  14  15
ATOM     15  C   UNL     1      35.296 -18.274 -22.209  0.00  0.00    +0.210 C 
ATOM     16  C   UNL     1      35.314 -18.767 -23.641  0.00  0.00    +0.051 C 
ENDBRANCH  14  15
ENDBRANCH  12  14
ENDBRANCH   4  11
BRANCH   1  17
ATOM     17  C   UNL     1      38.372 -23.984 -14.336  0.00  0.00    +0.092 C 
ATOM     18  C   UNL     1      39.316 -25.076 -14.803  0.00  0.00    +0.023 C 
ENDBRANCH   1  17
BRANCH   1  19
ATOM     19  C   UNL     1      36.287 -25.324 -14.016  0.00  0.00    +0.121 C 
BRANCH  19  20
ATOM     20  C   UNL     1      36.598 -25.220 -12.525  0.00  0.00    +0.130 C 
ATOM     21  C   UNL     1      35.454 -24.559 -11.769  0.00  0.00    +0.034 C 
BRANCH  20  22
ATOM     22  O   UNL     1      36.786 -26.536 -12.008  0.00  0.00    -0.383 OA
ATOM     23  H   UNL     1      35.922 -26.956 -11.871  0.00  0.00    +0.210 HD
ENDBRANCH  20  22
ENDBRANCH  19  20
ENDBRANCH   1  19
TORSDOF 7
ENDMDL
MODEL 8
REMARK VINA RESULT:      -7.4      4.890      9.090
REMARK  Name = 2515
REMARK  7 active torsions:
REMARK  status: ('A' for Active; 'I' for Inactive)
REMARK    1  A    between atoms: N_1  and  C_17
REMARK    2  A    between atoms: N_1  and  C_19
REMARK    3  A    between atoms: N_4  and  N_11
REMARK    4  A    between atoms: C_12  and  O_14
REMARK    5  A    between atoms: O_14  and  C_15
REMARK    6  A    between atoms: C_19  and  C_20
REMARK    7  A    between atoms: C_20  and  O_22
REMARK                            x       y       z     vdW  Elec       q    Type
REMARK                         _______ _______ _______ _____ _____    ______ ____
ROOT
ATOM      1  N   UNL     1      31.397 -11.358 -21.392  0.00  0.00    -0.289 N 
ATOM      2  N   UNL     1      32.658 -12.727 -22.884  0.00  0.00    -0.132 NA
ATOM      3  N   UNL     1      33.380 -13.852 -23.130  0.00  0.00    -0.130 NA
ATOM      4  N   UNL     1      34.323 -15.913 -22.389  0.00  0.00    -0.244 N 
ATOM      5  C   UNL     1      32.144 -12.517 -21.646  0.00  0.00    +0.154 C 
ATOM      6  C   UNL     1      32.330 -13.420 -20.611  0.00  0.00    +0.039 C 
ATOM      7  C   UNL     1      33.066 -14.565 -20.862  0.00  0.00    +0.040 C 
ATOM      8  C   UNL     1      33.572 -14.742 -22.134  0.00  0.00    +0.166 C 
ATOM      9  H   UNL     1      34.873 -15.987 -23.203  0.00  0.00    +0.172 HD
ENDROOT
BRANCH   4  11
ATOM     10  O   UNL     1      36.082 -18.021 -22.457  0.00  0.00    -0.225 OA
ATOM     11  N   UNL     1      34.274 -16.934 -21.496  0.00  0.00    -0.200 N 
ATOM     12  C   UNL     1      35.198 -17.947 -21.609  0.00  0.00    +0.418 C 
ATOM     13  H   UNL     1      33.593 -16.948 -20.785  0.00  0.00    +0.176 HD
BRANCH  12  14
ATOM     14  O   UNL     1      34.987 -18.872 -20.626  0.00  0.00    -0.434 OA
BRANCH  14  15
ATOM     15  C   UNL     1      34.357 -20.090 -21.040  0.00  0.00    +0.210 C 
ATOM     16  C   UNL     1      33.056 -20.253 -20.283  0.00  0.00    +0.051 C 
ENDBRANCH  14  15
ENDBRANCH  12  14
ENDBRANCH   4  11
BRANCH   1  17
ATOM     17  C   UNL     1      30.838 -11.123 -20.061  0.00  0.00    +0.092 C 
ATOM     18  C   UNL     1      31.809 -10.314 -19.222  0.00  0.00    +0.023 C 
ENDBRANCH   1  17
BRANCH   1  19
ATOM     19  C   UNL     1      31.173 -10.366 -22.419  0.00  0.00    +0.121 C 
BRANCH  19  20
ATOM     20  C   UNL     1      32.208  -9.250 -22.297  0.00  0.00    +0.130 C 
ATOM     21  C   UNL     1      33.122  -9.210 -23.514  0.00  0.00    +0.034 C 
BRANCH  20  22
ATOM     22  O   UNL     1      31.521  -8.003 -22.202  0.00  0.00    -0.383 OA
ATOM     23  H   UNL     1      32.144  -7.277 -22.362  0.00  0.00    +0.210 HD
ENDBRANCH  20  22
ENDBRANCH  19  20
ENDBRANCH   1  19
TORSDOF 7
ENDMDL
MODEL 9
REMARK VINA RESULT:      -7.4      3.708      8.509
REMARK  Name = 2515
REMARK  7 active torsions:
REMARK  status: ('A' for Active; 'I' for Inactive)
REMARK    1  A    between atoms: N_1  and  C_17
REMARK    2  A    between atoms: N_1  and  C_19
REMARK    3  A    between atoms: N_4  and  N_11
REMARK    4  A    between atoms: C_12  and  O_14
REMARK    5  A    between atoms: O_14  and  C_15
REMARK    6  A    between atoms: C_19  and  C_20
REMARK    7  A    between atoms: C_20  and  O_22
REMARK                            x       y       z     vdW  Elec       q    Type
REMARK                         _______ _______ _______ _____ _____    ______ ____
ROOT
ATOM      1  N   UNL     1      32.393 -12.807 -21.881  0.00  0.00    -0.289 N 
ATOM      2  N   UNL     1      33.678 -14.365 -23.149  0.00  0.00    -0.132 NA
ATOM      3  N   UNL     1      34.466 -15.471 -23.213  0.00  0.00    -0.130 NA
ATOM      4  N   UNL     1      35.584 -17.285 -22.142  0.00  0.00    -0.244 N 
ATOM      5  C   UNL     1      33.207 -13.946 -21.948  0.00  0.00    +0.154 C 
ATOM      6  C   UNL     1      33.503 -14.613 -20.770  0.00  0.00    +0.039 C 
ATOM      7  C   UNL     1      34.305 -15.739 -20.835  0.00  0.00    +0.040 C 
ATOM      8  C   UNL     1      34.765 -16.133 -22.076  0.00  0.00    +0.166 C 
ATOM      9  H   UNL     1      36.101 -17.484 -22.955  0.00  0.00    +0.172 HD
ENDROOT
BRANCH   4  11
ATOM     10  O   UNL     1      34.556 -19.831 -22.170  0.00  0.00    -0.225 OA
ATOM     11  N   UNL     1      35.647 -18.109 -21.066  0.00  0.00    -0.200 N 
ATOM     12  C   UNL     1      35.104 -19.368 -21.174  0.00  0.00    +0.418 C 
ATOM     13  H   UNL     1      36.071 -17.812 -20.228  0.00  0.00    +0.176 HD
BRANCH  12  14
ATOM     14  O   UNL     1      35.267 -20.041 -19.996  0.00  0.00    -0.434 OA
BRANCH  14  15
ATOM     15  C   UNL     1      36.448 -20.846 -19.895  0.00  0.00    +0.210 C 
ATOM     16  C   UNL     1      36.405 -21.624 -18.597  0.00  0.00    +0.051 C 
ENDBRANCH  14  15
ENDBRANCH  12  14
ENDBRANCH   4  11
BRANCH   1  17
ATOM     17  C   UNL     1      31.878 -12.347 -20.592  0.00  0.00    +0.092 C 
ATOM     18  C   UNL     1      30.730 -11.379 -20.803  0.00  0.00    +0.023 C 
ENDBRANCH   1  17
BRANCH   1  19
ATOM     19  C   UNL     1      32.054 -12.053 -23.067  0.00  0.00    +0.121 C 
BRANCH  19  20
ATOM     20  C   UNL     1      33.086 -10.952 -23.296  0.00  0.00    +0.130 C 
ATOM     21  C   UNL     1      33.881 -11.198 -24.571  0.00  0.00    +0.034 C 
BRANCH  20  22
ATOM     22  O   UNL     1      32.403  -9.706 -23.417  0.00  0.00    -0.383 OA
ATOM     23  H   UNL     1      32.561  -9.335 -24.299  0.00  0.00    +0.210 HD
ENDBRANCH  20  22
ENDBRANCH  19  20
ENDBRANCH   1  19
TORSDOF 7
ENDMDL
