MODEL 1
REMARK VINA RESULT:     -10.9      0.000      0.000
REMARK  Name = 445951
REMARK  8 active torsions:
REMARK  status: ('A' for Active; 'I' for Inactive)
REMARK    1  A    between atoms: N_1  and  C_20
REMARK    2  A    between atoms: N_3  and  C_13
REMARK    3  A    between atoms: C_19  and  O_25
REMARK    4  A    between atoms: O_25  and  C_26
REMARK    5  A    between atoms: C_26  and  C_27
REMARK    6  A    between atoms: C_27  and  O_28
REMARK    7  A    between atoms: C_27  and  C_30
REMARK    8  A    between atoms: C_30  and  N_31
REMARK                            x       y       z     vdW  Elec       q    Type
REMARK                         _______ _______ _______ _____ _____    ______ ____
ROOT
ATOM      1  N   UNL     1      33.374 -22.594 -18.357  0.00  0.00    -0.301 N 
ATOM      2  H   UNL     1      32.550 -22.890 -18.807  0.00  0.00    +0.153 HD
ATOM      3  N   UNL     1      33.910 -19.489 -21.951  0.00  0.00    -0.298 N 
ATOM      4  N   UNL     1      35.553 -21.856 -18.970  0.00  0.00    -0.233 NA
ATOM      5  N   UNL     1      35.823 -20.290 -20.782  0.00  0.00    -0.233 NA
ATOM      6  C   UNL     1      34.216 -21.816 -19.175  0.00  0.00    +0.113 C 
ATOM      7  C   UNL     1      33.624 -21.042 -20.156  0.00  0.00    +0.122 C 
ATOM      8  C   UNL     1      34.484 -20.294 -20.936  0.00  0.00    +0.113 C 
ATOM      9  C   UNL     1      36.284 -21.081 -19.795  0.00  0.00    +0.252 C 
ATOM     10  H   UNL     1      33.072 -19.852 -22.320  0.00  0.00    +0.153 HD
ENDROOT
BRANCH   3  13
ATOM     11  F   UNL     1      33.991 -17.133 -20.475  0.00  0.00    -0.203 F 
ATOM     12  F   UNL     1      34.643 -19.341 -24.628  0.00  0.00    -0.203 F 
ATOM     13  C   UNL     1      34.305 -18.274 -22.533  0.00  0.00    +0.105 C 
ATOM     14  C   UNL     1      34.336 -17.104 -21.769  0.00  0.00    +0.156 C 
ATOM     15  C   UNL     1      34.668 -18.227 -23.883  0.00  0.00    +0.156 C 
ATOM     16  C   UNL     1      34.728 -15.897 -22.349  0.00  0.00    +0.031 C 
ATOM     17  C   UNL     1      35.059 -17.020 -24.463  0.00  0.00    +0.031 C 
ATOM     18  C   UNL     1      35.089 -15.855 -23.696  0.00  0.00    +0.005 C 
ENDBRANCH   3  13
BRANCH   1  20
ATOM     19  C   UNL     1      33.688 -23.901 -14.386  0.00  0.00    +0.139 C 
ATOM     20  C   UNL     1      33.480 -23.034 -17.022  0.00  0.00    +0.049 C 
ATOM     21  C   UNL     1      32.431 -23.730 -14.959  0.00  0.00    +0.038 C 
ATOM     22  C   UNL     1      34.840 -23.642 -15.120  0.00  0.00    +0.038 C 
ATOM     23  C   UNL     1      32.327 -23.297 -16.281  0.00  0.00    +0.018 C 
ATOM     24  C   UNL     1      34.736 -23.207 -16.441  0.00  0.00    +0.018 C 
BRANCH  19  25
ATOM     25  O   UNL     1      33.790 -24.327 -13.090  0.00  0.00    -0.473 OA
BRANCH  25  26
ATOM     26  C   UNL     1      34.860 -23.786 -12.320  0.00  0.00    +0.232 C 
BRANCH  26  27
ATOM     27  C   UNL     1      35.672 -24.935 -11.728  0.00  0.00    +0.133 C 
BRANCH  27  28
ATOM     28  O   UNL     1      35.374 -25.031 -10.331  0.00  0.00    -0.383 OA
ATOM     29  H   UNL     1      34.435 -24.839 -10.187  0.00  0.00    +0.210 HD
ENDBRANCH  27  28
BRANCH  27  30
ATOM     30  C   UNL     1      37.184 -24.751 -11.882  0.00  0.00    -0.044 C 
BRANCH  30  31
ATOM     31  N   UNL     1      37.651 -25.144 -13.204  0.00  0.00    +0.386 N 
ATOM     32  C   UNL     1      37.244 -26.518 -13.509  0.00  0.00    -0.101 C 
ATOM     33  C   UNL     1      39.107 -25.016 -13.297  0.00  0.00    -0.101 C 
ATOM     34  H   UNL     1      37.225 -24.520 -13.889  0.00  0.00    -0.080 HD
ENDBRANCH  30  31
ENDBRANCH  27  30
ENDBRANCH  26  27
ENDBRANCH  25  26
ENDBRANCH  19  25
ENDBRANCH   1  20
TORSDOF 8
ENDMDL
MODEL 2
REMARK VINA RESULT:     -10.8      0.102      1.752
REMARK  Name = 445951
REMARK  8 active torsions:
REMARK  status: ('A' for Active; 'I' for Inactive)
REMARK    1  A    between atoms: N_1  and  C_20
REMARK    2  A    between atoms: N_3  and  C_13
REMARK    3  A    between atoms: C_19  and  O_25
REMARK    4  A    between atoms: O_25  and  C_26
REMARK    5  A    between atoms: C_26  and  C_27
REMARK    6  A    between atoms: C_27  and  O_28
REMARK    7  A    between atoms: C_27  and  C_30
REMARK    8  A    between atoms: C_30  and  N_31
REMARK                            x       y       z     vdW  Elec       q    Type
REMARK                         _______ _______ _______ _____ _____    ______ ____
ROOT
ATOM      1  N   UNL     1      33.380 -22.564 -18.383  0.00  0.00    -0.301 N 
ATOM      2  H   UNL     1      32.545 -22.852 -18.817  0.00  0.00    +0.153 HD
ATOM      3  N   UNL     1      33.888 -19.473 -21.992  0.00  0.00    -0.298 N 
ATOM      4  N   UNL     1      35.557 -21.851 -19.035  0.00  0.00    -0.233 NA
ATOM      5  N   UNL     1      35.813 -20.293 -20.855  0.00  0.00    -0.233 NA
ATOM      6  C   UNL     1      34.217 -21.797 -19.217  0.00  0.00    +0.113 C 
ATOM      7  C   UNL     1      33.617 -21.019 -20.189  0.00  0.00    +0.122 C 
ATOM      8  C   UNL     1      34.470 -20.282 -20.985  0.00  0.00    +0.113 C 
ATOM      9  C   UNL     1      36.282 -21.087 -19.874  0.00  0.00    +0.252 C 
ATOM     10  H   UNL     1      33.040 -19.828 -22.346  0.00  0.00    +0.153 HD
ENDROOT
BRANCH   3  13
ATOM     11  F   UNL     1      34.602 -19.342 -24.677  0.00  0.00    -0.203 F 
ATOM     12  F   UNL     1      33.997 -17.112 -20.528  0.00  0.00    -0.203 F 
ATOM     13  C   UNL     1      34.286 -18.264 -22.585  0.00  0.00    +0.105 C 
ATOM     14  C   UNL     1      34.641 -18.226 -23.937  0.00  0.00    +0.156 C 
ATOM     15  C   UNL     1      34.333 -17.091 -21.826  0.00  0.00    +0.156 C 
ATOM     16  C   UNL     1      35.037 -17.024 -24.525  0.00  0.00    +0.031 C 
ATOM     17  C   UNL     1      34.730 -15.890 -22.414  0.00  0.00    +0.031 C 
ATOM     18  C   UNL     1      35.083 -15.856 -23.763  0.00  0.00    +0.005 C 
ENDBRANCH   3  13
BRANCH   1  20
ATOM     19  C   UNL     1      33.750 -23.869 -14.416  0.00  0.00    +0.139 C 
ATOM     20  C   UNL     1      33.504 -23.003 -17.048  0.00  0.00    +0.049 C 
ATOM     21  C   UNL     1      34.893 -23.634 -15.174  0.00  0.00    +0.038 C 
ATOM     22  C   UNL     1      32.487 -23.674 -14.962  0.00  0.00    +0.038 C 
ATOM     23  C   UNL     1      34.769 -23.199 -16.494  0.00  0.00    +0.018 C 
ATOM     24  C   UNL     1      32.363 -23.240 -16.282  0.00  0.00    +0.018 C 
BRANCH  19  25
ATOM     25  O   UNL     1      33.872 -24.295 -13.121  0.00  0.00    -0.473 OA
BRANCH  25  26
ATOM     26  C   UNL     1      34.995 -23.808 -12.390  0.00  0.00    +0.232 C 
BRANCH  26  27
ATOM     27  C   UNL     1      35.726 -24.993 -11.763  0.00  0.00    +0.133 C 
BRANCH  27  28
ATOM     28  O   UNL     1      35.458 -25.001 -10.357  0.00  0.00    -0.383 OA
ATOM     29  H   UNL     1      36.232 -24.670  -9.878  0.00  0.00    +0.210 HD
ENDBRANCH  27  28
BRANCH  27  30
ATOM     30  C   UNL     1      37.243 -24.941 -11.960  0.00  0.00    -0.044 C 
BRANCH  30  31
ATOM     31  N   UNL     1      37.630 -25.270 -13.324  0.00  0.00    +0.386 N 
ATOM     32  C   UNL     1      37.176 -26.617 -13.679  0.00  0.00    -0.101 C 
ATOM     33  C   UNL     1      39.081 -25.165 -13.490  0.00  0.00    -0.101 C 
ATOM     34  H   UNL     1      37.182 -24.602 -13.950  0.00  0.00    -0.080 HD
ENDBRANCH  30  31
ENDBRANCH  27  30
ENDBRANCH  26  27
ENDBRANCH  25  26
ENDBRANCH  19  25
ENDBRANCH   1  20
TORSDOF 8
ENDMDL
MODEL 3
REMARK VINA RESULT:     -10.7      1.113      1.944
REMARK  Name = 445951
REMARK  8 active torsions:
REMARK  status: ('A' for Active; 'I' for Inactive)
REMARK    1  A    between atoms: N_1  and  C_20
REMARK    2  A    between atoms: N_3  and  C_13
REMARK    3  A    between atoms: C_19  and  O_25
REMARK    4  A    between atoms: O_25  and  C_26
REMARK    5  A    between atoms: C_26  and  C_27
REMARK    6  A    between atoms: C_27  and  O_28
REMARK    7  A    between atoms: C_27  and  C_30
REMARK    8  A    between atoms: C_30  and  N_31
REMARK                            x       y       z     vdW  Elec       q    Type
REMARK                         _______ _______ _______ _____ _____    ______ ____
ROOT
ATOM      1  N   UNL     1      34.542 -22.257 -18.769  0.00  0.00    -0.301 N 
ATOM      2  H   UNL     1      33.865 -22.767 -19.267  0.00  0.00    +0.153 HD
ATOM      3  N   UNL     1      34.408 -19.088 -22.344  0.00  0.00    -0.298 N 
ATOM      4  N   UNL     1      36.460 -20.929 -19.248  0.00  0.00    -0.233 NA
ATOM      5  N   UNL     1      36.392 -19.331 -21.050  0.00  0.00    -0.233 NA
ATOM      6  C   UNL     1      35.182 -21.264 -19.538  0.00  0.00    +0.113 C 
ATOM      7  C   UNL     1      34.459 -20.678 -20.560  0.00  0.00    +0.122 C 
ATOM      8  C   UNL     1      35.120 -19.710 -21.288  0.00  0.00    +0.113 C 
ATOM      9  C   UNL     1      36.994 -19.971 -20.030  0.00  0.00    +0.252 C 
ATOM     10  H   UNL     1      33.732 -19.668 -22.763  0.00  0.00    +0.153 HD
ENDROOT
BRANCH   3  13
ATOM     11  F   UNL     1      34.660 -18.727 -25.090  0.00  0.00    -0.203 F 
ATOM     12  F   UNL     1      34.308 -16.803 -20.763  0.00  0.00    -0.203 F 
ATOM     13  C   UNL     1      34.481 -17.805 -22.910  0.00  0.00    +0.105 C 
ATOM     14  C   UNL     1      34.608 -17.651 -24.293  0.00  0.00    +0.156 C 
ATOM     15  C   UNL     1      34.430 -16.672 -22.092  0.00  0.00    +0.156 C 
ATOM     16  C   UNL     1      34.682 -16.376 -24.855  0.00  0.00    +0.031 C 
ATOM     17  C   UNL     1      34.504 -15.397 -22.653  0.00  0.00    +0.031 C 
ATOM     18  C   UNL     1      34.630 -15.249 -24.034  0.00  0.00    +0.005 C 
ENDBRANCH   3  13
BRANCH   1  20
ATOM     19  C   UNL     1      34.960 -23.465 -14.776  0.00  0.00    +0.139 C 
ATOM     20  C   UNL     1      34.683 -22.664 -17.426  0.00  0.00    +0.049 C 
ATOM     21  C   UNL     1      33.758 -23.686 -15.441  0.00  0.00    +0.038 C 
ATOM     22  C   UNL     1      36.024 -22.847 -15.425  0.00  0.00    +0.038 C 
ATOM     23  C   UNL     1      33.620 -23.285 -16.770  0.00  0.00    +0.018 C 
ATOM     24  C   UNL     1      35.885 -22.445 -16.753  0.00  0.00    +0.018 C 
BRANCH  19  25
ATOM     25  O   UNL     1      35.096 -23.859 -13.473  0.00  0.00    -0.473 OA
BRANCH  25  26
ATOM     26  C   UNL     1      36.318 -23.517 -12.825  0.00  0.00    +0.232 C 
BRANCH  26  27
ATOM     27  C   UNL     1      36.730 -24.669 -11.910  0.00  0.00    +0.133 C 
BRANCH  27  28
ATOM     28  O   UNL     1      37.851 -24.249 -11.127  0.00  0.00    -0.383 OA
ATOM     29  H   UNL     1      37.723 -23.331 -10.843  0.00  0.00    +0.210 HD
ENDBRANCH  27  28
BRANCH  27  30
ATOM     30  C   UNL     1      37.127 -25.935 -12.673  0.00  0.00    -0.044 C 
BRANCH  30  31
ATOM     31  N   UNL     1      37.672 -25.634 -13.989  0.00  0.00    +0.386 N 
ATOM     32  C   UNL     1      37.098 -26.524 -15.001  0.00  0.00    -0.101 C 
ATOM     33  C   UNL     1      39.132 -25.750 -13.984  0.00  0.00    -0.101 C 
ATOM     34  H   UNL     1      37.423 -24.674 -14.223  0.00  0.00    -0.080 HD
ENDBRANCH  30  31
ENDBRANCH  27  30
ENDBRANCH  26  27
ENDBRANCH  25  26
ENDBRANCH  19  25
ENDBRANCH   1  20
TORSDOF 8
ENDMDL
MODEL 4
REMARK VINA RESULT:     -10.7      3.609      5.778
REMARK  Name = 445951
REMARK  8 active torsions:
REMARK  status: ('A' for Active; 'I' for Inactive)
REMARK    1  A    between atoms: N_1  and  C_20
REMARK    2  A    between atoms: N_3  and  C_13
REMARK    3  A    between atoms: C_19  and  O_25
REMARK    4  A    between atoms: O_25  and  C_26
REMARK    5  A    between atoms: C_26  and  C_27
REMARK    6  A    between atoms: C_27  and  O_28
REMARK    7  A    between atoms: C_27  and  C_30
REMARK    8  A    between atoms: C_30  and  N_31
REMARK                            x       y       z     vdW  Elec       q    Type
REMARK                         _______ _______ _______ _____ _____    ______ ____
ROOT
ATOM      1  N   UNL     1      34.652 -18.327 -21.882  0.00  0.00    -0.301 N 
ATOM      2  H   UNL     1      34.761 -18.518 -22.841  0.00  0.00    +0.153 HD
ATOM      3  N   UNL     1      33.651 -13.832 -23.161  0.00  0.00    -0.298 N 
ATOM      4  N   UNL     1      35.100 -16.538 -20.375  0.00  0.00    -0.233 NA
ATOM      5  N   UNL     1      34.595 -14.272 -21.020  0.00  0.00    -0.233 NA
ATOM      6  C   UNL     1      34.638 -16.951 -21.578  0.00  0.00    +0.113 C 
ATOM      7  C   UNL     1      34.146 -16.085 -22.537  0.00  0.00    +0.122 C 
ATOM      8  C   UNL     1      34.149 -14.747 -22.201  0.00  0.00    +0.113 C 
ATOM      9  C   UNL     1      35.050 -15.208 -20.166  0.00  0.00    +0.252 C 
ATOM     10  H   UNL     1      33.781 -14.124 -24.093  0.00  0.00    +0.153 HD
ENDROOT
BRANCH   3  13
ATOM     11  F   UNL     1      34.416 -11.653 -24.711  0.00  0.00    -0.203 F 
ATOM     12  F   UNL     1      31.564 -13.448 -21.366  0.00  0.00    -0.203 F 
ATOM     13  C   UNL     1      33.010 -12.589 -23.042  0.00  0.00    +0.105 C 
ATOM     14  C   UNL     1      33.414 -11.509 -23.833  0.00  0.00    +0.156 C 
ATOM     15  C   UNL     1      31.963 -12.422 -22.130  0.00  0.00    +0.156 C 
ATOM     16  C   UNL     1      32.777 -10.273 -23.714  0.00  0.00    +0.031 C 
ATOM     17  C   UNL     1      31.326 -11.186 -22.011  0.00  0.00    +0.031 C 
ATOM     18  C   UNL     1      31.733 -10.112 -22.802  0.00  0.00    +0.005 C 
ENDBRANCH   3  13
BRANCH   1  20
ATOM     19  C   UNL     1      34.321 -21.763 -19.503  0.00  0.00    +0.139 C 
ATOM     20  C   UNL     1      34.541 -19.483 -21.082  0.00  0.00    +0.049 C 
ATOM     21  C   UNL     1      33.174 -21.070 -19.878  0.00  0.00    +0.038 C 
ATOM     22  C   UNL     1      35.576 -21.325 -19.911  0.00  0.00    +0.038 C 
ATOM     23  C   UNL     1      33.284 -19.928 -20.671  0.00  0.00    +0.018 C 
ATOM     24  C   UNL     1      35.686 -20.182 -20.703  0.00  0.00    +0.018 C 
BRANCH  19  25
ATOM     25  O   UNL     1      34.212 -22.884 -18.726  0.00  0.00    -0.473 OA
BRANCH  25  26
ATOM     26  C   UNL     1      33.259 -22.839 -17.667  0.00  0.00    +0.232 C 
BRANCH  26  27
ATOM     27  C   UNL     1      33.847 -23.539 -16.444  0.00  0.00    +0.133 C 
BRANCH  27  28
ATOM     28  O   UNL     1      32.795 -23.773 -15.503  0.00  0.00    -0.383 OA
ATOM     29  H   UNL     1      31.948 -23.502 -15.890  0.00  0.00    +0.210 HD
ENDBRANCH  27  28
BRANCH  27  30
ATOM     30  C   UNL     1      34.940 -22.725 -15.747  0.00  0.00    -0.044 C 
BRANCH  30  31
ATOM     31  N   UNL     1      36.270 -23.066 -16.231  0.00  0.00    +0.386 N 
ATOM     32  C   UNL     1      36.982 -23.889 -15.250  0.00  0.00    -0.101 C 
ATOM     33  C   UNL     1      37.038 -21.855 -16.528  0.00  0.00    -0.101 C 
ATOM     34  H   UNL     1      36.166 -23.604 -17.091  0.00  0.00    -0.080 HD
ENDBRANCH  30  31
ENDBRANCH  27  30
ENDBRANCH  26  27
ENDBRANCH  25  26
ENDBRANCH  19  25
ENDBRANCH   1  20
TORSDOF 8
ENDMDL
MODEL 5
REMARK VINA RESULT:     -10.6      1.630      1.932
REMARK  Name = 445951
REMARK  8 active torsions:
REMARK  status: ('A' for Active; 'I' for Inactive)
REMARK    1  A    between atoms: N_1  and  C_20
REMARK    2  A    between atoms: N_3  and  C_13
REMARK    3  A    between atoms: C_19  and  O_25
REMARK    4  A    between atoms: O_25  and  C_26
REMARK    5  A    between atoms: C_26  and  C_27
REMARK    6  A    between atoms: C_27  and  O_28
REMARK    7  A    between atoms: C_27  and  C_30
REMARK    8  A    between atoms: C_30  and  N_31
REMARK                            x       y       z     vdW  Elec       q    Type
REMARK                         _______ _______ _______ _____ _____    ______ ____
ROOT
ATOM      1  N   UNL     1      34.832 -21.778 -19.145  0.00  0.00    -0.301 N 
ATOM      2  H   UNL     1      34.086 -22.248 -19.580  0.00  0.00    +0.153 HD
ATOM      3  N   UNL     1      34.227 -18.339 -22.407  0.00  0.00    -0.298 N 
ATOM      4  N   UNL     1      36.677 -20.416 -19.787  0.00  0.00    -0.233 NA
ATOM      5  N   UNL     1      36.372 -18.682 -21.432  0.00  0.00    -0.233 NA
ATOM      6  C   UNL     1      35.367 -20.729 -19.917  0.00  0.00    +0.113 C 
ATOM      7  C   UNL     1      34.513 -20.064 -20.778  0.00  0.00    +0.122 C 
ATOM      8  C   UNL     1      35.075 -19.041 -21.515  0.00  0.00    +0.113 C 
ATOM      9  C   UNL     1      37.105 -19.400 -20.560  0.00  0.00    +0.252 C 
ATOM     10  H   UNL     1      33.492 -18.885 -22.770  0.00  0.00    +0.153 HD
ENDROOT
BRANCH   3  13
ATOM     11  F   UNL     1      34.235 -16.180 -20.653  0.00  0.00    -0.203 F 
ATOM     12  F   UNL     1      34.232 -17.768 -25.128  0.00  0.00    -0.203 F 
ATOM     13  C   UNL     1      34.233 -17.015 -22.876  0.00  0.00    +0.105 C 
ATOM     14  C   UNL     1      34.236 -15.948 -21.973  0.00  0.00    +0.156 C 
ATOM     15  C   UNL     1      34.234 -16.756 -24.250  0.00  0.00    +0.156 C 
ATOM     16  C   UNL     1      34.241 -14.633 -22.439  0.00  0.00    +0.031 C 
ATOM     17  C   UNL     1      34.239 -15.441 -24.716  0.00  0.00    +0.031 C 
ATOM     18  C   UNL     1      34.242 -14.379 -23.811  0.00  0.00    +0.005 C 
ENDBRANCH   3  13
BRANCH   1  20
ATOM     19  C   UNL     1      35.799 -23.296 -15.358  0.00  0.00    +0.139 C 
ATOM     20  C   UNL     1      35.158 -22.289 -17.872  0.00  0.00    +0.049 C 
ATOM     21  C   UNL     1      34.534 -23.524 -15.891  0.00  0.00    +0.038 C 
ATOM     22  C   UNL     1      36.746 -22.569 -16.072  0.00  0.00    +0.038 C 
ATOM     23  C   UNL     1      34.213 -23.021 -17.151  0.00  0.00    +0.018 C 
ATOM     24  C   UNL     1      36.425 -22.064 -17.332  0.00  0.00    +0.018 C 
BRANCH  19  25
ATOM     25  O   UNL     1      36.114 -23.791 -14.122  0.00  0.00    -0.473 OA
BRANCH  25  26
ATOM     26  C   UNL     1      37.214 -23.184 -13.450  0.00  0.00    +0.232 C 
BRANCH  26  27
ATOM     27  C   UNL     1      37.593 -24.044 -12.247  0.00  0.00    +0.133 C 
BRANCH  27  28
ATOM     28  O   UNL     1      38.698 -23.428 -11.577  0.00  0.00    -0.383 OA
ATOM     29  H   UNL     1      39.529 -23.777 -11.935  0.00  0.00    +0.210 HD
ENDBRANCH  27  28
BRANCH  27  30
ATOM     30  C   UNL     1      37.999 -25.470 -12.626  0.00  0.00    -0.044 C 
BRANCH  30  31
ATOM     31  N   UNL     1      38.397 -25.574 -14.023  0.00  0.00    +0.386 N 
ATOM     32  C   UNL     1      37.743 -26.719 -14.662  0.00  0.00    -0.101 C 
ATOM     33  C   UNL     1      39.852 -25.692 -14.140  0.00  0.00    -0.101 C 
ATOM     34  H   UNL     1      38.100 -24.723 -14.501  0.00  0.00    -0.080 HD
ENDBRANCH  30  31
ENDBRANCH  27  30
ENDBRANCH  26  27
ENDBRANCH  25  26
ENDBRANCH  19  25
ENDBRANCH   1  20
TORSDOF 8
ENDMDL
MODEL 6
REMARK VINA RESULT:     -10.5      3.671      6.145
REMARK  Name = 445951
REMARK  8 active torsions:
REMARK  status: ('A' for Active; 'I' for Inactive)
REMARK    1  A    between atoms: N_1  and  C_20
REMARK    2  A    between atoms: N_3  and  C_13
REMARK    3  A    between atoms: C_19  and  O_25
REMARK    4  A    between atoms: O_25  and  C_26
REMARK    5  A    between atoms: C_26  and  C_27
REMARK    6  A    between atoms: C_27  and  O_28
REMARK    7  A    between atoms: C_27  and  C_30
REMARK    8  A    between atoms: C_30  and  N_31
REMARK                            x       y       z     vdW  Elec       q    Type
REMARK                         _______ _______ _______ _____ _____    ______ ____
ROOT
ATOM      1  N   UNL     1      34.600 -18.314 -21.908  0.00  0.00    -0.301 N 
ATOM      2  H   UNL     1      34.724 -18.512 -22.864  0.00  0.00    +0.153 HD
ATOM      3  N   UNL     1      33.702 -13.809 -23.225  0.00  0.00    -0.298 N 
ATOM      4  N   UNL     1      35.053 -16.526 -20.401  0.00  0.00    -0.233 NA
ATOM      5  N   UNL     1      34.600 -14.255 -21.066  0.00  0.00    -0.233 NA
ATOM      6  C   UNL     1      34.606 -16.937 -21.610  0.00  0.00    +0.113 C 
ATOM      7  C   UNL     1      34.146 -16.068 -22.582  0.00  0.00    +0.122 C 
ATOM      8  C   UNL     1      34.167 -14.728 -22.252  0.00  0.00    +0.113 C 
ATOM      9  C   UNL     1      35.023 -15.195 -20.199  0.00  0.00    +0.252 C 
ATOM     10  H   UNL     1      33.844 -14.107 -24.153  0.00  0.00    +0.153 HD
ENDROOT
BRANCH   3  13
ATOM     11  F   UNL     1      31.580 -13.381 -21.479  0.00  0.00    -0.203 F 
ATOM     12  F   UNL     1      34.543 -11.650 -24.762  0.00  0.00    -0.203 F 
ATOM     13  C   UNL     1      33.081 -12.554 -23.123  0.00  0.00    +0.105 C 
ATOM     14  C   UNL     1      32.015 -12.366 -22.238  0.00  0.00    +0.156 C 
ATOM     15  C   UNL     1      33.522 -11.485 -23.909  0.00  0.00    +0.156 C 
ATOM     16  C   UNL     1      31.397 -11.119 -22.138  0.00  0.00    +0.031 C 
ATOM     17  C   UNL     1      32.904 -10.238 -23.809  0.00  0.00    +0.031 C 
ATOM     18  C   UNL     1      31.841 -10.055 -22.924  0.00  0.00    +0.005 C 
ENDBRANCH   3  13
BRANCH   1  20
ATOM     19  C   UNL     1      34.166 -21.732 -19.519  0.00  0.00    +0.139 C 
ATOM     20  C   UNL     1      34.455 -19.464 -21.105  0.00  0.00    +0.049 C 
ATOM     21  C   UNL     1      33.040 -21.012 -19.904  0.00  0.00    +0.038 C 
ATOM     22  C   UNL     1      35.435 -21.328 -19.920  0.00  0.00    +0.038 C 
ATOM     23  C   UNL     1      33.184 -19.876 -20.700  0.00  0.00    +0.018 C 
ATOM     24  C   UNL     1      35.580 -20.191 -20.715  0.00  0.00    +0.018 C 
BRANCH  19  25
ATOM     25  O   UNL     1      34.024 -22.847 -18.739  0.00  0.00    -0.473 OA
BRANCH  25  26
ATOM     26  C   UNL     1      32.969 -22.829 -17.782  0.00  0.00    +0.232 C 
BRANCH  26  27
ATOM     27  C   UNL     1      33.543 -23.164 -16.408  0.00  0.00    +0.133 C 
BRANCH  27  28
ATOM     28  O   UNL     1      34.734 -23.937 -16.588  0.00  0.00    -0.383 OA
ATOM     29  H   UNL     1      34.500 -24.871 -16.699  0.00  0.00    +0.210 HD
ENDBRANCH  27  28
BRANCH  27  30
ATOM     30  C   UNL     1      32.581 -23.967 -15.528  0.00  0.00    -0.044 C 
BRANCH  30  31
ATOM     31  N   UNL     1      31.199 -23.536 -15.693  0.00  0.00    +0.386 N 
ATOM     32  C   UNL     1      30.817 -22.608 -14.627  0.00  0.00    -0.101 C 
ATOM     33  C   UNL     1      30.297 -24.689 -15.708  0.00  0.00    -0.101 C 
ATOM     34  H   UNL     1      31.124 -23.052 -16.588  0.00  0.00    -0.080 HD
ENDBRANCH  30  31
ENDBRANCH  27  30
ENDBRANCH  26  27
ENDBRANCH  25  26
ENDBRANCH  19  25
ENDBRANCH   1  20
TORSDOF 8
ENDMDL
MODEL 7
REMARK VINA RESULT:     -10.5      6.652     10.116
REMARK  Name = 445951
REMARK  8 active torsions:
REMARK  status: ('A' for Active; 'I' for Inactive)
REMARK    1  A    between atoms: N_1  and  C_20
REMARK    2  A    between atoms: N_3  and  C_13
REMARK    3  A    between atoms: C_19  and  O_25
REMARK    4  A    between atoms: O_25  and  C_26
REMARK    5  A    between atoms: C_26  and  C_27
REMARK    6  A    between atoms: C_27  and  O_28
REMARK    7  A    between atoms: C_27  and  C_30
REMARK    8  A    between atoms: C_30  and  N_31
REMARK                            x       y       z     vdW  Elec       q    Type
REMARK                         _______ _______ _______ _____ _____    ______ ____
ROOT
ATOM      1  N   UNL     1      32.745 -14.189 -22.599  0.00  0.00    -0.301 N 
ATOM      2  H   UNL     1      31.822 -14.419 -22.349  0.00  0.00    +0.153 HD
ATOM      3  N   UNL     1      31.368  -9.615 -22.444  0.00  0.00    -0.298 N 
ATOM      4  N   UNL     1      33.859 -12.570 -23.944  0.00  0.00    -0.233 NA
ATOM      5  N   UNL     1      33.164 -10.263 -23.866  0.00  0.00    -0.233 NA
ATOM      6  C   UNL     1      32.897 -12.859 -23.038  0.00  0.00    +0.113 C 
ATOM      7  C   UNL     1      32.044 -11.906 -22.511  0.00  0.00    +0.122 C 
ATOM      8  C   UNL     1      32.225 -10.616 -22.965  0.00  0.00    +0.113 C 
ATOM      9  C   UNL     1      33.936 -11.275 -24.308  0.00  0.00    +0.252 C 
ATOM     10  H   UNL     1      30.475  -9.947 -22.195  0.00  0.00    +0.153 HD
ENDROOT
BRANCH   3  13
ATOM     11  F   UNL     1      30.538  -7.720 -24.304  0.00  0.00    -0.203 F 
ATOM     12  F   UNL     1      32.561  -8.676 -20.116  0.00  0.00    -0.203 F 
ATOM     13  C   UNL     1      31.544  -8.241 -22.217  0.00  0.00    +0.105 C 
ATOM     14  C   UNL     1      31.118  -7.309 -23.168  0.00  0.00    +0.156 C 
ATOM     15  C   UNL     1      32.148  -7.795 -21.037  0.00  0.00    +0.156 C 
ATOM     16  C   UNL     1      31.295  -5.944 -22.942  0.00  0.00    +0.031 C 
ATOM     17  C   UNL     1      32.325  -6.430 -20.811  0.00  0.00    +0.031 C 
ATOM     18  C   UNL     1      31.899  -5.504 -21.764  0.00  0.00    +0.005 C 
ENDBRANCH   3  13
BRANCH   1  20
ATOM     19  C   UNL     1      35.451 -17.360 -22.158  0.00  0.00    +0.139 C 
ATOM     20  C   UNL     1      33.656 -15.255 -22.451  0.00  0.00    +0.049 C 
ATOM     21  C   UNL     1      35.015 -16.997 -23.429  0.00  0.00    +0.038 C 
ATOM     22  C   UNL     1      34.998 -16.679 -21.034  0.00  0.00    +0.038 C 
ATOM     23  C   UNL     1      34.115 -15.941 -23.575  0.00  0.00    +0.018 C 
ATOM     24  C   UNL     1      34.098 -15.624 -21.180  0.00  0.00    +0.018 C 
BRANCH  19  25
ATOM     25  O   UNL     1      36.334 -18.396 -22.015  0.00  0.00    -0.473 OA
BRANCH  25  26
ATOM     26  C   UNL     1      36.295 -19.104 -20.779  0.00  0.00    +0.232 C 
BRANCH  26  27
ATOM     27  C   UNL     1      35.376 -20.314 -20.934  0.00  0.00    +0.133 C 
BRANCH  27  28
ATOM     28  O   UNL     1      34.075 -19.962 -20.452  0.00  0.00    -0.383 OA
ATOM     29  H   UNL     1      33.424 -20.081 -21.160  0.00  0.00    +0.210 HD
ENDBRANCH  27  28
BRANCH  27  30
ATOM     30  C   UNL     1      35.856 -21.543 -20.158  0.00  0.00    -0.044 C 
BRANCH  30  31
ATOM     31  N   UNL     1      35.526 -21.461 -18.742  0.00  0.00    +0.386 N 
ATOM     32  C   UNL     1      36.729 -21.620 -17.922  0.00  0.00    -0.101 C 
ATOM     33  C   UNL     1      34.531 -22.473 -18.383  0.00  0.00    -0.101 C 
ATOM     34  H   UNL     1      35.131 -20.538 -18.562  0.00  0.00    -0.080 HD
ENDBRANCH  30  31
ENDBRANCH  27  30
ENDBRANCH  26  27
ENDBRANCH  25  26
ENDBRANCH  19  25
ENDBRANCH   1  20
TORSDOF 8
ENDMDL
MODEL 8
REMARK VINA RESULT:     -10.5      3.719      6.023
REMARK  Name = 445951
REMARK  8 active torsions:
REMARK  status: ('A' for Active; 'I' for Inactive)
REMARK    1  A    between atoms: N_1  and  C_20
REMARK    2  A    between atoms: N_3  and  C_13
REMARK    3  A    between atoms: C_19  and  O_25
REMARK    4  A    between atoms: O_25  and  C_26
REMARK    5  A    between atoms: C_26  and  C_27
REMARK    6  A    between atoms: C_27  and  O_28
REMARK    7  A    between atoms: C_27  and  C_30
REMARK    8  A    between atoms: C_30  and  N_31
REMARK                            x       y       z     vdW  Elec       q    Type
REMARK                         _______ _______ _______ _____ _____    ______ ____
ROOT
ATOM      1  N   UNL     1      34.442 -18.259 -21.956  0.00  0.00    -0.301 N 
ATOM      2  H   UNL     1      34.596 -18.459 -22.907  0.00  0.00    +0.153 HD
ATOM      3  N   UNL     1      33.758 -13.721 -23.287  0.00  0.00    -0.298 N 
ATOM      4  N   UNL     1      34.898 -16.494 -20.424  0.00  0.00    -0.233 NA
ATOM      5  N   UNL     1      34.553 -14.205 -21.095  0.00  0.00    -0.233 NA
ATOM      6  C   UNL     1      34.485 -16.885 -21.652  0.00  0.00    +0.113 C 
ATOM      7  C   UNL     1      34.095 -15.996 -22.637  0.00  0.00    +0.122 C 
ATOM      8  C   UNL     1      34.150 -14.659 -22.300  0.00  0.00    +0.113 C 
ATOM      9  C   UNL     1      34.907 -15.163 -20.218  0.00  0.00    +0.252 C 
ATOM     10  H   UNL     1      33.925 -14.021 -24.210  0.00  0.00    +0.153 HD
ENDROOT
BRANCH   3  13
ATOM     11  F   UNL     1      34.693 -11.601 -24.825  0.00  0.00    -0.203 F 
ATOM     12  F   UNL     1      31.626 -13.210 -21.577  0.00  0.00    -0.203 F 
ATOM     13  C   UNL     1      33.177 -12.445 -23.204  0.00  0.00    +0.105 C 
ATOM     14  C   UNL     1      33.667 -11.396 -23.988  0.00  0.00    +0.156 C 
ATOM     15  C   UNL     1      32.107 -12.214 -22.335  0.00  0.00    +0.156 C 
ATOM     16  C   UNL     1      33.091 -10.128 -23.905  0.00  0.00    +0.031 C 
ATOM     17  C   UNL     1      31.531 -10.946 -22.251  0.00  0.00    +0.031 C 
ATOM     18  C   UNL     1      32.023  -9.903 -23.035  0.00  0.00    +0.005 C 
ENDBRANCH   3  13
BRANCH   1  20
ATOM     19  C   UNL     1      33.795 -21.670 -19.606  0.00  0.00    +0.139 C 
ATOM     20  C   UNL     1      34.224 -19.406 -21.165  0.00  0.00    +0.049 C 
ATOM     21  C   UNL     1      35.095 -21.264 -19.889  0.00  0.00    +0.038 C 
ATOM     22  C   UNL     1      32.709 -20.954 -20.096  0.00  0.00    +0.038 C 
ATOM     23  C   UNL     1      35.311 -20.128 -20.670  0.00  0.00    +0.018 C 
ATOM     24  C   UNL     1      32.923 -19.819 -20.878  0.00  0.00    +0.018 C 
BRANCH  19  25
ATOM     25  O   UNL     1      33.585 -22.784 -18.839  0.00  0.00    -0.473 OA
BRANCH  25  26
ATOM     26  C   UNL     1      34.222 -22.813 -17.564  0.00  0.00    +0.232 C 
BRANCH  26  27
ATOM     27  C   UNL     1      33.302 -23.515 -16.569  0.00  0.00    +0.133 C 
BRANCH  27  28
ATOM     28  O   UNL     1      31.964 -23.051 -16.778  0.00  0.00    -0.383 OA
ATOM     29  H   UNL     1      31.469 -23.711 -17.287  0.00  0.00    +0.210 HD
ENDBRANCH  27  28
BRANCH  27  30
ATOM     30  C   UNL     1      33.676 -23.252 -15.108  0.00  0.00    -0.044 C 
BRANCH  30  31
ATOM     31  N   UNL     1      33.653 -24.469 -14.309  0.00  0.00    +0.386 N 
ATOM     32  C   UNL     1      32.281 -24.811 -13.928  0.00  0.00    -0.101 C 
ATOM     33  C   UNL     1      34.488 -24.319 -13.115  0.00  0.00    -0.101 C 
ATOM     34  H   UNL     1      34.031 -25.227 -14.876  0.00  0.00    -0.080 HD
ENDBRANCH  30  31
ENDBRANCH  27  30
ENDBRANCH  26  27
ENDBRANCH  25  26
ENDBRANCH  19  25
ENDBRANCH   1  20
TORSDOF 8
ENDMDL
MODEL 9
REMARK VINA RESULT:     -10.3      5.675     11.902
REMARK  Name = 445951
REMARK  8 active torsions:
REMARK  status: ('A' for Active; 'I' for Inactive)
REMARK    1  A    between atoms: N_1  and  C_20
REMARK    2  A    between atoms: N_3  and  C_13
REMARK    3  A    between atoms: C_19  and  O_25
REMARK    4  A    between atoms: O_25  and  C_26
REMARK    5  A    between atoms: C_26  and  C_27
REMARK    6  A    between atoms: C_27  and  O_28
REMARK    7  A    between atoms: C_27  and  C_30
REMARK    8  A    between atoms: C_30  and  N_31
REMARK                            x       y       z     vdW  Elec       q    Type
REMARK                         _______ _______ _______ _____ _____    ______ ____
ROOT
ATOM      1  N   UNL     1      35.207 -18.607 -22.454  0.00  0.00    -0.301 N 
ATOM      2  H   UNL     1      36.029 -18.985 -22.842  0.00  0.00    +0.153 HD
ATOM      3  N   UNL     1      35.663 -21.855 -18.978  0.00  0.00    -0.298 N 
ATOM      4  N   UNL     1      33.275 -19.389 -21.301  0.00  0.00    -0.233 NA
ATOM      5  N   UNL     1      33.506 -21.026 -19.549  0.00  0.00    -0.233 NA
ATOM      6  C   UNL     1      34.617 -19.425 -21.471  0.00  0.00    +0.113 C 
ATOM      7  C   UNL     1      35.452 -20.231 -20.719  0.00  0.00    +0.122 C 
ATOM      8  C   UNL     1      34.836 -21.016 -19.766  0.00  0.00    +0.113 C 
ATOM      9  C   UNL     1      32.795 -20.200 -20.340  0.00  0.00    +0.252 C 
ATOM     10  H   UNL     1      36.477 -22.160 -19.442  0.00  0.00    +0.153 HD
ENDROOT
BRANCH   3  13
ATOM     11  F   UNL     1      37.510 -21.168 -17.015  0.00  0.00    -0.203 F 
ATOM     12  F   UNL     1      33.578 -23.535 -18.233  0.00  0.00    -0.203 F 
ATOM     13  C   UNL     1      35.547 -22.336 -17.664  0.00  0.00    +0.105 C 
ATOM     14  C   UNL     1      36.490 -21.976 -16.696  0.00  0.00    +0.156 C 
ATOM     15  C   UNL     1      34.489 -23.181 -17.316  0.00  0.00    +0.156 C 
ATOM     16  C   UNL     1      36.374 -22.456 -15.391  0.00  0.00    +0.031 C 
ATOM     17  C   UNL     1      34.374 -23.661 -16.011  0.00  0.00    +0.031 C 
ATOM     18  C   UNL     1      35.316 -23.299 -15.048  0.00  0.00    +0.005 C 
ENDBRANCH   3  13
BRANCH   1  20
ATOM     19  C   UNL     1      34.145 -14.882 -24.058  0.00  0.00    +0.139 C 
ATOM     20  C   UNL     1      34.850 -17.354 -22.994  0.00  0.00    +0.049 C 
ATOM     21  C   UNL     1      34.469 -14.985 -22.708  0.00  0.00    +0.038 C 
ATOM     22  C   UNL     1      34.171 -16.004 -24.879  0.00  0.00    +0.038 C 
ATOM     23  C   UNL     1      34.823 -16.225 -22.175  0.00  0.00    +0.018 C 
ATOM     24  C   UNL     1      34.525 -17.243 -24.346  0.00  0.00    +0.018 C 
BRANCH  19  25
ATOM     25  O   UNL     1      33.798 -13.666 -24.580  0.00  0.00    -0.473 OA
BRANCH  25  26
ATOM     26  C   UNL     1      33.625 -12.597 -23.653  0.00  0.00    +0.232 C 
BRANCH  26  27
ATOM     27  C   UNL     1      33.650 -11.274 -24.416  0.00  0.00    +0.133 C 
BRANCH  27  28
ATOM     28  O   UNL     1      34.905 -11.163 -25.095  0.00  0.00    -0.383 OA
ATOM     29  H   UNL     1      35.187 -12.040 -25.399  0.00  0.00    +0.210 HD
ENDBRANCH  27  28
BRANCH  27  30
ATOM     30  C   UNL     1      33.487 -10.051 -23.511  0.00  0.00    -0.044 C 
BRANCH  30  31
ATOM     31  N   UNL     1      32.090  -9.782 -23.199  0.00  0.00    +0.386 N 
ATOM     32  C   UNL     1      31.702  -8.451 -23.674  0.00  0.00    -0.101 C 
ATOM     33  C   UNL     1      31.849  -9.895 -21.759  0.00  0.00    -0.101 C 
ATOM     34  H   UNL     1      31.519 -10.477 -23.680  0.00  0.00    -0.080 HD
ENDBRANCH  30  31
ENDBRANCH  27  30
ENDBRANCH  26  27
ENDBRANCH  25  26
ENDBRANCH  19  25
ENDBRANCH   1  20
TORSDOF 8
ENDMDL
