MODEL 1
REMARK VINA RESULT:      -9.2      0.000      0.000
REMARK  Name = 641785
REMARK  6 active torsions:
REMARK  status: ('A' for Active; 'I' for Inactive)
REMARK    1  A    between atoms: C_1  and  C_14
REMARK    2  A    between atoms: C_2  and  O_7
REMARK    3  A    between atoms: C_3  and  O_9
REMARK    4  A    between atoms: C_6  and  O_11
REMARK    5  A    between atoms: C_14  and  C_15
REMARK    6  A    between atoms: C_16  and  C_17
REMARK                            x       y       z     vdW  Elec       q    Type
REMARK                         _______ _______ _______ _____ _____    ______ ____
ROOT
ATOM      1  C   UNL     1      33.356 -23.329 -16.754  0.00  0.00    +0.107 C 
ATOM      2  C   UNL     1      34.276 -23.673 -15.781  0.00  0.00    +0.148 C 
ATOM      3  C   UNL     1      32.063 -22.960 -16.434  0.00  0.00    +0.143 C 
ATOM      4  C   UNL     1      33.889 -23.647 -14.441  0.00  0.00    +0.074 C 
ATOM      5  C   UNL     1      31.676 -22.935 -15.094  0.00  0.00    +0.073 C 
ATOM      6  C   UNL     1      32.589 -23.278 -14.098  0.00  0.00    +0.140 C 
ENDROOT
BRANCH   2   7
ATOM      7  O   UNL     1      35.552 -24.038 -16.094  0.00  0.00    -0.471 OA
ATOM      8  C   UNL     1      36.597 -23.169 -15.663  0.00  0.00    +0.252 C 
ENDBRANCH   2   7
BRANCH   3   9
ATOM      9  O   UNL     1      31.154 -22.620 -17.392  0.00  0.00    -0.505 OA
ATOM     10  H   UNL     1      31.019 -21.718 -17.610  0.00  0.00    +0.292 HD
ENDBRANCH   3   9
BRANCH   6  11
ATOM     11  O   UNL     1      32.211 -23.253 -12.790  0.00  0.00    -0.505 OA
ATOM     12  H   UNL     1      32.725 -22.784 -12.163  0.00  0.00    +0.292 HD
ENDBRANCH   6  11
BRANCH   1  14
ATOM     13  O   UNL     1      33.557 -24.359 -18.853  0.00  0.00    -0.286 OA
ATOM     14  C   UNL     1      33.767 -23.357 -18.179  0.00  0.00    +0.202 C 
BRANCH  14  15
ATOM     15  C   UNL     1      34.456 -22.153 -18.723  0.00  0.00    +0.042 C 
ATOM     16  C   UNL     1      33.916 -21.465 -19.753  0.00  0.00    +0.003 C 
BRANCH  16  17
ATOM     17  C   UNL     1      34.504 -20.290 -20.376  0.00  0.00    +0.000 C 
ATOM     18  C   UNL     1      35.891 -20.153 -20.438  0.00  0.00    +0.000 C 
ATOM     19  C   UNL     1      33.681 -19.300 -20.913  0.00  0.00    +0.000 C 
ATOM     20  C   UNL     1      36.455 -19.026 -21.034  0.00  0.00    +0.000 C 
ATOM     21  C   UNL     1      34.246 -18.172 -21.510  0.00  0.00    +0.000 C 
ATOM     22  C   UNL     1      35.633 -18.035 -21.570  0.00  0.00    +0.000 C 
ENDBRANCH  16  17
ENDBRANCH  14  15
ENDBRANCH   1  14
TORSDOF 6
ENDMDL
MODEL 2
REMARK VINA RESULT:      -9.2      0.706      2.494
REMARK  Name = 641785
REMARK  6 active torsions:
REMARK  status: ('A' for Active; 'I' for Inactive)
REMARK    1  A    between atoms: C_1  and  C_14
REMARK    2  A    between atoms: C_2  and  O_7
REMARK    3  A    between atoms: C_3  and  O_9
REMARK    4  A    between atoms: C_6  and  O_11
REMARK    5  A    between atoms: C_14  and  C_15
REMARK    6  A    between atoms: C_16  and  C_17
REMARK                            x       y       z     vdW  Elec       q    Type
REMARK                         _______ _______ _______ _____ _____    ______ ____
ROOT
ATOM      1  C   UNL     1      33.095 -23.249 -16.688  0.00  0.00    +0.107 C 
ATOM      2  C   UNL     1      31.806 -22.939 -16.295  0.00  0.00    +0.148 C 
ATOM      3  C   UNL     1      34.088 -23.527 -15.766  0.00  0.00    +0.143 C 
ATOM      4  C   UNL     1      31.499 -22.905 -14.935  0.00  0.00    +0.074 C 
ATOM      5  C   UNL     1      33.782 -23.492 -14.406  0.00  0.00    +0.073 C 
ATOM      6  C   UNL     1      32.488 -23.182 -13.990  0.00  0.00    +0.140 C 
ENDROOT
BRANCH   2   7
ATOM      7  O   UNL     1      30.825 -22.665 -17.202  0.00  0.00    -0.471 OA
ATOM      8  C   UNL     1      29.477 -22.759 -16.745  0.00  0.00    +0.252 C 
ENDBRANCH   2   7
BRANCH   3   9
ATOM      9  O   UNL     1      35.360 -23.833 -16.150  0.00  0.00    -0.505 OA
ATOM     10  H   UNL     1      35.504 -24.424 -16.864  0.00  0.00    +0.292 HD
ENDBRANCH   3   9
BRANCH   6  11
ATOM     11  O   UNL     1      32.188 -23.148 -12.662  0.00  0.00    -0.505 OA
ATOM     12  H   UNL     1      31.502 -23.688 -12.323  0.00  0.00    +0.292 HD
ENDBRANCH   6  11
BRANCH   1  14
ATOM     13  O   UNL     1      33.588 -24.364 -18.691  0.00  0.00    -0.286 OA
ATOM     14  C   UNL     1      33.421 -23.286 -18.133  0.00  0.00    +0.202 C 
BRANCH  14  15
ATOM     15  C   UNL     1      33.562 -21.984 -18.843  0.00  0.00    +0.042 C 
ATOM     16  C   UNL     1      34.673 -21.717 -19.566  0.00  0.00    +0.003 C 
BRANCH  16  17
ATOM     17  C   UNL     1      34.928 -20.479 -20.285  0.00  0.00    +0.000 C 
ATOM     18  C   UNL     1      36.238 -20.037 -20.471  0.00  0.00    +0.000 C 
ATOM     19  C   UNL     1      33.862 -19.732 -20.787  0.00  0.00    +0.000 C 
ATOM     20  C   UNL     1      36.482 -18.849 -21.159  0.00  0.00    +0.000 C 
ATOM     21  C   UNL     1      34.108 -18.544 -21.477  0.00  0.00    +0.000 C 
ATOM     22  C   UNL     1      35.418 -18.103 -21.662  0.00  0.00    +0.000 C 
ENDBRANCH  16  17
ENDBRANCH  14  15
ENDBRANCH   1  14
TORSDOF 6
ENDMDL
MODEL 3
REMARK VINA RESULT:      -9.0      5.295      9.225
REMARK  Name = 641785
REMARK  6 active torsions:
REMARK  status: ('A' for Active; 'I' for Inactive)
REMARK    1  A    between atoms: C_1  and  C_14
REMARK    2  A    between atoms: C_2  and  O_7
REMARK    3  A    between atoms: C_3  and  O_9
REMARK    4  A    between atoms: C_6  and  O_11
REMARK    5  A    between atoms: C_14  and  C_15
REMARK    6  A    between atoms: C_16  and  C_17
REMARK                            x       y       z     vdW  Elec       q    Type
REMARK                         _______ _______ _______ _____ _____    ______ ____
ROOT
ATOM      1  C   UNL     1      33.986 -15.410 -22.560  0.00  0.00    +0.107 C 
ATOM      2  C   UNL     1      33.285 -14.930 -23.651  0.00  0.00    +0.148 C 
ATOM      3  C   UNL     1      33.876 -14.827 -21.311  0.00  0.00    +0.143 C 
ATOM      4  C   UNL     1      32.445 -13.828 -23.487  0.00  0.00    +0.074 C 
ATOM      5  C   UNL     1      33.036 -13.726 -21.147  0.00  0.00    +0.073 C 
ATOM      6  C   UNL     1      32.321 -13.227 -22.235  0.00  0.00    +0.140 C 
ENDROOT
BRANCH   2   7
ATOM      7  O   UNL     1      33.392 -15.503 -24.883  0.00  0.00    -0.471 OA
ATOM      8  C   UNL     1      33.000 -14.710 -26.002  0.00  0.00    +0.252 C 
ENDBRANCH   2   7
BRANCH   3   9
ATOM      9  O   UNL     1      34.566 -15.299 -20.234  0.00  0.00    -0.505 OA
ATOM     10  H   UNL     1      35.325 -14.843 -19.927  0.00  0.00    +0.292 HD
ENDBRANCH   3   9
BRANCH   6  11
ATOM     11  O   UNL     1      31.500 -12.152 -22.075  0.00  0.00    -0.505 OA
ATOM     12  H   UNL     1      31.708 -11.493 -21.442  0.00  0.00    +0.292 HD
ENDBRANCH   6  11
BRANCH   1  14
ATOM     13  O   UNL     1      35.914 -16.465 -23.382  0.00  0.00    -0.286 OA
ATOM     14  C   UNL     1      34.879 -16.581 -22.735  0.00  0.00    +0.202 C 
BRANCH  14  15
ATOM     15  C   UNL     1      34.452 -17.873 -22.129  0.00  0.00    +0.042 C 
ATOM     16  C   UNL     1      35.250 -18.507 -21.240  0.00  0.00    +0.003 C 
BRANCH  16  17
ATOM     17  C   UNL     1      34.946 -19.777 -20.599  0.00  0.00    +0.000 C 
ATOM     18  C   UNL     1      33.619 -20.171 -20.425  0.00  0.00    +0.000 C 
ATOM     19  C   UNL     1      35.982 -20.600 -20.158  0.00  0.00    +0.000 C 
ATOM     20  C   UNL     1      33.328 -21.388 -19.810  0.00  0.00    +0.000 C 
ATOM     21  C   UNL     1      35.690 -21.819 -19.543  0.00  0.00    +0.000 C 
ATOM     22  C   UNL     1      34.363 -22.212 -19.369  0.00  0.00    +0.000 C 
ENDBRANCH  16  17
ENDBRANCH  14  15
ENDBRANCH   1  14
TORSDOF 6
ENDMDL
MODEL 4
REMARK VINA RESULT:      -8.9      4.857      8.871
REMARK  Name = 641785
REMARK  6 active torsions:
REMARK  status: ('A' for Active; 'I' for Inactive)
REMARK    1  A    between atoms: C_1  and  C_14
REMARK    2  A    between atoms: C_2  and  O_7
REMARK    3  A    between atoms: C_3  and  O_9
REMARK    4  A    between atoms: C_6  and  O_11
REMARK    5  A    between atoms: C_14  and  C_15
REMARK    6  A    between atoms: C_16  and  C_17
REMARK                            x       y       z     vdW  Elec       q    Type
REMARK                         _______ _______ _______ _____ _____    ______ ____
ROOT
ATOM      1  C   UNL     1      34.812 -16.957 -23.469  0.00  0.00    +0.107 C 
ATOM      2  C   UNL     1      34.561 -15.820 -22.725  0.00  0.00    +0.148 C 
ATOM      3  C   UNL     1      34.422 -17.061 -24.792  0.00  0.00    +0.143 C 
ATOM      4  C   UNL     1      33.897 -14.749 -23.324  0.00  0.00    +0.074 C 
ATOM      5  C   UNL     1      33.758 -15.991 -25.390  0.00  0.00    +0.073 C 
ATOM      6  C   UNL     1      33.496 -14.835 -24.657  0.00  0.00    +0.140 C 
ENDROOT
BRANCH   2   7
ATOM      7  O   UNL     1      34.945 -15.714 -21.421  0.00  0.00    -0.471 OA
ATOM      8  C   UNL     1      34.133 -14.907 -20.570  0.00  0.00    +0.252 C 
ENDBRANCH   2   7
BRANCH   3   9
ATOM      9  O   UNL     1      34.669 -18.182 -25.528  0.00  0.00    -0.505 OA
ATOM     10  H   UNL     1      35.423 -18.707 -25.343  0.00  0.00    +0.292 HD
ENDBRANCH   3   9
BRANCH   6  11
ATOM     11  O   UNL     1      32.848 -13.790 -25.241  0.00  0.00    -0.505 OA
ATOM     12  H   UNL     1      32.317 -13.218 -24.722  0.00  0.00    +0.292 HD
ENDBRANCH   6  11
BRANCH   1  14
ATOM     13  O   UNL     1      36.702 -18.292 -23.083  0.00  0.00    -0.286 OA
ATOM     14  C   UNL     1      35.518 -18.095 -22.832  0.00  0.00    +0.202 C 
BRANCH  14  15
ATOM     15  C   UNL     1      34.731 -18.978 -21.927  0.00  0.00    +0.042 C 
ATOM     16  C   UNL     1      35.361 -19.791 -21.049  0.00  0.00    +0.003 C 
BRANCH  16  17
ATOM     17  C   UNL     1      34.699 -20.705 -20.131  0.00  0.00    +0.000 C 
ATOM     18  C   UNL     1      35.456 -21.589 -19.361  0.00  0.00    +0.000 C 
ATOM     19  C   UNL     1      33.309 -20.698 -20.021  0.00  0.00    +0.000 C 
ATOM     20  C   UNL     1      34.822 -22.466 -18.481  0.00  0.00    +0.000 C 
ATOM     21  C   UNL     1      32.675 -21.576 -19.140  0.00  0.00    +0.000 C 
ATOM     22  C   UNL     1      33.432 -22.459 -18.371  0.00  0.00    +0.000 C 
ENDBRANCH  16  17
ENDBRANCH  14  15
ENDBRANCH   1  14
TORSDOF 6
ENDMDL
MODEL 5
REMARK VINA RESULT:      -8.7      5.505      9.374
REMARK  Name = 641785
REMARK  6 active torsions:
REMARK  status: ('A' for Active; 'I' for Inactive)
REMARK    1  A    between atoms: C_1  and  C_14
REMARK    2  A    between atoms: C_2  and  O_7
REMARK    3  A    between atoms: C_3  and  O_9
REMARK    4  A    between atoms: C_6  and  O_11
REMARK    5  A    between atoms: C_14  and  C_15
REMARK    6  A    between atoms: C_16  and  C_17
REMARK                            x       y       z     vdW  Elec       q    Type
REMARK                         _______ _______ _______ _____ _____    ______ ____
ROOT
ATOM      1  C   UNL     1      34.171 -15.877 -24.041  0.00  0.00    +0.107 C 
ATOM      2  C   UNL     1      34.463 -15.155 -22.899  0.00  0.00    +0.148 C 
ATOM      3  C   UNL     1      33.530 -15.300 -25.122  0.00  0.00    +0.143 C 
ATOM      4  C   UNL     1      34.102 -13.809 -22.835  0.00  0.00    +0.074 C 
ATOM      5  C   UNL     1      33.168 -13.954 -25.058  0.00  0.00    +0.073 C 
ATOM      6  C   UNL     1      33.455 -13.209 -23.915  0.00  0.00    +0.140 C 
ENDROOT
BRANCH   2   7
ATOM      7  O   UNL     1      35.096 -15.722 -21.832  0.00  0.00    -0.471 OA
ATOM      8  C   UNL     1      34.493 -15.543 -20.553  0.00  0.00    +0.252 C 
ENDBRANCH   2   7
BRANCH   3   9
ATOM      9  O   UNL     1      33.241 -16.009 -26.250  0.00  0.00    -0.505 OA
ATOM     10  H   UNL     1      32.539 -15.737 -26.808  0.00  0.00    +0.292 HD
ENDBRANCH   3   9
BRANCH   6  11
ATOM     11  O   UNL     1      33.102 -11.895 -23.852  0.00  0.00    -0.505 OA
ATOM     12  H   UNL     1      32.291 -11.610 -24.221  0.00  0.00    +0.292 HD
ENDBRANCH   6  11
BRANCH   1  14
ATOM     13  O   UNL     1      35.197 -17.719 -25.070  0.00  0.00    -0.286 OA
ATOM     14  C   UNL     1      34.555 -17.308 -24.110  0.00  0.00    +0.202 C 
BRANCH  14  15
ATOM     15  C   UNL     1      34.106 -18.198 -23.003  0.00  0.00    +0.042 C 
ATOM     16  C   UNL     1      35.004 -18.944 -22.321  0.00  0.00    +0.003 C 
BRANCH  16  17
ATOM     17  C   UNL     1      34.682 -19.859 -21.237  0.00  0.00    +0.000 C 
ATOM     18  C   UNL     1      33.357 -20.017 -20.828  0.00  0.00    +0.000 C 
ATOM     19  C   UNL     1      35.697 -20.577 -20.606  0.00  0.00    +0.000 C 
ATOM     20  C   UNL     1      33.048 -20.893 -19.788  0.00  0.00    +0.000 C 
ATOM     21  C   UNL     1      35.387 -21.454 -19.565  0.00  0.00    +0.000 C 
ATOM     22  C   UNL     1      34.063 -21.612 -19.157  0.00  0.00    +0.000 C 
ENDBRANCH  16  17
ENDBRANCH  14  15
ENDBRANCH   1  14
TORSDOF 6
ENDMDL
MODEL 6
REMARK VINA RESULT:      -8.7      5.244      9.488
REMARK  Name = 641785
REMARK  6 active torsions:
REMARK  status: ('A' for Active; 'I' for Inactive)
REMARK    1  A    between atoms: C_1  and  C_14
REMARK    2  A    between atoms: C_2  and  O_7
REMARK    3  A    between atoms: C_3  and  O_9
REMARK    4  A    between atoms: C_6  and  O_11
REMARK    5  A    between atoms: C_14  and  C_15
REMARK    6  A    between atoms: C_16  and  C_17
REMARK                            x       y       z     vdW  Elec       q    Type
REMARK                         _______ _______ _______ _____ _____    ______ ____
ROOT
ATOM      1  C   UNL     1      34.212 -15.926 -23.078  0.00  0.00    +0.107 C 
ATOM      2  C   UNL     1      33.306 -14.922 -23.365  0.00  0.00    +0.148 C 
ATOM      3  C   UNL     1      34.829 -16.656 -24.077  0.00  0.00    +0.143 C 
ATOM      4  C   UNL     1      33.006 -14.638 -24.698  0.00  0.00    +0.074 C 
ATOM      5  C   UNL     1      34.530 -16.372 -25.409  0.00  0.00    +0.073 C 
ATOM      6  C   UNL     1      33.619 -15.363 -25.720  0.00  0.00    +0.140 C 
ENDROOT
BRANCH   2   7
ATOM      7  O   UNL     1      32.695 -14.201 -22.382  0.00  0.00    -0.471 OA
ATOM      8  C   UNL     1      32.289 -12.874 -22.709  0.00  0.00    +0.252 C 
ENDBRANCH   2   7
BRANCH   3   9
ATOM      9  O   UNL     1      35.724 -17.645 -23.797  0.00  0.00    -0.505 OA
ATOM     10  H   UNL     1      35.999 -17.791 -22.913  0.00  0.00    +0.292 HD
ENDBRANCH   3   9
BRANCH   6  11
ATOM     11  O   UNL     1      33.326 -15.086 -27.020  0.00  0.00    -0.505 OA
ATOM     12  H   UNL     1      34.015 -14.893 -27.625  0.00  0.00    +0.292 HD
ENDBRANCH   6  11
BRANCH   1  14
ATOM     13  O   UNL     1      35.152 -15.412 -20.991  0.00  0.00    -0.286 OA
ATOM     14  C   UNL     1      34.530 -16.228 -21.662  0.00  0.00    +0.202 C 
BRANCH  14  15
ATOM     15  C   UNL     1      34.096 -17.547 -21.122  0.00  0.00    +0.042 C 
ATOM     16  C   UNL     1      34.997 -18.536 -20.931  0.00  0.00    +0.003 C 
BRANCH  16  17
ATOM     17  C   UNL     1      34.688 -19.866 -20.428  0.00  0.00    +0.000 C 
ATOM     18  C   UNL     1      35.720 -20.739 -20.085  0.00  0.00    +0.000 C 
ATOM     19  C   UNL     1      33.360 -20.267 -20.289  0.00  0.00    +0.000 C 
ATOM     20  C   UNL     1      35.424 -22.014 -19.603  0.00  0.00    +0.000 C 
ATOM     21  C   UNL     1      33.064 -21.542 -19.806  0.00  0.00    +0.000 C 
ATOM     22  C   UNL     1      34.097 -22.415 -19.463  0.00  0.00    +0.000 C 
ENDBRANCH  16  17
ENDBRANCH  14  15
ENDBRANCH   1  14
TORSDOF 6
ENDMDL
MODEL 7
REMARK VINA RESULT:      -8.7      2.354      6.644
REMARK  Name = 641785
REMARK  6 active torsions:
REMARK  status: ('A' for Active; 'I' for Inactive)
REMARK    1  A    between atoms: C_1  and  C_14
REMARK    2  A    between atoms: C_2  and  O_7
REMARK    3  A    between atoms: C_3  and  O_9
REMARK    4  A    between atoms: C_6  and  O_11
REMARK    5  A    between atoms: C_14  and  C_15
REMARK    6  A    between atoms: C_16  and  C_17
REMARK                            x       y       z     vdW  Elec       q    Type
REMARK                         _______ _______ _______ _____ _____    ______ ____
ROOT
ATOM      1  C   UNL     1      34.527 -21.300 -19.889  0.00  0.00    +0.107 C 
ATOM      2  C   UNL     1      35.870 -21.015 -19.731  0.00  0.00    +0.148 C 
ATOM      3  C   UNL     1      33.685 -20.464 -20.601  0.00  0.00    +0.143 C 
ATOM      4  C   UNL     1      36.390 -19.853 -20.303  0.00  0.00    +0.074 C 
ATOM      5  C   UNL     1      34.205 -19.303 -21.173  0.00  0.00    +0.073 C 
ATOM      6  C   UNL     1      35.557 -18.998 -21.024  0.00  0.00    +0.140 C 
ENDROOT
BRANCH   2   7
ATOM      7  O   UNL     1      36.702 -21.837 -19.030  0.00  0.00    -0.471 OA
ATOM      8  C   UNL     1      36.871 -21.556 -17.642  0.00  0.00    +0.252 C 
ENDBRANCH   2   7
BRANCH   3   9
ATOM      9  O   UNL     1      32.360 -20.744 -20.759  0.00  0.00    -0.505 OA
ATOM     10  H   UNL     1      31.782 -20.092 -21.105  0.00  0.00    +0.292 HD
ENDBRANCH   3   9
BRANCH   6  11
ATOM     11  O   UNL     1      36.065 -17.865 -21.583  0.00  0.00    -0.505 OA
ATOM     12  H   UNL     1      35.813 -17.616 -22.449  0.00  0.00    +0.292 HD
ENDBRANCH   6  11
BRANCH   1  14
ATOM     13  O   UNL     1      34.191 -23.620 -19.807  0.00  0.00    -0.286 OA
ATOM     14  C   UNL     1      33.973 -22.534 -19.281  0.00  0.00    +0.202 C 
BRANCH  14  15
ATOM     15  C   UNL     1      33.140 -22.387 -18.056  0.00  0.00    +0.042 C 
ATOM     16  C   UNL     1      33.035 -23.407 -17.175  0.00  0.00    +0.003 C 
BRANCH  16  17
ATOM     17  C   UNL     1      32.240 -23.385 -15.957  0.00  0.00    +0.000 C 
ATOM     18  C   UNL     1      30.855 -23.234 -16.031  0.00  0.00    +0.000 C 
ATOM     19  C   UNL     1      32.862 -23.515 -14.716  0.00  0.00    +0.000 C 
ATOM     20  C   UNL     1      30.092 -23.212 -14.864  0.00  0.00    +0.000 C 
ATOM     21  C   UNL     1      32.098 -23.493 -13.548  0.00  0.00    +0.000 C 
ATOM     22  C   UNL     1      30.713 -23.342 -13.623  0.00  0.00    +0.000 C 
ENDBRANCH  16  17
ENDBRANCH  14  15
ENDBRANCH   1  14
TORSDOF 6
ENDMDL
MODEL 8
REMARK VINA RESULT:      -8.7      5.202      9.209
REMARK  Name = 641785
REMARK  6 active torsions:
REMARK  status: ('A' for Active; 'I' for Inactive)
REMARK    1  A    between atoms: C_1  and  C_14
REMARK    2  A    between atoms: C_2  and  O_7
REMARK    3  A    between atoms: C_3  and  O_9
REMARK    4  A    between atoms: C_6  and  O_11
REMARK    5  A    between atoms: C_14  and  C_15
REMARK    6  A    between atoms: C_16  and  C_17
REMARK                            x       y       z     vdW  Elec       q    Type
REMARK                         _______ _______ _______ _____ _____    ______ ____
ROOT
ATOM      1  C   UNL     1      34.151 -15.907 -23.176  0.00  0.00    +0.107 C 
ATOM      2  C   UNL     1      34.577 -16.756 -24.180  0.00  0.00    +0.148 C 
ATOM      3  C   UNL     1      33.413 -14.769 -23.451  0.00  0.00    +0.143 C 
ATOM      4  C   UNL     1      34.255 -16.458 -25.505  0.00  0.00    +0.074 C 
ATOM      5  C   UNL     1      33.092 -14.471 -24.775  0.00  0.00    +0.073 C 
ATOM      6  C   UNL     1      33.513 -15.315 -25.801  0.00  0.00    +0.140 C 
ENDROOT
BRANCH   2   7
ATOM      7  O   UNL     1      35.304 -17.878 -23.913  0.00  0.00    -0.471 OA
ATOM      8  C   UNL     1      34.829 -19.104 -24.463  0.00  0.00    +0.252 C 
ENDBRANCH   2   7
BRANCH   3   9
ATOM      9  O   UNL     1      32.991 -13.931 -22.462  0.00  0.00    -0.505 OA
ATOM     10  H   UNL     1      32.969 -14.228 -21.574  0.00  0.00    +0.292 HD
ENDBRANCH   3   9
BRANCH   6  11
ATOM     11  O   UNL     1      33.199 -15.025 -27.094  0.00  0.00    -0.505 OA
ATOM     12  H   UNL     1      33.124 -15.713 -27.724  0.00  0.00    +0.292 HD
ENDBRANCH   6  11
BRANCH   1  14
ATOM     13  O   UNL     1      35.123 -15.412 -21.100  0.00  0.00    -0.286 OA
ATOM     14  C   UNL     1      34.492 -16.223 -21.769  0.00  0.00    +0.202 C 
BRANCH  14  15
ATOM     15  C   UNL     1      34.072 -17.549 -21.237  0.00  0.00    +0.042 C 
ATOM     16  C   UNL     1      34.996 -18.492 -20.945  0.00  0.00    +0.003 C 
BRANCH  16  17
ATOM     17  C   UNL     1      34.703 -19.824 -20.438  0.00  0.00    +0.000 C 
ATOM     18  C   UNL     1      35.746 -20.683 -20.092  0.00  0.00    +0.000 C 
ATOM     19  C   UNL     1      33.380 -20.241 -20.299  0.00  0.00    +0.000 C 
ATOM     20  C   UNL     1      35.465 -21.960 -19.607  0.00  0.00    +0.000 C 
ATOM     21  C   UNL     1      33.099 -21.519 -19.813  0.00  0.00    +0.000 C 
ATOM     22  C   UNL     1      34.143 -22.378 -19.467  0.00  0.00    +0.000 C 
ENDBRANCH  16  17
ENDBRANCH  14  15
ENDBRANCH   1  14
TORSDOF 6
ENDMDL
MODEL 9
REMARK VINA RESULT:      -8.5      4.154      7.100
REMARK  Name = 641785
REMARK  6 active torsions:
REMARK  status: ('A' for Active; 'I' for Inactive)
REMARK    1  A    between atoms: C_1  and  C_14
REMARK    2  A    between atoms: C_2  and  O_7
REMARK    3  A    between atoms: C_3  and  O_9
REMARK    4  A    between atoms: C_6  and  O_11
REMARK    5  A    between atoms: C_14  and  C_15
REMARK    6  A    between atoms: C_16  and  C_17
REMARK                            x       y       z     vdW  Elec       q    Type
REMARK                         _______ _______ _______ _____ _____    ______ ____
ROOT
ATOM      1  C   UNL     1      36.845 -24.511 -13.964  0.00  0.00    +0.107 C 
ATOM      2  C   UNL     1      37.496 -23.704 -14.878  0.00  0.00    +0.148 C 
ATOM      3  C   UNL     1      37.355 -25.739 -13.586  0.00  0.00    +0.143 C 
ATOM      4  C   UNL     1      38.699 -24.141 -15.435  0.00  0.00    +0.074 C 
ATOM      5  C   UNL     1      38.557 -26.176 -14.142  0.00  0.00    +0.073 C 
ATOM      6  C   UNL     1      39.229 -25.377 -15.066  0.00  0.00    +0.140 C 
ENDROOT
BRANCH   2   7
ATOM      7  O   UNL     1      36.995 -22.492 -15.253  0.00  0.00    -0.471 OA
ATOM      8  C   UNL     1      37.130 -22.132 -16.626  0.00  0.00    +0.252 C 
ENDBRANCH   2   7
BRANCH   3   9
ATOM      9  O   UNL     1      36.716 -26.537 -12.684  0.00  0.00    -0.505 OA
ATOM     10  H   UNL     1      36.806 -26.371 -11.765  0.00  0.00    +0.292 HD
ENDBRANCH   3   9
BRANCH   6  11
ATOM     11  O   UNL     1      40.403 -25.802 -15.609  0.00  0.00    -0.505 OA
ATOM     12  H   UNL     1      40.685 -25.468 -16.437  0.00  0.00    +0.292 HD
ENDBRANCH   6  11
BRANCH   1  14
ATOM     13  O   UNL     1      35.543 -23.648 -12.214  0.00  0.00    -0.286 OA
ATOM     14  C   UNL     1      35.567 -24.047 -13.373  0.00  0.00    +0.202 C 
BRANCH  14  15
ATOM     15  C   UNL     1      34.346 -24.119 -14.223  0.00  0.00    +0.042 C 
ATOM     16  C   UNL     1      33.119 -24.013 -13.665  0.00  0.00    +0.003 C 
BRANCH  16  17
ATOM     17  C   UNL     1      31.860 -24.085 -14.390  0.00  0.00    +0.000 C 
ATOM     18  C   UNL     1      30.962 -25.120 -14.127  0.00  0.00    +0.000 C 
ATOM     19  C   UNL     1      31.551 -23.120 -15.347  0.00  0.00    +0.000 C 
ATOM     20  C   UNL     1      29.755 -25.189 -14.823  0.00  0.00    +0.000 C 
ATOM     21  C   UNL     1      30.342 -23.189 -16.043  0.00  0.00    +0.000 C 
ATOM     22  C   UNL     1      29.445 -24.225 -15.780  0.00  0.00    +0.000 C 
ENDBRANCH  16  17
ENDBRANCH  14  15
ENDBRANCH   1  14
TORSDOF 6
ENDMDL
