MODEL 1
REMARK VINA RESULT:      -8.2      0.000      0.000
REMARK  Name = 35935
REMARK  4 active torsions:
REMARK  status: ('A' for Active; 'I' for Inactive)
REMARK    1  A    between atoms: C_2  and  N_8
REMARK    2  A    between atoms: C_3  and  C_13
REMARK    3  A    between atoms: C_13  and  C_16
REMARK    4  A    between atoms: C_16  and  O_17
REMARK                            x       y       z     vdW  Elec       q    Type
REMARK                         _______ _______ _______ _____ _____    ______ ____
ROOT
ATOM      1 CL   UNL     1      34.947 -19.420 -24.316  0.00  0.00    -0.081 Cl
ATOM      2  C   UNL     1      34.914 -17.767 -22.144  0.00  0.00    +0.066 C 
ATOM      3  C   UNL     1      34.276 -15.534 -23.690  0.00  0.00    -0.011 C 
ATOM      4  C   UNL     1      34.756 -17.897 -23.524  0.00  0.00    +0.071 C 
ATOM      5  C   UNL     1      34.752 -16.522 -21.537  0.00  0.00    +0.016 C 
ATOM      6  C   UNL     1      34.437 -16.780 -24.297  0.00  0.00    +0.009 C 
ATOM      7  C   UNL     1      34.434 -15.406 -22.310  0.00  0.00    -0.002 C 
ENDROOT
BRANCH   2   8
ATOM      8  N   UNL     1      35.234 -18.880 -21.334  0.00  0.00    -0.262 N 
ATOM      9  C   UNL     1      36.582 -19.185 -20.958  0.00  0.00    +0.070 C 
ATOM     10  C   UNL     1      34.232 -19.778 -20.844  0.00  0.00    +0.070 C 
ATOM     11  C   UNL     1      36.370 -20.416 -20.140  0.00  0.00    +0.018 C 
ATOM     12  C   UNL     1      35.076 -20.742 -20.077  0.00  0.00    +0.018 C 
ENDBRANCH   2   8
BRANCH   3  13
ATOM     13  C   UNL     1      33.936 -14.340 -24.515  0.00  0.00    +0.121 C 
ATOM     14  C   UNL     1      32.981 -14.642 -25.689  0.00  0.00    +0.016 C 
BRANCH  13  16
ATOM     15  O   UNL     1      32.242 -13.250 -23.133  0.00  0.00    -0.250 OA
ATOM     16  C   UNL     1      33.332 -13.200 -23.688  0.00  0.00    +0.317 C 
BRANCH  16  17
ATOM     17  O   UNL     1      34.128 -12.099 -23.636  0.00  0.00    -0.480 OA
ATOM     18  H   UNL     1      33.859 -11.350 -23.141  0.00  0.00    +0.295 HD
ENDBRANCH  16  17
ENDBRANCH  13  16
ENDBRANCH   3  13
TORSDOF 4
ENDMDL
MODEL 2
REMARK VINA RESULT:      -8.1      7.261      9.666
REMARK  Name = 35935
REMARK  4 active torsions:
REMARK  status: ('A' for Active; 'I' for Inactive)
REMARK    1  A    between atoms: C_2  and  N_8
REMARK    2  A    between atoms: C_3  and  C_13
REMARK    3  A    between atoms: C_13  and  C_16
REMARK    4  A    between atoms: C_16  and  O_17
REMARK                            x       y       z     vdW  Elec       q    Type
REMARK                         _______ _______ _______ _____ _____    ______ ____
ROOT
ATOM      1 CL   UNL     1      34.368 -24.526 -14.487  0.00  0.00    -0.081 Cl
ATOM      2  C   UNL     1      36.727 -23.352 -15.197  0.00  0.00    +0.066 C 
ATOM      3  C   UNL     1      35.637 -22.266 -17.524  0.00  0.00    -0.011 C 
ATOM      4  C   UNL     1      35.387 -23.579 -15.510  0.00  0.00    +0.071 C 
ATOM      5  C   UNL     1      37.522 -22.582 -16.045  0.00  0.00    +0.016 C 
ATOM      6  C   UNL     1      34.842 -23.035 -16.674  0.00  0.00    +0.009 C 
ATOM      7  C   UNL     1      36.977 -22.039 -17.209  0.00  0.00    -0.002 C 
ENDROOT
BRANCH   2   8
ATOM      8  N   UNL     1      37.307 -23.887 -14.024  0.00  0.00    -0.262 N 
ATOM      9  C   UNL     1      37.253 -23.202 -12.767  0.00  0.00    +0.070 C 
ATOM     10  C   UNL     1      37.992 -25.144 -14.020  0.00  0.00    +0.070 C 
ATOM     11  C   UNL     1      37.994 -24.163 -11.896  0.00  0.00    +0.018 C 
ATOM     12  C   UNL     1      38.401 -25.232 -12.586  0.00  0.00    +0.018 C 
ENDBRANCH   2   8
BRANCH   3  13
ATOM     13  C   UNL     1      35.056 -21.685 -18.768  0.00  0.00    +0.121 C 
ATOM     14  C   UNL     1      36.095 -21.399 -19.870  0.00  0.00    +0.016 C 
BRANCH  13  16
ATOM     15  O   UNL     1      34.097 -23.721 -19.718  0.00  0.00    -0.250 OA
ATOM     16  C   UNL     1      33.948 -22.557 -19.369  0.00  0.00    +0.317 C 
BRANCH  16  17
ATOM     17  O   UNL     1      32.762 -21.904 -19.492  0.00  0.00    -0.480 OA
ATOM     18  H   UNL     1      32.445 -21.371 -18.789  0.00  0.00    +0.295 HD
ENDBRANCH  16  17
ENDBRANCH  13  16
ENDBRANCH   3  13
TORSDOF 4
ENDMDL
MODEL 3
REMARK VINA RESULT:      -8.0      4.138      7.081
REMARK  Name = 35935
REMARK  4 active torsions:
REMARK  status: ('A' for Active; 'I' for Inactive)
REMARK    1  A    between atoms: C_2  and  N_8
REMARK    2  A    between atoms: C_3  and  C_13
REMARK    3  A    between atoms: C_13  and  C_16
REMARK    4  A    between atoms: C_16  and  O_17
REMARK                            x       y       z     vdW  Elec       q    Type
REMARK                         _______ _______ _______ _____ _____    ______ ____
ROOT
ATOM      1 CL   UNL     1      37.652 -18.628 -21.798  0.00  0.00    -0.081 Cl
ATOM      2  C   UNL     1      34.941 -18.739 -21.504  0.00  0.00    +0.066 C 
ATOM      3  C   UNL     1      35.077 -21.019 -19.902  0.00  0.00    -0.011 C 
ATOM      4  C   UNL     1      36.179 -19.305 -21.201  0.00  0.00    +0.071 C 
ATOM      5  C   UNL     1      33.771 -19.311 -21.006  0.00  0.00    +0.016 C 
ATOM      6  C   UNL     1      36.247 -20.445 -20.400  0.00  0.00    +0.009 C 
ATOM      7  C   UNL     1      33.839 -20.452 -20.206  0.00  0.00    -0.002 C 
ENDROOT
BRANCH   2   8
ATOM      8  N   UNL     1      34.839 -17.583 -22.311  0.00  0.00    -0.262 N 
ATOM      9  C   UNL     1      34.757 -16.268 -21.750  0.00  0.00    +0.070 C 
ATOM     10  C   UNL     1      34.806 -17.654 -23.741  0.00  0.00    +0.070 C 
ATOM     11  C   UNL     1      34.663 -15.443 -22.992  0.00  0.00    +0.018 C 
ATOM     12  C   UNL     1      34.691 -16.207 -24.088  0.00  0.00    +0.018 C 
ENDBRANCH   2   8
BRANCH   3  13
ATOM     13  C   UNL     1      35.148 -22.237 -19.046  0.00  0.00    +0.121 C 
ATOM     14  C   UNL     1      35.623 -21.962 -17.605  0.00  0.00    +0.016 C 
BRANCH  13  16
ATOM     15  O   UNL     1      32.835 -22.606 -18.354  0.00  0.00    -0.250 OA
ATOM     16  C   UNL     1      33.816 -22.993 -18.976  0.00  0.00    +0.317 C 
BRANCH  16  17
ATOM     17  O   UNL     1      33.828 -24.161 -19.671  0.00  0.00    -0.480 OA
ATOM     18  H   UNL     1      33.460 -24.197 -20.532  0.00  0.00    +0.295 HD
ENDBRANCH  16  17
ENDBRANCH  13  16
ENDBRANCH   3  13
TORSDOF 4
ENDMDL
MODEL 4
REMARK VINA RESULT:      -7.9      4.854      8.087
REMARK  Name = 35935
REMARK  4 active torsions:
REMARK  status: ('A' for Active; 'I' for Inactive)
REMARK    1  A    between atoms: C_2  and  N_8
REMARK    2  A    between atoms: C_3  and  C_13
REMARK    3  A    between atoms: C_13  and  C_16
REMARK    4  A    between atoms: C_16  and  O_17
REMARK                            x       y       z     vdW  Elec       q    Type
REMARK                         _______ _______ _______ _____ _____    ______ ____
ROOT
ATOM      1 CL   UNL     1      30.557 -11.179 -20.853  0.00  0.00    -0.081 Cl
ATOM      2  C   UNL     1      32.407 -10.561 -22.762  0.00  0.00    +0.066 C 
ATOM      3  C   UNL     1      32.992 -13.245 -23.249  0.00  0.00    -0.011 C 
ATOM      4  C   UNL     1      31.745 -11.560 -22.048  0.00  0.00    +0.071 C 
ATOM      5  C   UNL     1      33.360 -10.904 -23.720  0.00  0.00    +0.016 C 
ATOM      6  C   UNL     1      32.038 -12.902 -22.292  0.00  0.00    +0.009 C 
ATOM      7  C   UNL     1      33.654 -12.246 -23.963  0.00  0.00    -0.002 C 
ENDROOT
BRANCH   2   8
ATOM      8  N   UNL     1      32.131  -9.193 -22.539  0.00  0.00    -0.262 N 
ATOM      9  C   UNL     1      32.680  -8.477 -21.427  0.00  0.00    +0.070 C 
ATOM     10  C   UNL     1      31.278  -8.438 -23.407  0.00  0.00    +0.070 C 
ATOM     11  C   UNL     1      32.089  -7.124 -21.650  0.00  0.00    +0.018 C 
ATOM     12  C   UNL     1      31.317  -7.102 -22.741  0.00  0.00    +0.018 C 
ENDBRANCH   2   8
BRANCH   3  13
ATOM     13  C   UNL     1      33.305 -14.679 -23.511  0.00  0.00    +0.121 C 
ATOM     14  C   UNL     1      33.467 -15.022 -25.005  0.00  0.00    +0.016 C 
BRANCH  13  16
ATOM     15  O   UNL     1      34.769 -14.980 -21.579  0.00  0.00    -0.250 OA
ATOM     16  C   UNL     1      34.561 -15.157 -22.772  0.00  0.00    +0.317 C 
BRANCH  16  17
ATOM     17  O   UNL     1      35.445 -15.798 -23.581  0.00  0.00    -0.480 OA
ATOM     18  H   UNL     1      36.353 -15.828 -23.351  0.00  0.00    +0.295 HD
ENDBRANCH  16  17
ENDBRANCH  13  16
ENDBRANCH   3  13
TORSDOF 4
ENDMDL
MODEL 5
REMARK VINA RESULT:      -7.8      1.357      2.027
REMARK  Name = 35935
REMARK  4 active torsions:
REMARK  status: ('A' for Active; 'I' for Inactive)
REMARK    1  A    between atoms: C_2  and  N_8
REMARK    2  A    between atoms: C_3  and  C_13
REMARK    3  A    between atoms: C_13  and  C_16
REMARK    4  A    between atoms: C_16  and  O_17
REMARK                            x       y       z     vdW  Elec       q    Type
REMARK                         _______ _______ _______ _____ _____    ______ ____
ROOT
ATOM      1 CL   UNL     1      34.739 -16.142 -20.235  0.00  0.00    -0.081 Cl
ATOM      2  C   UNL     1      34.907 -17.777 -22.414  0.00  0.00    +0.066 C 
ATOM      3  C   UNL     1      34.250 -15.715 -24.175  0.00  0.00    -0.011 C 
ATOM      4  C   UNL     1      34.656 -16.495 -21.924  0.00  0.00    +0.071 C 
ATOM      5  C   UNL     1      34.832 -18.028 -23.784  0.00  0.00    +0.016 C 
ATOM      6  C   UNL     1      34.328 -15.464 -22.805  0.00  0.00    +0.009 C 
ATOM      7  C   UNL     1      34.502 -16.997 -24.664  0.00  0.00    -0.002 C 
ENDROOT
BRANCH   2   8
ATOM      8  N   UNL     1      35.244 -18.841 -21.548  0.00  0.00    -0.262 N 
ATOM      9  C   UNL     1      34.264 -19.763 -21.057  0.00  0.00    +0.070 C 
ATOM     10  C   UNL     1      36.586 -19.062 -21.100  0.00  0.00    +0.070 C 
ATOM     11  C   UNL     1      35.117 -20.649 -20.210  0.00  0.00    +0.018 C 
ATOM     12  C   UNL     1      36.396 -20.264 -20.234  0.00  0.00    +0.018 C 
ENDBRANCH   2   8
BRANCH   3  13
ATOM     13  C   UNL     1      33.900 -14.614 -25.116  0.00  0.00    +0.121 C 
ATOM     14  C   UNL     1      32.887 -15.020 -26.206  0.00  0.00    +0.016 C 
BRANCH  13  16
ATOM     15  O   UNL     1      32.272 -13.313 -23.843  0.00  0.00    -0.250 OA
ATOM     16  C   UNL     1      33.359 -13.370 -24.401  0.00  0.00    +0.317 C 
BRANCH  16  17
ATOM     17  O   UNL     1      34.210 -12.312 -24.455  0.00  0.00    -0.480 OA
ATOM     18  H   UNL     1      34.511 -11.912 -23.662  0.00  0.00    +0.295 HD
ENDBRANCH  16  17
ENDBRANCH  13  16
ENDBRANCH   3  13
TORSDOF 4
ENDMDL
MODEL 6
REMARK VINA RESULT:      -7.8      1.292      1.954
REMARK  Name = 35935
REMARK  4 active torsions:
REMARK  status: ('A' for Active; 'I' for Inactive)
REMARK    1  A    between atoms: C_2  and  N_8
REMARK    2  A    between atoms: C_3  and  C_13
REMARK    3  A    between atoms: C_13  and  C_16
REMARK    4  A    between atoms: C_16  and  O_17
REMARK                            x       y       z     vdW  Elec       q    Type
REMARK                         _______ _______ _______ _____ _____    ______ ____
ROOT
ATOM      1 CL   UNL     1      34.986 -17.774 -24.464  0.00  0.00    -0.081 Cl
ATOM      2  C   UNL     1      34.195 -16.947 -21.986  0.00  0.00    +0.066 C 
ATOM      3  C   UNL     1      33.165 -14.549 -22.972  0.00  0.00    -0.011 C 
ATOM      4  C   UNL     1      34.267 -16.666 -23.351  0.00  0.00    +0.071 C 
ATOM      5  C   UNL     1      33.608 -16.031 -21.115  0.00  0.00    +0.016 C 
ATOM      6  C   UNL     1      33.751 -15.467 -23.843  0.00  0.00    +0.009 C 
ATOM      7  C   UNL     1      33.093 -14.831 -21.607  0.00  0.00    -0.002 C 
ENDROOT
BRANCH   2   8
ATOM      8  N   UNL     1      34.706 -18.154 -21.457  0.00  0.00    -0.262 N 
ATOM      9  C   UNL     1      33.855 -19.247 -21.094  0.00  0.00    +0.070 C 
ATOM     10  C   UNL     1      36.107 -18.358 -21.244  0.00  0.00    +0.070 C 
ATOM     11  C   UNL     1      34.864 -20.232 -20.603  0.00  0.00    +0.018 C 
ATOM     12  C   UNL     1      36.104 -19.743 -20.686  0.00  0.00    +0.018 C 
ENDBRANCH   2   8
BRANCH   3  13
ATOM     13  C   UNL     1      32.614 -13.267 -23.497  0.00  0.00    +0.121 C 
ATOM     14  C   UNL     1      32.169 -12.280 -22.399  0.00  0.00    +0.016 C 
BRANCH  13  16
ATOM     15  O   UNL     1      33.602 -12.661 -25.647  0.00  0.00    -0.250 OA
ATOM     16  C   UNL     1      33.589 -12.540 -24.429  0.00  0.00    +0.317 C 
BRANCH  16  17
ATOM     17  O   UNL     1      34.465 -11.740 -23.765  0.00  0.00    -0.480 OA
ATOM     18  H   UNL     1      34.268 -11.449 -22.896  0.00  0.00    +0.295 HD
ENDBRANCH  16  17
ENDBRANCH  13  16
ENDBRANCH   3  13
TORSDOF 4
ENDMDL
MODEL 7
REMARK VINA RESULT:      -7.7      4.856      8.208
REMARK  Name = 35935
REMARK  4 active torsions:
REMARK  status: ('A' for Active; 'I' for Inactive)
REMARK    1  A    between atoms: C_2  and  N_8
REMARK    2  A    between atoms: C_3  and  C_13
REMARK    3  A    between atoms: C_13  and  C_16
REMARK    4  A    between atoms: C_16  and  O_17
REMARK                            x       y       z     vdW  Elec       q    Type
REMARK                         _______ _______ _______ _____ _____    ______ ____
ROOT
ATOM      1 CL   UNL     1      30.792 -11.326 -21.222  0.00  0.00    -0.081 Cl
ATOM      2  C   UNL     1      32.566 -10.351 -23.053  0.00  0.00    +0.066 C 
ATOM      3  C   UNL     1      33.427 -12.906 -23.772  0.00  0.00    -0.011 C 
ATOM      4  C   UNL     1      32.012 -11.473 -22.436  0.00  0.00    +0.071 C 
ATOM      5  C   UNL     1      33.549 -10.506 -24.029  0.00  0.00    +0.016 C 
ATOM      6  C   UNL     1      32.443 -12.750 -22.796  0.00  0.00    +0.009 C 
ATOM      7  C   UNL     1      33.980 -11.783 -24.388  0.00  0.00    -0.002 C 
ENDROOT
BRANCH   2   8
ATOM      8  N   UNL     1      32.149  -9.045 -22.712  0.00  0.00    -0.262 N 
ATOM      9  C   UNL     1      31.208  -8.314 -23.507  0.00  0.00    +0.070 C 
ATOM     10  C   UNL     1      32.646  -8.366 -21.553  0.00  0.00    +0.070 C 
ATOM     11  C   UNL     1      31.125  -7.038 -22.734  0.00  0.00    +0.018 C 
ATOM     12  C   UNL     1      31.916  -7.067 -21.658  0.00  0.00    +0.018 C 
ENDBRANCH   2   8
BRANCH   3  13
ATOM     13  C   UNL     1      33.888 -14.270 -24.157  0.00  0.00    +0.121 C 
ATOM     14  C   UNL     1      33.591 -15.353 -23.100  0.00  0.00    +0.016 C 
BRANCH  13  16
ATOM     15  O   UNL     1      32.366 -14.200 -26.066  0.00  0.00    -0.250 OA
ATOM     16  C   UNL     1      33.307 -14.737 -25.496  0.00  0.00    +0.317 C 
BRANCH  16  17
ATOM     17  O   UNL     1      33.938 -15.831 -25.999  0.00  0.00    -0.480 OA
ATOM     18  H   UNL     1      34.782 -16.077 -25.673  0.00  0.00    +0.295 HD
ENDBRANCH  16  17
ENDBRANCH  13  16
ENDBRANCH   3  13
TORSDOF 4
ENDMDL
MODEL 8
REMARK VINA RESULT:      -7.6      4.915      8.169
REMARK  Name = 35935
REMARK  4 active torsions:
REMARK  status: ('A' for Active; 'I' for Inactive)
REMARK    1  A    between atoms: C_2  and  N_8
REMARK    2  A    between atoms: C_3  and  C_13
REMARK    3  A    between atoms: C_13  and  C_16
REMARK    4  A    between atoms: C_16  and  O_17
REMARK                            x       y       z     vdW  Elec       q    Type
REMARK                         _______ _______ _______ _____ _____    ______ ____
ROOT
ATOM      1 CL   UNL     1      34.463  -9.554 -24.404  0.00  0.00    -0.081 Cl
ATOM      2  C   UNL     1      32.432 -10.383 -22.781  0.00  0.00    +0.066 C 
ATOM      3  C   UNL     1      32.973 -13.077 -23.260  0.00  0.00    -0.011 C 
ATOM      4  C   UNL     1      33.478 -10.743 -23.630  0.00  0.00    +0.071 C 
ATOM      5  C   UNL     1      31.657 -11.368 -22.171  0.00  0.00    +0.016 C 
ATOM      6  C   UNL     1      33.749 -12.090 -23.869  0.00  0.00    +0.009 C 
ATOM      7  C   UNL     1      31.927 -12.716 -22.411  0.00  0.00    -0.002 C 
ENDROOT
BRANCH   2   8
ATOM      8  N   UNL     1      32.134  -9.026 -22.517  0.00  0.00    -0.262 N 
ATOM      9  C   UNL     1      31.315  -8.242 -23.392  0.00  0.00    +0.070 C 
ATOM     10  C   UNL     1      32.639  -8.348 -21.361  0.00  0.00    +0.070 C 
ATOM     11  C   UNL     1      31.325  -6.930 -22.678  0.00  0.00    +0.018 C 
ATOM     12  C   UNL     1      32.053  -6.989 -21.559  0.00  0.00    +0.018 C 
ENDBRANCH   2   8
BRANCH   3  13
ATOM     13  C   UNL     1      33.262 -14.517 -23.516  0.00  0.00    +0.121 C 
ATOM     14  C   UNL     1      33.413 -14.870 -25.009  0.00  0.00    +0.016 C 
BRANCH  13  16
ATOM     15  O   UNL     1      34.739 -14.809 -21.593  0.00  0.00    -0.250 OA
ATOM     16  C   UNL     1      34.511 -15.012 -22.778  0.00  0.00    +0.317 C 
BRANCH  16  17
ATOM     17  O   UNL     1      35.366 -15.701 -23.580  0.00  0.00    -0.480 OA
ATOM     18  H   UNL     1      35.935 -16.348 -23.211  0.00  0.00    +0.295 HD
ENDBRANCH  16  17
ENDBRANCH  13  16
ENDBRANCH   3  13
TORSDOF 4
ENDMDL
MODEL 9
REMARK VINA RESULT:      -7.6      3.487      6.316
REMARK  Name = 35935
REMARK  4 active torsions:
REMARK  status: ('A' for Active; 'I' for Inactive)
REMARK    1  A    between atoms: C_2  and  N_8
REMARK    2  A    between atoms: C_3  and  C_13
REMARK    3  A    between atoms: C_13  and  C_16
REMARK    4  A    between atoms: C_16  and  O_17
REMARK                            x       y       z     vdW  Elec       q    Type
REMARK                         _______ _______ _______ _____ _____    ______ ____
ROOT
ATOM      1 CL   UNL     1      33.065 -14.428 -25.793  0.00  0.00    -0.081 Cl
ATOM      2  C   UNL     1      33.785 -14.045 -23.188  0.00  0.00    +0.066 C 
ATOM      3  C   UNL     1      34.443 -16.734 -22.839  0.00  0.00    -0.011 C 
ATOM      4  C   UNL     1      33.644 -14.941 -24.248  0.00  0.00    +0.071 C 
ATOM      5  C   UNL     1      34.255 -14.493 -21.954  0.00  0.00    +0.016 C 
ATOM      6  C   UNL     1      33.973 -16.285 -24.074  0.00  0.00    +0.009 C 
ATOM      7  C   UNL     1      34.584 -15.837 -21.779  0.00  0.00    -0.002 C 
ENDROOT
BRANCH   2   8
ATOM      8  N   UNL     1      33.462 -12.677 -23.334  0.00  0.00    -0.262 N 
ATOM      9  C   UNL     1      32.384 -12.068 -22.614  0.00  0.00    +0.070 C 
ATOM     10  C   UNL     1      34.186 -11.815 -24.218  0.00  0.00    +0.070 C 
ATOM     11  C   UNL     1      32.468 -10.666 -23.123  0.00  0.00    +0.018 C 
ATOM     12  C   UNL     1      33.461 -10.527 -24.006  0.00  0.00    +0.018 C 
ENDBRANCH   2   8
BRANCH   3  13
ATOM     13  C   UNL     1      34.795 -18.170 -22.652  0.00  0.00    +0.121 C 
ATOM     14  C   UNL     1      34.977 -18.948 -23.971  0.00  0.00    +0.016 C 
BRANCH  13  16
ATOM     15  O   UNL     1      36.051 -18.602 -20.602  0.00  0.00    -0.250 OA
ATOM     16  C   UNL     1      36.056 -18.366 -21.803  0.00  0.00    +0.317 C 
BRANCH  16  17
ATOM     17  O   UNL     1      37.205 -18.240 -22.518  0.00  0.00    -0.480 OA
ATOM     18  H   UNL     1      37.228 -17.688 -23.275  0.00  0.00    +0.295 HD
ENDBRANCH  16  17
ENDBRANCH  13  16
ENDBRANCH   3  13
TORSDOF 4
ENDMDL
