MODEL 1
REMARK VINA RESULT:     -10.1      0.000      0.000
REMARK  Name = 9994897
REMARK  8 active torsions:
REMARK  status: ('A' for Active; 'I' for Inactive)
REMARK    1  A    between atoms: N_2  and  C_17
REMARK    2  A    between atoms: C_3  and  C_5
REMARK    3  A    between atoms: C_6  and  C_7
REMARK    4  A    between atoms: C_10  and  O_13
REMARK    5  A    between atoms: C_11  and  O_15
REMARK    6  A    between atoms: C_17  and  C_18
REMARK    7  A    between atoms: C_18  and  C_19
REMARK    8  A    between atoms: C_24  and  O_25
REMARK                            x       y       z     vdW  Elec       q    Type
REMARK                         _______ _______ _______ _____ _____    ______ ____
ROOT
ATOM      1  O   UNL     1      34.597 -17.192 -25.814  0.00  0.00    -0.270 OA
ATOM      2  N   UNL     1      34.747 -17.117 -23.496  0.00  0.00    -0.301 N 
ATOM      3  C   UNL     1      34.425 -16.615 -24.744  0.00  0.00    +0.246 C 
ATOM      4  H   UNL     1      34.562 -16.562 -22.704  0.00  0.00    +0.150 HD
ENDROOT
BRANCH   3   5
ATOM      5  C   UNL     1      33.825 -15.253 -24.656  0.00  0.00    +0.058 C 
ATOM      6  C   UNL     1      33.859 -14.581 -23.496  0.00  0.00    +0.005 C 
BRANCH   6   7
ATOM      7  C   UNL     1      33.306 -13.230 -23.296  0.00  0.00    +0.003 C 
ATOM      8  C   UNL     1      32.241 -13.054 -22.427  0.00  0.00    +0.040 C 
ATOM      9  C   UNL     1      33.861 -12.162 -23.983  0.00  0.00    +0.003 C 
ATOM     10  C   UNL     1      31.717 -11.775 -22.239  0.00  0.00    +0.167 C 
ATOM     11  C   UNL     1      32.265 -10.689 -22.923  0.00  0.00    +0.167 C 
ATOM     12  C   UNL     1      33.337 -10.883 -23.794  0.00  0.00    +0.040 C 
BRANCH  10  13
ATOM     13  O   UNL     1      30.671 -11.597 -21.385  0.00  0.00    -0.503 OA
ATOM     14  H   UNL     1      30.194 -10.791 -21.390  0.00  0.00    +0.292 HD
ENDBRANCH  10  13
BRANCH  11  15
ATOM     15  O   UNL     1      31.764  -9.435 -22.746  0.00  0.00    -0.503 OA
ATOM     16  H   UNL     1      31.638  -9.098 -21.880  0.00  0.00    +0.292 HD
ENDBRANCH  11  15
ENDBRANCH   6   7
ENDBRANCH   3   5
BRANCH   2  17
ATOM     17  C   UNL     1      35.343 -18.420 -23.299  0.00  0.00    +0.094 C 
BRANCH  17  18
ATOM     18  C   UNL     1      35.877 -18.570 -21.874  0.00  0.00    +0.048 C 
BRANCH  18  19
ATOM     19  C   UNL     1      35.057 -19.550 -21.075  0.00  0.00    -0.020 C 
ATOM     20  C   UNL     1      33.675 -19.438 -21.072  0.00  0.00    -0.001 C 
ATOM     21  C   UNL     1      35.698 -20.547 -20.355  0.00  0.00    -0.001 C 
ATOM     22  C   UNL     1      32.916 -20.345 -20.332  0.00  0.00    +0.036 C 
ATOM     23  C   UNL     1      34.939 -21.454 -19.617  0.00  0.00    +0.036 C 
ATOM     24  C   UNL     1      33.548 -21.353 -19.604  0.00  0.00    +0.134 C 
BRANCH  24  25
ATOM     25  O   UNL     1      32.807 -22.237 -18.882  0.00  0.00    -0.506 OA
ATOM     26  H   UNL     1      32.254 -22.854 -19.321  0.00  0.00    +0.292 HD
ENDBRANCH  24  25
ENDBRANCH  18  19
ENDBRANCH  17  18
ENDBRANCH   2  17
TORSDOF 8
ENDMDL
MODEL 2
REMARK VINA RESULT:     -10.0      4.145     10.631
REMARK  Name = 9994897
REMARK  8 active torsions:
REMARK  status: ('A' for Active; 'I' for Inactive)
REMARK    1  A    between atoms: N_2  and  C_17
REMARK    2  A    between atoms: C_3  and  C_5
REMARK    3  A    between atoms: C_6  and  C_7
REMARK    4  A    between atoms: C_10  and  O_13
REMARK    5  A    between atoms: C_11  and  O_15
REMARK    6  A    between atoms: C_17  and  C_18
REMARK    7  A    between atoms: C_18  and  C_19
REMARK    8  A    between atoms: C_24  and  O_25
REMARK                            x       y       z     vdW  Elec       q    Type
REMARK                         _______ _______ _______ _____ _____    ______ ____
ROOT
ATOM      1  O   UNL     1      34.916 -22.679 -19.729  0.00  0.00    -0.270 OA
ATOM      2  N   UNL     1      33.099 -21.260 -19.435  0.00  0.00    -0.301 N 
ATOM      3  C   UNL     1      33.947 -22.294 -19.081  0.00  0.00    +0.246 C 
ATOM      4  H   UNL     1      32.352 -21.039 -18.834  0.00  0.00    +0.150 HD
ENDROOT
BRANCH   3   5
ATOM      5  C   UNL     1      33.552 -22.916 -17.785  0.00  0.00    +0.058 C 
ATOM      6  C   UNL     1      32.307 -22.751 -17.315  0.00  0.00    +0.005 C 
BRANCH   6   7
ATOM      7  C   UNL     1      31.806 -23.325 -16.054  0.00  0.00    +0.003 C 
ATOM      8  C   UNL     1      32.711 -23.816 -15.127  0.00  0.00    +0.040 C 
ATOM      9  C   UNL     1      30.441 -23.364 -15.822  0.00  0.00    +0.003 C 
ATOM     10  C   UNL     1      32.236 -24.360 -13.933  0.00  0.00    +0.167 C 
ATOM     11  C   UNL     1      30.864 -24.406 -13.684  0.00  0.00    +0.167 C 
ATOM     12  C   UNL     1      29.967 -23.908 -14.628  0.00  0.00    +0.040 C 
BRANCH  10  13
ATOM     13  O   UNL     1      33.122 -24.842 -13.017  0.00  0.00    -0.503 OA
ATOM     14  H   UNL     1      34.043 -24.777 -13.178  0.00  0.00    +0.292 HD
ENDBRANCH  10  13
BRANCH  11  15
ATOM     15  O   UNL     1      30.389 -24.933 -12.521  0.00  0.00    -0.503 OA
ATOM     16  H   UNL     1      30.912 -25.539 -12.032  0.00  0.00    +0.292 HD
ENDBRANCH  11  15
ENDBRANCH   6   7
ENDBRANCH   3   5
BRANCH   2  17
ATOM     17  C   UNL     1      33.260 -20.488 -20.647  0.00  0.00    +0.094 C 
BRANCH  17  18
ATOM     18  C   UNL     1      34.516 -19.619 -20.582  0.00  0.00    +0.048 C 
BRANCH  18  19
ATOM     19  C   UNL     1      34.689 -18.800 -21.836  0.00  0.00    -0.020 C 
ATOM     20  C   UNL     1      34.901 -17.434 -21.734  0.00  0.00    -0.001 C 
ATOM     21  C   UNL     1      34.635 -19.427 -23.072  0.00  0.00    -0.001 C 
ATOM     22  C   UNL     1      35.062 -16.677 -22.894  0.00  0.00    +0.036 C 
ATOM     23  C   UNL     1      34.797 -18.670 -24.232  0.00  0.00    +0.036 C 
ATOM     24  C   UNL     1      35.009 -17.295 -24.143  0.00  0.00    +0.134 C 
BRANCH  24  25
ATOM     25  O   UNL     1      35.166 -16.555 -25.275  0.00  0.00    -0.506 OA
ATOM     26  H   UNL     1      35.659 -16.897 -25.994  0.00  0.00    +0.292 HD
ENDBRANCH  24  25
ENDBRANCH  18  19
ENDBRANCH  17  18
ENDBRANCH   2  17
TORSDOF 8
ENDMDL
MODEL 3
REMARK VINA RESULT:      -9.9      0.560      1.741
REMARK  Name = 9994897
REMARK  8 active torsions:
REMARK  status: ('A' for Active; 'I' for Inactive)
REMARK    1  A    between atoms: N_2  and  C_17
REMARK    2  A    between atoms: C_3  and  C_5
REMARK    3  A    between atoms: C_6  and  C_7
REMARK    4  A    between atoms: C_10  and  O_13
REMARK    5  A    between atoms: C_11  and  O_15
REMARK    6  A    between atoms: C_17  and  C_18
REMARK    7  A    between atoms: C_18  and  C_19
REMARK    8  A    between atoms: C_24  and  O_25
REMARK                            x       y       z     vdW  Elec       q    Type
REMARK                         _______ _______ _______ _____ _____    ______ ____
ROOT
ATOM      1  O   UNL     1      34.825 -17.014 -25.734  0.00  0.00    -0.270 OA
ATOM      2  N   UNL     1      34.719 -17.190 -23.420  0.00  0.00    -0.301 N 
ATOM      3  C   UNL     1      34.512 -16.565 -24.637  0.00  0.00    +0.246 C 
ATOM      4  H   UNL     1      34.424 -16.731 -22.600  0.00  0.00    +0.150 HD
ENDROOT
BRANCH   3   5
ATOM      5  C   UNL     1      33.843 -15.242 -24.473  0.00  0.00    +0.058 C 
ATOM      6  C   UNL     1      33.841 -14.636 -23.277  0.00  0.00    +0.005 C 
BRANCH   6   7
ATOM      7  C   UNL     1      33.221 -13.328 -23.004  0.00  0.00    +0.003 C 
ATOM      8  C   UNL     1      33.630 -12.219 -23.726  0.00  0.00    +0.040 C 
ATOM      9  C   UNL     1      32.241 -13.233 -22.029  0.00  0.00    +0.003 C 
ATOM     10  C   UNL     1      33.043 -10.980 -23.467  0.00  0.00    +0.167 C 
ATOM     11  C   UNL     1      32.054 -10.868 -22.488  0.00  0.00    +0.167 C 
ATOM     12  C   UNL     1      31.654 -11.994 -21.770  0.00  0.00    +0.040 C 
BRANCH  10  13
ATOM     13  O   UNL     1      33.441  -9.887 -24.176  0.00  0.00    -0.503 OA
ATOM     14  H   UNL     1      33.395  -9.895 -25.112  0.00  0.00    +0.292 HD
ENDBRANCH  10  13
BRANCH  11  15
ATOM     15  O   UNL     1      31.472  -9.664 -22.228  0.00  0.00    -0.503 OA
ATOM     16  H   UNL     1      31.660  -8.925 -22.772  0.00  0.00    +0.292 HD
ENDBRANCH  11  15
ENDBRANCH   6   7
ENDBRANCH   3   5
BRANCH   2  17
ATOM     17  C   UNL     1      35.349 -18.485 -23.295  0.00  0.00    +0.094 C 
BRANCH  17  18
ATOM     18  C   UNL     1      35.931 -18.680 -21.895  0.00  0.00    +0.048 C 
BRANCH  18  19
ATOM     19  C   UNL     1      35.092 -19.623 -21.072  0.00  0.00    -0.020 C 
ATOM     20  C   UNL     1      35.712 -20.626 -20.343  0.00  0.00    -0.001 C 
ATOM     21  C   UNL     1      33.714 -19.471 -21.056  0.00  0.00    -0.001 C 
ATOM     22  C   UNL     1      34.935 -21.499 -19.581  0.00  0.00    +0.036 C 
ATOM     23  C   UNL     1      32.937 -20.343 -20.293  0.00  0.00    +0.036 C 
ATOM     24  C   UNL     1      33.548 -21.357 -19.556  0.00  0.00    +0.134 C 
BRANCH  24  25
ATOM     25  O   UNL     1      32.791 -22.209 -18.812  0.00  0.00    -0.506 OA
ATOM     26  H   UNL     1      32.246 -22.844 -19.235  0.00  0.00    +0.292 HD
ENDBRANCH  24  25
ENDBRANCH  18  19
ENDBRANCH  17  18
ENDBRANCH   2  17
TORSDOF 8
ENDMDL
MODEL 4
REMARK VINA RESULT:      -9.8      1.890      9.040
REMARK  Name = 9994897
REMARK  8 active torsions:
REMARK  status: ('A' for Active; 'I' for Inactive)
REMARK    1  A    between atoms: N_2  and  C_17
REMARK    2  A    between atoms: C_3  and  C_5
REMARK    3  A    between atoms: C_6  and  C_7
REMARK    4  A    between atoms: C_10  and  O_13
REMARK    5  A    between atoms: C_11  and  O_15
REMARK    6  A    between atoms: C_17  and  C_18
REMARK    7  A    between atoms: C_18  and  C_19
REMARK    8  A    between atoms: C_24  and  O_25
REMARK                            x       y       z     vdW  Elec       q    Type
REMARK                         _______ _______ _______ _____ _____    ______ ____
ROOT
ATOM      1  O   UNL     1      35.296 -15.642 -23.474  0.00  0.00    -0.270 OA
ATOM      2  N   UNL     1      33.797 -14.879 -21.871  0.00  0.00    -0.301 N 
ATOM      3  C   UNL     1      34.727 -15.761 -22.394  0.00  0.00    +0.246 C 
ATOM      4  H   UNL     1      33.405 -15.079 -20.990  0.00  0.00    +0.150 HD
ENDROOT
BRANCH   3   5
ATOM      5  C   UNL     1      34.976 -16.911 -21.479  0.00  0.00    +0.058 C 
ATOM      6  C   UNL     1      34.502 -18.127 -21.788  0.00  0.00    +0.005 C 
BRANCH   6   7
ATOM      7  C   UNL     1      34.695 -19.334 -20.965  0.00  0.00    +0.003 C 
ATOM      8  C   UNL     1      33.586 -20.029 -20.511  0.00  0.00    +0.040 C 
ATOM      9  C   UNL     1      35.982 -19.748 -20.660  0.00  0.00    +0.003 C 
ATOM     10  C   UNL     1      33.769 -21.171 -19.730  0.00  0.00    +0.167 C 
ATOM     11  C   UNL     1      35.059 -21.601 -19.415  0.00  0.00    +0.167 C 
ATOM     12  C   UNL     1      36.164 -20.889 -19.880  0.00  0.00    +0.040 C 
BRANCH  10  13
ATOM     13  O   UNL     1      32.682 -21.859 -19.282  0.00  0.00    -0.503 OA
ATOM     14  H   UNL     1      32.771 -22.466 -18.574  0.00  0.00    +0.292 HD
ENDBRANCH  10  13
BRANCH  11  15
ATOM     15  O   UNL     1      35.250 -22.716 -18.655  0.00  0.00    -0.503 OA
ATOM     16  H   UNL     1      34.512 -23.204 -18.344  0.00  0.00    +0.292 HD
ENDBRANCH  11  15
ENDBRANCH   6   7
ENDBRANCH   3   5
BRANCH   2  17
ATOM     17  C   UNL     1      33.376 -13.678 -22.556  0.00  0.00    +0.094 C 
BRANCH  17  18
ATOM     18  C   UNL     1      31.950 -13.292 -22.161  0.00  0.00    +0.048 C 
BRANCH  18  19
ATOM     19  C   UNL     1      31.916 -11.979 -21.420  0.00  0.00    -0.020 C 
ATOM     20  C   UNL     1      31.792 -11.980 -20.040  0.00  0.00    -0.001 C 
ATOM     21  C   UNL     1      32.010 -10.793 -22.133  0.00  0.00    -0.001 C 
ATOM     22  C   UNL     1      31.761 -10.765 -19.355  0.00  0.00    +0.036 C 
ATOM     23  C   UNL     1      31.980  -9.579 -21.447  0.00  0.00    +0.036 C 
ATOM     24  C   UNL     1      31.855  -9.565 -20.059  0.00  0.00    +0.134 C 
BRANCH  24  25
ATOM     25  O   UNL     1      31.824  -8.380 -19.390  0.00  0.00    -0.506 OA
ATOM     26  H   UNL     1      32.532  -7.773 -19.477  0.00  0.00    +0.292 HD
ENDBRANCH  24  25
ENDBRANCH  18  19
ENDBRANCH  17  18
ENDBRANCH   2  17
TORSDOF 8
ENDMDL
MODEL 5
REMARK VINA RESULT:      -9.8      3.750      6.546
REMARK  Name = 9994897
REMARK  8 active torsions:
REMARK  status: ('A' for Active; 'I' for Inactive)
REMARK    1  A    between atoms: N_2  and  C_17
REMARK    2  A    between atoms: C_3  and  C_5
REMARK    3  A    between atoms: C_6  and  C_7
REMARK    4  A    between atoms: C_10  and  O_13
REMARK    5  A    between atoms: C_11  and  O_15
REMARK    6  A    between atoms: C_17  and  C_18
REMARK    7  A    between atoms: C_18  and  C_19
REMARK    8  A    between atoms: C_24  and  O_25
REMARK                            x       y       z     vdW  Elec       q    Type
REMARK                         _______ _______ _______ _____ _____    ______ ____
ROOT
ATOM      1  O   UNL     1      35.828 -20.919 -19.265  0.00  0.00    -0.270 OA
ATOM      2  N   UNL     1      33.708 -21.838 -19.512  0.00  0.00    -0.301 N 
ATOM      3  C   UNL     1      34.728 -20.951 -19.807  0.00  0.00    +0.246 C 
ATOM      4  H   UNL     1      32.865 -21.768 -20.015  0.00  0.00    +0.150 HD
ENDROOT
BRANCH   3   5
ATOM      5  C   UNL     1      34.342 -20.003 -20.892  0.00  0.00    +0.058 C 
ATOM      6  C   UNL     1      35.275 -19.530 -21.732  0.00  0.00    +0.005 C 
BRANCH   6   7
ATOM      7  C   UNL     1      35.006 -18.599 -22.841  0.00  0.00    +0.003 C 
ATOM      8  C   UNL     1      35.094 -17.234 -22.617  0.00  0.00    +0.040 C 
ATOM      9  C   UNL     1      34.668 -19.106 -24.086  0.00  0.00    +0.003 C 
ATOM     10  C   UNL     1      34.838 -16.352 -23.668  0.00  0.00    +0.167 C 
ATOM     11  C   UNL     1      34.498 -16.848 -24.927  0.00  0.00    +0.167 C 
ATOM     12  C   UNL     1      34.413 -18.224 -25.135  0.00  0.00    +0.040 C 
BRANCH  10  13
ATOM     13  O   UNL     1      34.926 -15.010 -23.453  0.00  0.00    -0.503 OA
ATOM     14  H   UNL     1      34.244 -14.442 -23.755  0.00  0.00    +0.292 HD
ENDBRANCH  10  13
BRANCH  11  15
ATOM     15  O   UNL     1      34.248 -15.997 -25.961  0.00  0.00    -0.503 OA
ATOM     16  H   UNL     1      34.959 -15.642 -26.459  0.00  0.00    +0.292 HD
ENDBRANCH  11  15
ENDBRANCH   6   7
ENDBRANCH   3   5
BRANCH   2  17
ATOM     17  C   UNL     1      33.823 -22.862 -18.498  0.00  0.00    +0.094 C 
BRANCH  17  18
ATOM     18  C   UNL     1      32.669 -22.777 -17.499  0.00  0.00    +0.048 C 
BRANCH  18  19
ATOM     19  C   UNL     1      33.072 -23.293 -16.141  0.00  0.00    -0.020 C 
ATOM     20  C   UNL     1      32.103 -23.473 -15.166  0.00  0.00    -0.001 C 
ATOM     21  C   UNL     1      34.405 -23.579 -15.890  0.00  0.00    -0.001 C 
ATOM     22  C   UNL     1      32.476 -23.951 -13.910  0.00  0.00    +0.036 C 
ATOM     23  C   UNL     1      34.778 -24.058 -14.634  0.00  0.00    +0.036 C 
ATOM     24  C   UNL     1      33.813 -24.243 -13.644  0.00  0.00    +0.134 C 
BRANCH  24  25
ATOM     25  O   UNL     1      34.176 -24.709 -12.418  0.00  0.00    -0.506 OA
ATOM     26  H   UNL     1      34.428 -25.605 -12.312  0.00  0.00    +0.292 HD
ENDBRANCH  24  25
ENDBRANCH  18  19
ENDBRANCH  17  18
ENDBRANCH   2  17
TORSDOF 8
ENDMDL
MODEL 6
REMARK VINA RESULT:      -9.6      4.271      7.277
REMARK  Name = 9994897
REMARK  8 active torsions:
REMARK  status: ('A' for Active; 'I' for Inactive)
REMARK    1  A    between atoms: N_2  and  C_17
REMARK    2  A    between atoms: C_3  and  C_5
REMARK    3  A    between atoms: C_6  and  C_7
REMARK    4  A    between atoms: C_10  and  O_13
REMARK    5  A    between atoms: C_11  and  O_15
REMARK    6  A    between atoms: C_17  and  C_18
REMARK    7  A    between atoms: C_18  and  C_19
REMARK    8  A    between atoms: C_24  and  O_25
REMARK                            x       y       z     vdW  Elec       q    Type
REMARK                         _______ _______ _______ _____ _____    ______ ____
ROOT
ATOM      1  O   UNL     1      32.667 -22.431 -19.211  0.00  0.00    -0.270 OA
ATOM      2  N   UNL     1      34.624 -22.477 -17.958  0.00  0.00    -0.301 N 
ATOM      3  C   UNL     1      33.798 -22.019 -18.970  0.00  0.00    +0.246 C 
ATOM      4  H   UNL     1      35.515 -22.069 -17.859  0.00  0.00    +0.150 HD
ENDROOT
BRANCH   3   5
ATOM      5  C   UNL     1      34.443 -20.936 -19.765  0.00  0.00    +0.058 C 
ATOM      6  C   UNL     1      33.714 -20.215 -20.630  0.00  0.00    +0.005 C 
BRANCH   6   7
ATOM      7  C   UNL     1      34.244 -19.119 -21.460  0.00  0.00    +0.003 C 
ATOM      8  C   UNL     1      34.225 -17.825 -20.965  0.00  0.00    +0.040 C 
ATOM      9  C   UNL     1      34.751 -19.404 -22.717  0.00  0.00    +0.003 C 
ATOM     10  C   UNL     1      34.726 -16.786 -21.751  0.00  0.00    +0.167 C 
ATOM     11  C   UNL     1      35.240 -17.057 -23.020  0.00  0.00    +0.167 C 
ATOM     12  C   UNL     1      35.252 -18.366 -23.502  0.00  0.00    +0.040 C 
BRANCH  10  13
ATOM     13  O   UNL     1      34.710 -15.513 -21.269  0.00  0.00    -0.503 OA
ATOM     14  H   UNL     1      34.447 -15.351 -20.383  0.00  0.00    +0.292 HD
ENDBRANCH  10  13
BRANCH  11  15
ATOM     15  O   UNL     1      35.734 -16.052 -23.795  0.00  0.00    -0.503 OA
ATOM     16  H   UNL     1      36.628 -16.074 -24.078  0.00  0.00    +0.292 HD
ENDBRANCH  11  15
ENDBRANCH   6   7
ENDBRANCH   3   5
BRANCH   2  17
ATOM     17  C   UNL     1      34.240 -23.525 -17.039  0.00  0.00    +0.094 C 
BRANCH  17  18
ATOM     18  C   UNL     1      33.671 -22.940 -15.746  0.00  0.00    +0.048 C 
BRANCH  18  19
ATOM     19  C   UNL     1      32.380 -23.610 -15.355  0.00  0.00    -0.020 C 
ATOM     20  C   UNL     1      32.350 -24.434 -14.240  0.00  0.00    -0.001 C 
ATOM     21  C   UNL     1      31.241 -23.393 -16.116  0.00  0.00    -0.001 C 
ATOM     22  C   UNL     1      31.155 -25.054 -13.878  0.00  0.00    +0.036 C 
ATOM     23  C   UNL     1      30.046 -24.013 -15.754  0.00  0.00    +0.036 C 
ATOM     24  C   UNL     1      30.003 -24.844 -14.635  0.00  0.00    +0.134 C 
BRANCH  24  25
ATOM     25  O   UNL     1      28.837 -25.450 -14.281  0.00  0.00    -0.506 OA
ATOM     26  H   UNL     1      28.441 -26.078 -14.854  0.00  0.00    +0.292 HD
ENDBRANCH  24  25
ENDBRANCH  18  19
ENDBRANCH  17  18
ENDBRANCH   2  17
TORSDOF 8
ENDMDL
MODEL 7
REMARK VINA RESULT:      -9.6      1.302      8.939
REMARK  Name = 9994897
REMARK  8 active torsions:
REMARK  status: ('A' for Active; 'I' for Inactive)
REMARK    1  A    between atoms: N_2  and  C_17
REMARK    2  A    between atoms: C_3  and  C_5
REMARK    3  A    between atoms: C_6  and  C_7
REMARK    4  A    between atoms: C_10  and  O_13
REMARK    5  A    between atoms: C_11  and  O_15
REMARK    6  A    between atoms: C_17  and  C_18
REMARK    7  A    between atoms: C_18  and  C_19
REMARK    8  A    between atoms: C_24  and  O_25
REMARK                            x       y       z     vdW  Elec       q    Type
REMARK                         _______ _______ _______ _____ _____    ______ ____
ROOT
ATOM      1  O   UNL     1      34.675 -17.354 -25.377  0.00  0.00    -0.270 OA
ATOM      2  N   UNL     1      34.259 -16.182 -23.414  0.00  0.00    -0.301 N 
ATOM      3  C   UNL     1      34.595 -17.302 -24.153  0.00  0.00    +0.246 C 
ATOM      4  H   UNL     1      34.226 -16.260 -22.433  0.00  0.00    +0.150 HD
ENDROOT
BRANCH   3   5
ATOM      5  C   UNL     1      34.861 -18.482 -23.282  0.00  0.00    +0.058 C 
ATOM      6  C   UNL     1      34.448 -18.479 -22.006  0.00  0.00    +0.005 C 
BRANCH   6   7
ATOM      7  C   UNL     1      34.649 -19.590 -21.060  0.00  0.00    +0.003 C 
ATOM      8  C   UNL     1      33.544 -20.236 -20.529  0.00  0.00    +0.040 C 
ATOM      9  C   UNL     1      35.938 -19.967 -20.719  0.00  0.00    +0.003 C 
ATOM     10  C   UNL     1      33.735 -21.289 -19.632  0.00  0.00    +0.167 C 
ATOM     11  C   UNL     1      35.027 -21.679 -19.279  0.00  0.00    +0.167 C 
ATOM     12  C   UNL     1      36.128 -21.018 -19.823  0.00  0.00    +0.040 C 
BRANCH  10  13
ATOM     13  O   UNL     1      32.651 -21.928 -19.109  0.00  0.00    -0.503 OA
ATOM     14  H   UNL     1      32.447 -21.834 -18.199  0.00  0.00    +0.292 HD
ENDBRANCH  10  13
BRANCH  11  15
ATOM     15  O   UNL     1      35.225 -22.707 -18.407  0.00  0.00    -0.503 OA
ATOM     16  H   UNL     1      35.855 -23.373 -18.602  0.00  0.00    +0.292 HD
ENDBRANCH  11  15
ENDBRANCH   6   7
ENDBRANCH   3   5
BRANCH   2  17
ATOM     17  C   UNL     1      33.953 -14.903 -24.014  0.00  0.00    +0.094 C 
BRANCH  17  18
ATOM     18  C   UNL     1      32.870 -14.170 -23.221  0.00  0.00    +0.048 C 
BRANCH  18  19
ATOM     19  C   UNL     1      32.994 -12.675 -23.366  0.00  0.00    -0.020 C 
ATOM     20  C   UNL     1      32.211 -11.847 -22.575  0.00  0.00    -0.001 C 
ATOM     21  C   UNL     1      33.888 -12.151 -24.287  0.00  0.00    -0.001 C 
ATOM     22  C   UNL     1      32.326 -10.464 -22.709  0.00  0.00    +0.036 C 
ATOM     23  C   UNL     1      34.003 -10.768 -24.420  0.00  0.00    +0.036 C 
ATOM     24  C   UNL     1      33.222  -9.924 -23.632  0.00  0.00    +0.134 C 
BRANCH  24  25
ATOM     25  O   UNL     1      33.333  -8.574 -23.762  0.00  0.00    -0.506 OA
ATOM     26  H   UNL     1      32.563  -8.044 -23.827  0.00  0.00    +0.292 HD
ENDBRANCH  24  25
ENDBRANCH  18  19
ENDBRANCH  17  18
ENDBRANCH   2  17
TORSDOF 8
ENDMDL
MODEL 8
REMARK VINA RESULT:      -9.5      6.569      9.822
REMARK  Name = 9994897
REMARK  8 active torsions:
REMARK  status: ('A' for Active; 'I' for Inactive)
REMARK    1  A    between atoms: N_2  and  C_17
REMARK    2  A    between atoms: C_3  and  C_5
REMARK    3  A    between atoms: C_6  and  C_7
REMARK    4  A    between atoms: C_10  and  O_13
REMARK    5  A    between atoms: C_11  and  O_15
REMARK    6  A    between atoms: C_17  and  C_18
REMARK    7  A    between atoms: C_18  and  C_19
REMARK    8  A    between atoms: C_24  and  O_25
REMARK                            x       y       z     vdW  Elec       q    Type
REMARK                         _______ _______ _______ _____ _____    ______ ____
ROOT
ATOM      1  O   UNL     1      35.106 -24.934 -15.069  0.00  0.00    -0.270 OA
ATOM      2  N   UNL     1      33.055 -23.846 -14.968  0.00  0.00    -0.301 N 
ATOM      3  C   UNL     1      34.347 -24.038 -15.425  0.00  0.00    +0.246 C 
ATOM      4  H   UNL     1      32.538 -23.089 -15.327  0.00  0.00    +0.150 HD
ENDROOT
BRANCH   3   5
ATOM      5  C   UNL     1      34.737 -23.010 -16.432  0.00  0.00    +0.058 C 
ATOM      6  C   UNL     1      34.150 -22.999 -17.639  0.00  0.00    +0.005 C 
BRANCH   6   7
ATOM      7  C   UNL     1      34.451 -22.027 -18.705  0.00  0.00    +0.003 C 
ATOM      8  C   UNL     1      33.406 -21.410 -19.373  0.00  0.00    +0.040 C 
ATOM      9  C   UNL     1      35.772 -21.751 -19.018  0.00  0.00    +0.003 C 
ATOM     10  C   UNL     1      33.691 -20.490 -20.384  0.00  0.00    +0.167 C 
ATOM     11  C   UNL     1      35.016 -20.201 -20.710  0.00  0.00    +0.167 C 
ATOM     12  C   UNL     1      36.056 -20.832 -20.028  0.00  0.00    +0.040 C 
BRANCH  10  13
ATOM     13  O   UNL     1      32.667 -19.879 -21.042  0.00  0.00    -0.503 OA
ATOM     14  H   UNL     1      32.848 -19.315 -21.768  0.00  0.00    +0.292 HD
ENDBRANCH  10  13
BRANCH  11  15
ATOM     15  O   UNL     1      35.306 -19.303 -21.693  0.00  0.00    -0.503 OA
ATOM     16  H   UNL     1      36.170 -19.269 -22.057  0.00  0.00    +0.292 HD
ENDBRANCH  11  15
ENDBRANCH   6   7
ENDBRANCH   3   5
BRANCH   2  17
ATOM     17  C   UNL     1      32.430 -24.704 -13.986  0.00  0.00    +0.094 C 
BRANCH  17  18
ATOM     18  C   UNL     1      31.109 -24.108 -13.499  0.00  0.00    +0.048 C 
BRANCH  18  19
ATOM     19  C   UNL     1      30.136 -23.914 -14.634  0.00  0.00    -0.020 C 
ATOM     20  C   UNL     1      29.755 -22.630 -14.992  0.00  0.00    -0.001 C 
ATOM     21  C   UNL     1      29.639 -25.023 -15.302  0.00  0.00    -0.001 C 
ATOM     22  C   UNL     1      28.856 -22.450 -16.042  0.00  0.00    +0.036 C 
ATOM     23  C   UNL     1      28.740 -24.843 -16.353  0.00  0.00    +0.036 C 
ATOM     24  C   UNL     1      28.348 -23.556 -16.723  0.00  0.00    +0.134 C 
BRANCH  24  25
ATOM     25  O   UNL     1      27.470 -23.380 -17.748  0.00  0.00    -0.506 OA
ATOM     26  H   UNL     1      27.781 -23.339 -18.631  0.00  0.00    +0.292 HD
ENDBRANCH  24  25
ENDBRANCH  18  19
ENDBRANCH  17  18
ENDBRANCH   2  17
TORSDOF 8
ENDMDL
MODEL 9
REMARK VINA RESULT:      -9.4      5.151     11.729
REMARK  Name = 9994897
REMARK  8 active torsions:
REMARK  status: ('A' for Active; 'I' for Inactive)
REMARK    1  A    between atoms: N_2  and  C_17
REMARK    2  A    between atoms: C_3  and  C_5
REMARK    3  A    between atoms: C_6  and  C_7
REMARK    4  A    between atoms: C_10  and  O_13
REMARK    5  A    between atoms: C_11  and  O_15
REMARK    6  A    between atoms: C_17  and  C_18
REMARK    7  A    between atoms: C_18  and  C_19
REMARK    8  A    between atoms: C_24  and  O_25
REMARK                            x       y       z     vdW  Elec       q    Type
REMARK                         _______ _______ _______ _____ _____    ______ ____
ROOT
ATOM      1  O   UNL     1      37.394 -20.419 -17.453  0.00  0.00    -0.270 OA
ATOM      2  N   UNL     1      36.153 -21.724 -18.922  0.00  0.00    -0.301 N 
ATOM      3  C   UNL     1      36.748 -21.431 -17.708  0.00  0.00    +0.246 C 
ATOM      4  H   UNL     1      35.657 -22.570 -19.009  0.00  0.00    +0.150 HD
ENDROOT
BRANCH   3   5
ATOM      5  C   UNL     1      36.514 -22.506 -16.702  0.00  0.00    +0.058 C 
ATOM      6  C   UNL     1      37.432 -22.747 -15.753  0.00  0.00    +0.005 C 
BRANCH   6   7
ATOM      7  C   UNL     1      37.303 -23.776 -14.707  0.00  0.00    +0.003 C 
ATOM      8  C   UNL     1      36.138 -23.840 -13.960  0.00  0.00    +0.040 C 
ATOM      9  C   UNL     1      38.349 -24.659 -14.491  0.00  0.00    +0.003 C 
ATOM     10  C   UNL     1      36.016 -24.814 -12.968  0.00  0.00    +0.167 C 
ATOM     11  C   UNL     1      37.060 -25.710 -12.738  0.00  0.00    +0.167 C 
ATOM     12  C   UNL     1      38.226 -25.632 -13.500  0.00  0.00    +0.040 C 
BRANCH  10  13
ATOM     13  O   UNL     1      34.872 -24.881 -12.231  0.00  0.00    -0.503 OA
ATOM     14  H   UNL     1      34.435 -24.093 -11.973  0.00  0.00    +0.292 HD
ENDBRANCH  10  13
BRANCH  11  15
ATOM     15  O   UNL     1      36.952 -26.667 -11.774  0.00  0.00    -0.503 OA
ATOM     16  H   UNL     1      37.179 -26.467 -10.887  0.00  0.00    +0.292 HD
ENDBRANCH  11  15
ENDBRANCH   6   7
ENDBRANCH   3   5
BRANCH   2  17
ATOM     17  C   UNL     1      36.226 -20.847 -20.069  0.00  0.00    +0.094 C 
BRANCH  17  18
ATOM     18  C   UNL     1      34.842 -20.314 -20.441  0.00  0.00    +0.048 C 
BRANCH  18  19
ATOM     19  C   UNL     1      34.930 -19.215 -21.468  0.00  0.00    -0.020 C 
ATOM     20  C   UNL     1      34.868 -19.536 -22.816  0.00  0.00    -0.001 C 
ATOM     21  C   UNL     1      35.070 -17.900 -21.049  0.00  0.00    -0.001 C 
ATOM     22  C   UNL     1      34.948 -18.518 -23.766  0.00  0.00    +0.036 C 
ATOM     23  C   UNL     1      35.150 -16.883 -22.000  0.00  0.00    +0.036 C 
ATOM     24  C   UNL     1      35.090 -17.192 -23.359  0.00  0.00    +0.134 C 
BRANCH  24  25
ATOM     25  O   UNL     1      35.169 -16.200 -24.287  0.00  0.00    -0.506 OA
ATOM     26  H   UNL     1      35.678 -16.324 -25.064  0.00  0.00    +0.292 HD
ENDBRANCH  24  25
ENDBRANCH  18  19
ENDBRANCH  17  18
ENDBRANCH   2  17
TORSDOF 8
ENDMDL
