MODEL 1
REMARK VINA RESULT:      -9.9      0.000      0.000
REMARK  Name = 65709
REMARK  8 active torsions:
REMARK  status: ('A' for Active; 'I' for Inactive)
REMARK    1  A    between atoms: N_2  and  C_12
REMARK    2  A    between atoms: C_6  and  C_20
REMARK    3  A    between atoms: C_12  and  C_13
REMARK    4  A    between atoms: C_13  and  N_14
REMARK    5  A    between atoms: N_14  and  C_16
REMARK    6  A    between atoms: N_14  and  C_18
REMARK    7  A    between atoms: C_20  and  C_21
REMARK    8  A    between atoms: C_26  and  O_27
REMARK                            x       y       z     vdW  Elec       q    Type
REMARK                         _______ _______ _______ _____ _____    ______ ____
ROOT
ATOM      1  O   UNL     1      35.767 -23.042 -16.944  0.00  0.00    -0.267 OA
ATOM      2  N   UNL     1      33.954 -23.080 -15.466  0.00  0.00    -0.253 N 
ATOM      3  N   UNL     1      32.351 -22.988 -17.794  0.00  0.00    -0.404 NA
ATOM      4  C   UNL     1      32.536 -23.074 -15.347  0.00  0.00    +0.080 C 
ATOM      5  C   UNL     1      34.563 -23.041 -16.715  0.00  0.00    +0.279 C 
ATOM      6  C   UNL     1      33.638 -22.994 -17.903  0.00  0.00    +0.166 C 
ATOM      7  C   UNL     1      31.771 -23.028 -16.520  0.00  0.00    +0.127 C 
ATOM      8  C   UNL     1      31.884 -23.112 -14.105  0.00  0.00    +0.017 C 
ATOM      9  C   UNL     1      30.371 -23.021 -16.435  0.00  0.00    +0.086 C 
ATOM     10  C   UNL     1      30.489 -23.103 -14.033  0.00  0.00    -0.003 C 
ATOM     11  C   UNL     1      29.732 -23.059 -15.198  0.00  0.00    -0.019 C 
ENDROOT
BRANCH   2  12
ATOM     12  C   UNL     1      34.781 -23.127 -14.266  0.00  0.00    +0.076 C 
BRANCH  12  13
ATOM     13  C   UNL     1      35.277 -24.540 -13.993  0.00  0.00    -0.055 C 
BRANCH  13  14
ATOM     14  N   UNL     1      36.706 -24.635 -14.261  0.00  0.00    +0.388 N 
ATOM     15  H   UNL     1      36.866 -24.364 -15.231  0.00  0.00    -0.080 HD
BRANCH  14  16
ATOM     16  C   UNL     1      37.456 -23.724 -13.393  0.00  0.00    -0.077 C 
ATOM     17  C   UNL     1      37.888 -24.417 -12.112  0.00  0.00    -0.025 C 
ENDBRANCH  14  16
BRANCH  14  18
ATOM     18  C   UNL     1      37.175 -26.010 -14.077  0.00  0.00    -0.077 C 
ATOM     19  C   UNL     1      36.856 -26.865 -15.292  0.00  0.00    -0.025 C 
ENDBRANCH  14  18
ENDBRANCH  13  14
ENDBRANCH  12  13
ENDBRANCH   2  12
BRANCH   6  20
ATOM     20  C   UNL     1      34.270 -22.952 -19.266  0.00  0.00    +0.090 C 
BRANCH  20  21
ATOM     21  C   UNL     1      34.219 -21.565 -19.833  0.00  0.00    -0.015 C 
ATOM     22  C   UNL     1      32.989 -20.955 -20.055  0.00  0.00    -0.001 C 
ATOM     23  C   UNL     1      35.403 -20.900 -20.134  0.00  0.00    -0.001 C 
ATOM     24  C   UNL     1      32.942 -19.666 -20.584  0.00  0.00    +0.037 C 
ATOM     25  C   UNL     1      35.356 -19.610 -20.664  0.00  0.00    +0.037 C 
ATOM     26  C   UNL     1      34.126 -18.993 -20.889  0.00  0.00    +0.139 C 
BRANCH  26  27
ATOM     27  O   UNL     1      34.079 -17.734 -21.404  0.00  0.00    -0.471 OA
ATOM     28  C   UNL     1      35.172 -17.328 -22.226  0.00  0.00    +0.252 C 
ENDBRANCH  26  27
ENDBRANCH  20  21
ENDBRANCH   6  20
TORSDOF 8
ENDMDL
MODEL 2
REMARK VINA RESULT:      -9.8      2.834      5.685
REMARK  Name = 65709
REMARK  8 active torsions:
REMARK  status: ('A' for Active; 'I' for Inactive)
REMARK    1  A    between atoms: N_2  and  C_12
REMARK    2  A    between atoms: C_6  and  C_20
REMARK    3  A    between atoms: C_12  and  C_13
REMARK    4  A    between atoms: C_13  and  N_14
REMARK    5  A    between atoms: N_14  and  C_16
REMARK    6  A    between atoms: N_14  and  C_18
REMARK    7  A    between atoms: C_20  and  C_21
REMARK    8  A    between atoms: C_26  and  O_27
REMARK                            x       y       z     vdW  Elec       q    Type
REMARK                         _______ _______ _______ _____ _____    ______ ____
ROOT
ATOM      1  O   UNL     1      34.819 -24.254 -13.366  0.00  0.00    -0.267 OA
ATOM      2  N   UNL     1      35.680 -23.245 -15.293  0.00  0.00    -0.253 N 
ATOM      3  N   UNL     1      33.055 -23.489 -16.315  0.00  0.00    -0.404 NA
ATOM      4  C   UNL     1      35.387 -22.780 -16.606  0.00  0.00    +0.080 C 
ATOM      5  C   UNL     1      34.690 -23.819 -14.504  0.00  0.00    +0.279 C 
ATOM      6  C   UNL     1      33.319 -23.911 -15.123  0.00  0.00    +0.166 C 
ATOM      7  C   UNL     1      34.076 -22.917 -17.082  0.00  0.00    +0.127 C 
ATOM      8  C   UNL     1      36.359 -22.195 -17.433  0.00  0.00    +0.017 C 
ATOM      9  C   UNL     1      33.757 -22.468 -18.372  0.00  0.00    +0.086 C 
ATOM     10  C   UNL     1      36.030 -21.754 -18.715  0.00  0.00    -0.003 C 
ATOM     11  C   UNL     1      34.728 -21.889 -19.185  0.00  0.00    -0.019 C 
ENDROOT
BRANCH   2  12
ATOM     12  C   UNL     1      37.034 -23.119 -14.766  0.00  0.00    +0.076 C 
BRANCH  12  13
ATOM     13  C   UNL     1      37.842 -24.385 -15.014  0.00  0.00    -0.055 C 
BRANCH  13  14
ATOM     14  N   UNL     1      38.018 -25.126 -13.772  0.00  0.00    +0.388 N 
ATOM     15  H   UNL     1      37.608 -24.578 -13.015  0.00  0.00    -0.080 HD
BRANCH  14  16
ATOM     16  C   UNL     1      37.328 -26.416 -13.839  0.00  0.00    -0.077 C 
ATOM     17  C   UNL     1      36.894 -26.733 -15.261  0.00  0.00    -0.025 C 
ENDBRANCH  14  16
BRANCH  14  18
ATOM     18  C   UNL     1      39.440 -25.325 -13.487  0.00  0.00    -0.077 C 
ATOM     19  C   UNL     1      40.258 -25.350 -14.767  0.00  0.00    -0.025 C 
ENDBRANCH  14  18
ENDBRANCH  13  14
ENDBRANCH  12  13
ENDBRANCH   2  12
BRANCH   6  20
ATOM     20  C   UNL     1      32.229 -24.528 -14.293  0.00  0.00    +0.090 C 
BRANCH  20  21
ATOM     21  C   UNL     1      30.879 -24.101 -14.784  0.00  0.00    -0.015 C 
ATOM     22  C   UNL     1      30.479 -22.777 -14.639  0.00  0.00    -0.001 C 
ATOM     23  C   UNL     1      30.036 -25.033 -15.380  0.00  0.00    -0.001 C 
ATOM     24  C   UNL     1      29.223 -22.380 -15.095  0.00  0.00    +0.037 C 
ATOM     25  C   UNL     1      28.778 -24.636 -15.835  0.00  0.00    +0.037 C 
ATOM     26  C   UNL     1      28.372 -23.310 -15.692  0.00  0.00    +0.139 C 
BRANCH  26  27
ATOM     27  O   UNL     1      27.145 -22.921 -16.138  0.00  0.00    -0.471 OA
ATOM     28  C   UNL     1      27.106 -22.127 -17.322  0.00  0.00    +0.252 C 
ENDBRANCH  26  27
ENDBRANCH  20  21
ENDBRANCH   6  20
TORSDOF 8
ENDMDL
MODEL 3
REMARK VINA RESULT:      -9.8      3.158      5.726
REMARK  Name = 65709
REMARK  8 active torsions:
REMARK  status: ('A' for Active; 'I' for Inactive)
REMARK    1  A    between atoms: N_2  and  C_12
REMARK    2  A    between atoms: C_6  and  C_20
REMARK    3  A    between atoms: C_12  and  C_13
REMARK    4  A    between atoms: C_13  and  N_14
REMARK    5  A    between atoms: N_14  and  C_16
REMARK    6  A    between atoms: N_14  and  C_18
REMARK    7  A    between atoms: C_20  and  C_21
REMARK    8  A    between atoms: C_26  and  O_27
REMARK                            x       y       z     vdW  Elec       q    Type
REMARK                         _______ _______ _______ _____ _____    ______ ____
ROOT
ATOM      1  O   UNL     1      34.356 -24.448 -12.328  0.00  0.00    -0.267 OA
ATOM      2  N   UNL     1      35.644 -23.431 -13.995  0.00  0.00    -0.253 N 
ATOM      3  N   UNL     1      33.361 -23.752 -15.633  0.00  0.00    -0.404 NA
ATOM      4  C   UNL     1      35.675 -22.984 -15.346  0.00  0.00    +0.080 C 
ATOM      5  C   UNL     1      34.503 -24.026 -13.469  0.00  0.00    +0.279 C 
ATOM      6  C   UNL     1      33.331 -24.157 -14.407  0.00  0.00    +0.166 C 
ATOM      7  C   UNL     1      34.527 -23.158 -16.130  0.00  0.00    +0.127 C 
ATOM      8  C   UNL     1      36.808 -22.380 -15.914  0.00  0.00    +0.017 C 
ATOM      9  C   UNL     1      34.527 -22.727 -17.465  0.00  0.00    +0.086 C 
ATOM     10  C   UNL     1      36.797 -21.956 -17.244  0.00  0.00    -0.003 C 
ATOM     11  C   UNL     1      35.656 -22.129 -18.020  0.00  0.00    -0.019 C 
ENDROOT
BRANCH   2  12
ATOM     12  C   UNL     1      36.821 -23.266 -13.151  0.00  0.00    +0.076 C 
BRANCH  12  13
ATOM     13  C   UNL     1      37.384 -24.613 -12.720  0.00  0.00    -0.055 C 
BRANCH  13  14
ATOM     14  N   UNL     1      38.035 -25.273 -13.845  0.00  0.00    +0.388 N 
ATOM     15  H   UNL     1      37.877 -24.708 -14.679  0.00  0.00    -0.080 HD
BRANCH  14  16
ATOM     16  C   UNL     1      39.479 -25.374 -13.618  0.00  0.00    -0.077 C 
ATOM     17  C   UNL     1      40.243 -25.365 -14.931  0.00  0.00    -0.025 C 
ENDBRANCH  14  16
BRANCH  14  18
ATOM     18  C   UNL     1      37.462 -26.602 -14.066  0.00  0.00    -0.077 C 
ATOM     19  C   UNL     1      36.636 -26.638 -15.340  0.00  0.00    -0.025 C 
ENDBRANCH  14  18
ENDBRANCH  13  14
ENDBRANCH  12  13
ENDBRANCH   2  12
BRANCH   6  20
ATOM     20  C   UNL     1      32.084 -24.797 -13.864  0.00  0.00    +0.090 C 
BRANCH  20  21
ATOM     21  C   UNL     1      30.874 -24.316 -14.605  0.00  0.00    -0.015 C 
ATOM     22  C   UNL     1      30.113 -25.216 -15.342  0.00  0.00    -0.001 C 
ATOM     23  C   UNL     1      30.521 -22.971 -14.552  0.00  0.00    -0.001 C 
ATOM     24  C   UNL     1      28.987 -24.769 -16.033  0.00  0.00    +0.037 C 
ATOM     25  C   UNL     1      29.396 -22.523 -15.244  0.00  0.00    +0.037 C 
ATOM     26  C   UNL     1      28.629 -23.421 -15.984  0.00  0.00    +0.139 C 
BRANCH  26  27
ATOM     27  O   UNL     1      27.530 -22.985 -16.658  0.00  0.00    -0.471 OA
ATOM     28  C   UNL     1      26.659 -22.089 -15.970  0.00  0.00    +0.252 C 
ENDBRANCH  26  27
ENDBRANCH  20  21
ENDBRANCH   6  20
TORSDOF 8
ENDMDL
MODEL 4
REMARK VINA RESULT:      -9.7      4.878     10.818
REMARK  Name = 65709
REMARK  8 active torsions:
REMARK  status: ('A' for Active; 'I' for Inactive)
REMARK    1  A    between atoms: N_2  and  C_12
REMARK    2  A    between atoms: C_6  and  C_20
REMARK    3  A    between atoms: C_12  and  C_13
REMARK    4  A    between atoms: C_13  and  N_14
REMARK    5  A    between atoms: N_14  and  C_16
REMARK    6  A    between atoms: N_14  and  C_18
REMARK    7  A    between atoms: C_20  and  C_21
REMARK    8  A    between atoms: C_26  and  O_27
REMARK                            x       y       z     vdW  Elec       q    Type
REMARK                         _______ _______ _______ _____ _____    ______ ____
ROOT
ATOM      1  O   UNL     1      35.296 -16.414 -20.251  0.00  0.00    -0.267 OA
ATOM      2  N   UNL     1      34.239 -15.239 -21.976  0.00  0.00    -0.253 N 
ATOM      3  N   UNL     1      35.010 -17.409 -23.616  0.00  0.00    -0.404 NA
ATOM      4  C   UNL     1      33.899 -15.235 -23.358  0.00  0.00    +0.080 C 
ATOM      5  C   UNL     1      34.948 -16.298 -21.420  0.00  0.00    +0.279 C 
ATOM      6  C   UNL     1      35.319 -17.414 -22.362  0.00  0.00    +0.166 C 
ATOM      7  C   UNL     1      34.297 -16.326 -24.143  0.00  0.00    +0.127 C 
ATOM      8  C   UNL     1      33.185 -14.185 -23.956  0.00  0.00    +0.017 C 
ATOM      9  C   UNL     1      33.976 -16.351 -25.508  0.00  0.00    +0.086 C 
ATOM     10  C   UNL     1      32.873 -14.220 -25.316  0.00  0.00    -0.003 C 
ATOM     11  C   UNL     1      33.267 -15.304 -26.093  0.00  0.00    -0.019 C 
ENDROOT
BRANCH   2  12
ATOM     12  C   UNL     1      33.842 -14.119 -21.130  0.00  0.00    +0.076 C 
BRANCH  12  13
ATOM     13  C   UNL     1      32.425 -13.664 -21.448  0.00  0.00    -0.055 C 
BRANCH  13  14
ATOM     14  N   UNL     1      32.270 -12.246 -21.149  0.00  0.00    +0.388 N 
ATOM     15  H   UNL     1      33.198 -11.828 -21.103  0.00  0.00    -0.080 HD
BRANCH  14  16
ATOM     16  C   UNL     1      31.509 -11.576 -22.206  0.00  0.00    -0.077 C 
ATOM     17  C   UNL     1      32.388 -10.617 -22.992  0.00  0.00    -0.025 C 
ENDBRANCH  14  16
BRANCH  14  18
ATOM     18  C   UNL     1      31.610 -12.061 -19.855  0.00  0.00    -0.077 C 
ATOM     19  C   UNL     1      31.620 -10.600 -19.439  0.00  0.00    -0.025 C 
ENDBRANCH  14  18
ENDBRANCH  13  14
ENDBRANCH  12  13
ENDBRANCH   2  12
BRANCH   6  20
ATOM     20  C   UNL     1      36.085 -18.572 -21.788  0.00  0.00    +0.090 C 
BRANCH  20  21
ATOM     21  C   UNL     1      35.170 -19.507 -21.057  0.00  0.00    -0.015 C 
ATOM     22  C   UNL     1      35.703 -20.489 -20.231  0.00  0.00    -0.001 C 
ATOM     23  C   UNL     1      33.792 -19.385 -21.213  0.00  0.00    -0.001 C 
ATOM     24  C   UNL     1      34.851 -21.360 -19.552  0.00  0.00    +0.037 C 
ATOM     25  C   UNL     1      32.940 -20.257 -20.535  0.00  0.00    +0.037 C 
ATOM     26  C   UNL     1      33.469 -21.244 -19.704  0.00  0.00    +0.139 C 
BRANCH  26  27
ATOM     27  O   UNL     1      32.638 -22.093 -19.041  0.00  0.00    -0.471 OA
ATOM     28  C   UNL     1      33.191 -22.817 -17.942  0.00  0.00    +0.252 C 
ENDBRANCH  26  27
ENDBRANCH  20  21
ENDBRANCH   6  20
TORSDOF 8
ENDMDL
MODEL 5
REMARK VINA RESULT:      -9.2      0.865      1.762
REMARK  Name = 65709
REMARK  8 active torsions:
REMARK  status: ('A' for Active; 'I' for Inactive)
REMARK    1  A    between atoms: N_2  and  C_12
REMARK    2  A    between atoms: C_6  and  C_20
REMARK    3  A    between atoms: C_12  and  C_13
REMARK    4  A    between atoms: C_13  and  N_14
REMARK    5  A    between atoms: N_14  and  C_16
REMARK    6  A    between atoms: N_14  and  C_18
REMARK    7  A    between atoms: C_20  and  C_21
REMARK    8  A    between atoms: C_26  and  O_27
REMARK                            x       y       z     vdW  Elec       q    Type
REMARK                         _______ _______ _______ _____ _____    ______ ____
ROOT
ATOM      1  O   UNL     1      36.349 -22.438 -17.461  0.00  0.00    -0.267 OA
ATOM      2  N   UNL     1      34.784 -22.801 -15.759  0.00  0.00    -0.253 N 
ATOM      3  N   UNL     1      32.916 -23.111 -17.859  0.00  0.00    -0.404 NA
ATOM      4  C   UNL     1      33.422 -23.081 -15.457  0.00  0.00    +0.080 C 
ATOM      5  C   UNL     1      35.210 -22.676 -17.077  0.00  0.00    +0.279 C 
ATOM      6  C   UNL     1      34.152 -22.857 -18.135  0.00  0.00    +0.166 C 
ATOM      7  C   UNL     1      32.522 -23.228 -16.521  0.00  0.00    +0.127 C 
ATOM      8  C   UNL     1      32.954 -23.214 -14.140  0.00  0.00    +0.017 C 
ATOM      9  C   UNL     1      31.174 -23.506 -16.254  0.00  0.00    +0.086 C 
ATOM     10  C   UNL     1      31.609 -23.488 -13.887  0.00  0.00    -0.003 C 
ATOM     11  C   UNL     1      30.718 -23.635 -14.945  0.00  0.00    -0.019 C 
ENDROOT
BRANCH   2  12
ATOM     12  C   UNL     1      35.748 -22.641 -14.677  0.00  0.00    +0.076 C 
BRANCH  12  13
ATOM     13  C   UNL     1      36.719 -23.812 -14.625  0.00  0.00    -0.055 C 
BRANCH  13  14
ATOM     14  N   UNL     1      36.065 -24.988 -14.067  0.00  0.00    +0.388 N 
ATOM     15  H   UNL     1      35.137 -24.713 -13.746  0.00  0.00    -0.080 HD
BRANCH  14  16
ATOM     16  C   UNL     1      35.916 -26.028 -15.088  0.00  0.00    -0.077 C 
ATOM     17  C   UNL     1      37.197 -26.831 -15.245  0.00  0.00    -0.025 C 
ENDBRANCH  14  16
BRANCH  14  18
ATOM     18  C   UNL     1      36.820 -25.504 -12.924  0.00  0.00    -0.077 C 
ATOM     19  C   UNL     1      37.887 -24.518 -12.480  0.00  0.00    -0.025 C 
ENDBRANCH  14  18
ENDBRANCH  13  14
ENDBRANCH  12  13
ENDBRANCH   2  12
BRANCH   6  20
ATOM     20  C   UNL     1      34.584 -22.728 -19.568  0.00  0.00    +0.090 C 
BRANCH  20  21
ATOM     21  C   UNL     1      34.393 -21.324 -20.057  0.00  0.00    -0.015 C 
ATOM     22  C   UNL     1      35.499 -20.560 -20.412  0.00  0.00    -0.001 C 
ATOM     23  C   UNL     1      33.109 -20.795 -20.151  0.00  0.00    -0.001 C 
ATOM     24  C   UNL     1      35.322 -19.253 -20.865  0.00  0.00    +0.037 C 
ATOM     25  C   UNL     1      32.932 -19.487 -20.604  0.00  0.00    +0.037 C 
ATOM     26  C   UNL     1      34.037 -18.717 -20.961  0.00  0.00    +0.139 C 
BRANCH  26  27
ATOM     27  O   UNL     1      33.865 -17.441 -21.405  0.00  0.00    -0.471 OA
ATOM     28  C   UNL     1      34.837 -16.478 -21.005  0.00  0.00    +0.252 C 
ENDBRANCH  26  27
ENDBRANCH  20  21
ENDBRANCH   6  20
TORSDOF 8
ENDMDL
MODEL 6
REMARK VINA RESULT:      -9.1      1.790      4.779
REMARK  Name = 65709
REMARK  8 active torsions:
REMARK  status: ('A' for Active; 'I' for Inactive)
REMARK    1  A    between atoms: N_2  and  C_12
REMARK    2  A    between atoms: C_6  and  C_20
REMARK    3  A    between atoms: C_12  and  C_13
REMARK    4  A    between atoms: C_13  and  N_14
REMARK    5  A    between atoms: N_14  and  C_16
REMARK    6  A    between atoms: N_14  and  C_18
REMARK    7  A    between atoms: C_20  and  C_21
REMARK    8  A    between atoms: C_26  and  O_27
REMARK                            x       y       z     vdW  Elec       q    Type
REMARK                         _______ _______ _______ _____ _____    ______ ____
ROOT
ATOM      1  O   UNL     1      31.882 -23.219 -17.717  0.00  0.00    -0.267 OA
ATOM      2  N   UNL     1      33.402 -23.330 -15.941  0.00  0.00    -0.253 N 
ATOM      3  N   UNL     1      35.339 -22.568 -17.855  0.00  0.00    -0.404 NA
ATOM      4  C   UNL     1      34.759 -23.171 -15.547  0.00  0.00    +0.080 C 
ATOM      5  C   UNL     1      33.014 -23.115 -17.259  0.00  0.00    +0.279 C 
ATOM      6  C   UNL     1      34.107 -22.711 -18.214  0.00  0.00    +0.166 C 
ATOM      7  C   UNL     1      35.695 -22.794 -16.519  0.00  0.00    +0.127 C 
ATOM      8  C   UNL     1      35.190 -23.379 -14.227  0.00  0.00    +0.017 C 
ATOM      9  C   UNL     1      37.040 -22.629 -16.160  0.00  0.00    +0.086 C 
ATOM     10  C   UNL     1      36.532 -23.214 -13.882  0.00  0.00    -0.003 C 
ATOM     11  C   UNL     1      37.458 -22.838 -14.848  0.00  0.00    -0.019 C 
ENDROOT
BRANCH   2  12
ATOM     12  C   UNL     1      32.402 -23.723 -14.955  0.00  0.00    +0.076 C 
BRANCH  12  13
ATOM     13  C   UNL     1      31.302 -22.677 -14.838  0.00  0.00    -0.055 C 
BRANCH  13  14
ATOM     14  N   UNL     1      29.994 -23.297 -14.994  0.00  0.00    +0.388 N 
ATOM     15  H   UNL     1      29.463 -23.139 -14.138  0.00  0.00    -0.080 HD
BRANCH  14  16
ATOM     16  C   UNL     1      29.266 -22.692 -16.112  0.00  0.00    -0.077 C 
ATOM     17  C   UNL     1      27.848 -22.322 -15.707  0.00  0.00    -0.025 C 
ENDBRANCH  14  16
BRANCH  14  18
ATOM     18  C   UNL     1      30.128 -24.741 -15.199  0.00  0.00    -0.077 C 
ATOM     19  C   UNL     1      28.979 -25.496 -14.553  0.00  0.00    -0.025 C 
ENDBRANCH  14  18
ENDBRANCH  13  14
ENDBRANCH  12  13
ENDBRANCH   2  12
BRANCH   6  20
ATOM     20  C   UNL     1      33.717 -22.472 -19.646  0.00  0.00    +0.090 C 
BRANCH  20  21
ATOM     21  C   UNL     1      34.203 -21.135 -20.114  0.00  0.00    -0.015 C 
ATOM     22  C   UNL     1      35.569 -20.897 -20.224  0.00  0.00    -0.001 C 
ATOM     23  C   UNL     1      33.285 -20.140 -20.433  0.00  0.00    -0.001 C 
ATOM     24  C   UNL     1      36.022 -19.651 -20.659  0.00  0.00    +0.037 C 
ATOM     25  C   UNL     1      33.737 -18.894 -20.867  0.00  0.00    +0.037 C 
ATOM     26  C   UNL     1      35.106 -18.650 -20.980  0.00  0.00    +0.139 C 
BRANCH  26  27
ATOM     27  O   UNL     1      35.548 -17.434 -21.405  0.00  0.00    -0.471 OA
ATOM     28  C   UNL     1      34.671 -16.324 -21.223  0.00  0.00    +0.252 C 
ENDBRANCH  26  27
ENDBRANCH  20  21
ENDBRANCH   6  20
TORSDOF 8
ENDMDL
MODEL 7
REMARK VINA RESULT:      -8.9      5.012     11.247
REMARK  Name = 65709
REMARK  8 active torsions:
REMARK  status: ('A' for Active; 'I' for Inactive)
REMARK    1  A    between atoms: N_2  and  C_12
REMARK    2  A    between atoms: C_6  and  C_20
REMARK    3  A    between atoms: C_12  and  C_13
REMARK    4  A    between atoms: C_13  and  N_14
REMARK    5  A    between atoms: N_14  and  C_16
REMARK    6  A    between atoms: N_14  and  C_18
REMARK    7  A    between atoms: C_20  and  C_21
REMARK    8  A    between atoms: C_26  and  O_27
REMARK                            x       y       z     vdW  Elec       q    Type
REMARK                         _______ _______ _______ _____ _____    ______ ____
ROOT
ATOM      1  O   UNL     1      35.183 -17.627 -24.368  0.00  0.00    -0.267 OA
ATOM      2  N   UNL     1      33.906 -15.779 -23.713  0.00  0.00    -0.253 N 
ATOM      3  N   UNL     1      34.475 -16.613 -21.072  0.00  0.00    -0.404 NA
ATOM      4  C   UNL     1      33.392 -15.038 -22.612  0.00  0.00    +0.080 C 
ATOM      5  C   UNL     1      34.686 -16.911 -23.506  0.00  0.00    +0.279 C 
ATOM      6  C   UNL     1      34.943 -17.286 -22.070  0.00  0.00    +0.166 C 
ATOM      7  C   UNL     1      33.691 -15.478 -21.316  0.00  0.00    +0.127 C 
ATOM      8  C   UNL     1      32.600 -13.891 -22.780  0.00  0.00    +0.017 C 
ATOM      9  C   UNL     1      33.199 -14.769 -20.212  0.00  0.00    +0.086 C 
ATOM     10  C   UNL     1      32.114 -13.193 -21.672  0.00  0.00    -0.003 C 
ATOM     11  C   UNL     1      32.415 -13.631 -20.387  0.00  0.00    -0.019 C 
ENDROOT
BRANCH   2  12
ATOM     12  C   UNL     1      33.612 -15.349 -25.075  0.00  0.00    +0.076 C 
BRANCH  12  13
ATOM     13  C   UNL     1      33.059 -13.932 -25.099  0.00  0.00    -0.055 C 
BRANCH  13  14
ATOM     14  N   UNL     1      33.961 -13.048 -25.827  0.00  0.00    +0.388 N 
ATOM     15  H   UNL     1      34.912 -13.394 -25.704  0.00  0.00    -0.080 HD
BRANCH  14  16
ATOM     16  C   UNL     1      33.645 -13.053 -27.257  0.00  0.00    -0.077 C 
ATOM     17  C   UNL     1      32.143 -13.075 -27.487  0.00  0.00    -0.025 C 
ENDBRANCH  14  16
BRANCH  14  18
ATOM     18  C   UNL     1      33.888 -11.686 -25.296  0.00  0.00    -0.077 C 
ATOM     19  C   UNL     1      35.010 -10.822 -25.847  0.00  0.00    -0.025 C 
ENDBRANCH  14  18
ENDBRANCH  13  14
ENDBRANCH  12  13
ENDBRANCH   2  12
BRANCH   6  20
ATOM     20  C   UNL     1      35.783 -18.506 -21.817  0.00  0.00    +0.090 C 
BRANCH  20  21
ATOM     21  C   UNL     1      35.013 -19.532 -21.043  0.00  0.00    -0.015 C 
ATOM     22  C   UNL     1      35.693 -20.486 -20.294  0.00  0.00    -0.001 C 
ATOM     23  C   UNL     1      33.622 -19.523 -21.080  0.00  0.00    -0.001 C 
ATOM     24  C   UNL     1      34.977 -21.442 -19.575  0.00  0.00    +0.037 C 
ATOM     25  C   UNL     1      32.905 -20.479 -20.361  0.00  0.00    +0.037 C 
ATOM     26  C   UNL     1      33.582 -21.439 -19.609  0.00  0.00    +0.139 C 
BRANCH  26  27
ATOM     27  O   UNL     1      32.883 -22.371 -18.905  0.00  0.00    -0.471 OA
ATOM     28  C   UNL     1      33.546 -22.983 -17.800  0.00  0.00    +0.252 C 
ENDBRANCH  26  27
ENDBRANCH  20  21
ENDBRANCH   6  20
TORSDOF 8
ENDMDL
MODEL 8
REMARK VINA RESULT:      -8.8      1.976      4.791
REMARK  Name = 65709
REMARK  8 active torsions:
REMARK  status: ('A' for Active; 'I' for Inactive)
REMARK    1  A    between atoms: N_2  and  C_12
REMARK    2  A    between atoms: C_6  and  C_20
REMARK    3  A    between atoms: C_12  and  C_13
REMARK    4  A    between atoms: C_13  and  N_14
REMARK    5  A    between atoms: N_14  and  C_16
REMARK    6  A    between atoms: N_14  and  C_18
REMARK    7  A    between atoms: C_20  and  C_21
REMARK    8  A    between atoms: C_26  and  O_27
REMARK                            x       y       z     vdW  Elec       q    Type
REMARK                         _______ _______ _______ _____ _____    ______ ____
ROOT
ATOM      1  O   UNL     1      33.222 -22.763 -19.674  0.00  0.00    -0.267 OA
ATOM      2  N   UNL     1      33.946 -23.063 -17.470  0.00  0.00    -0.253 N 
ATOM      3  N   UNL     1      36.360 -21.879 -18.346  0.00  0.00    -0.404 NA
ATOM      4  C   UNL     1      35.018 -22.884 -16.552  0.00  0.00    +0.080 C 
ATOM      5  C   UNL     1      34.070 -22.662 -18.796  0.00  0.00    +0.279 C 
ATOM      6  C   UNL     1      35.387 -22.040 -19.180  0.00  0.00    +0.166 C 
ATOM      7  C   UNL     1      36.201 -22.295 -17.018  0.00  0.00    +0.127 C 
ATOM      8  C   UNL     1      34.932 -23.275 -15.206  0.00  0.00    +0.017 C 
ATOM      9  C   UNL     1      37.275 -22.105 -16.137  0.00  0.00    +0.086 C 
ATOM     10  C   UNL     1      36.009 -23.083 -14.339  0.00  0.00    -0.003 C 
ATOM     11  C   UNL     1      37.181 -22.496 -14.804  0.00  0.00    -0.019 C 
ENDROOT
BRANCH   2  12
ATOM     12  C   UNL     1      32.701 -23.673 -17.019  0.00  0.00    +0.076 C 
BRANCH  12  13
ATOM     13  C   UNL     1      31.628 -22.621 -16.773  0.00  0.00    -0.055 C 
BRANCH  13  14
ATOM     14  N   UNL     1      30.540 -23.183 -15.984  0.00  0.00    +0.388 N 
ATOM     15  H   UNL     1      30.521 -24.190 -16.141  0.00  0.00    -0.080 HD
BRANCH  14  16
ATOM     16  C   UNL     1      30.758 -22.938 -14.556  0.00  0.00    -0.077 C 
ATOM     17  C   UNL     1      30.544 -24.203 -13.743  0.00  0.00    -0.025 C 
ENDBRANCH  14  16
BRANCH  14  18
ATOM     18  C   UNL     1      29.255 -22.620 -16.404  0.00  0.00    -0.077 C 
ATOM     19  C   UNL     1      28.293 -23.714 -16.835  0.00  0.00    -0.025 C 
ENDBRANCH  14  18
ENDBRANCH  13  14
ENDBRANCH  12  13
ENDBRANCH   2  12
BRANCH   6  20
ATOM     20  C   UNL     1      35.549 -21.598 -20.607  0.00  0.00    +0.090 C 
BRANCH  20  21
ATOM     21  C   UNL     1      35.128 -20.170 -20.773  0.00  0.00    -0.015 C 
ATOM     22  C   UNL     1      36.091 -19.177 -20.910  0.00  0.00    -0.001 C 
ATOM     23  C   UNL     1      33.774 -19.847 -20.786  0.00  0.00    -0.001 C 
ATOM     24  C   UNL     1      35.699 -17.848 -21.063  0.00  0.00    +0.037 C 
ATOM     25  C   UNL     1      33.382 -18.517 -20.938  0.00  0.00    +0.037 C 
ATOM     26  C   UNL     1      34.344 -17.518 -21.076  0.00  0.00    +0.139 C 
BRANCH  26  27
ATOM     27  O   UNL     1      33.962 -16.220 -21.226  0.00  0.00    -0.471 OA
ATOM     28  C   UNL     1      34.405 -15.544 -22.402  0.00  0.00    +0.252 C 
ENDBRANCH  26  27
ENDBRANCH  20  21
ENDBRANCH   6  20
TORSDOF 8
ENDMDL
MODEL 9
REMARK VINA RESULT:      -8.8      5.745     11.817
REMARK  Name = 65709
REMARK  8 active torsions:
REMARK  status: ('A' for Active; 'I' for Inactive)
REMARK    1  A    between atoms: N_2  and  C_12
REMARK    2  A    between atoms: C_6  and  C_20
REMARK    3  A    between atoms: C_12  and  C_13
REMARK    4  A    between atoms: C_13  and  N_14
REMARK    5  A    between atoms: N_14  and  C_16
REMARK    6  A    between atoms: N_14  and  C_18
REMARK    7  A    between atoms: C_20  and  C_21
REMARK    8  A    between atoms: C_26  and  O_27
REMARK                            x       y       z     vdW  Elec       q    Type
REMARK                         _______ _______ _______ _____ _____    ______ ____
ROOT
ATOM      1  O   UNL     1      34.186 -15.517 -25.610  0.00  0.00    -0.267 OA
ATOM      2  N   UNL     1      33.224 -14.083 -24.031  0.00  0.00    -0.253 N 
ATOM      3  N   UNL     1      33.849 -16.105 -22.155  0.00  0.00    -0.404 NA
ATOM      4  C   UNL     1      32.893 -13.901 -22.659  0.00  0.00    +0.080 C 
ATOM      5  C   UNL     1      33.852 -15.246 -24.463  0.00  0.00    +0.279 C 
ATOM      6  C   UNL     1      34.151 -16.272 -23.400  0.00  0.00    +0.166 C 
ATOM      7  C   UNL     1      33.216 -14.922 -21.756  0.00  0.00    +0.127 C 
ATOM      8  C   UNL     1      32.259 -12.741 -22.185  0.00  0.00    +0.017 C 
ATOM      9  C   UNL     1      32.903 -14.771 -20.397  0.00  0.00    +0.086 C 
ATOM     10  C   UNL     1      31.951 -12.603 -20.830  0.00  0.00    -0.003 C 
ATOM     11  C   UNL     1      32.273 -13.618 -19.935  0.00  0.00    -0.019 C 
ENDROOT
BRANCH   2  12
ATOM     12  C   UNL     1      32.902 -13.041 -24.999  0.00  0.00    +0.076 C 
BRANCH  12  13
ATOM     13  C   UNL     1      34.138 -12.235 -25.372  0.00  0.00    -0.055 C 
BRANCH  13  14
ATOM     14  N   UNL     1      34.330 -11.137 -24.434  0.00  0.00    +0.388 N 
ATOM     15  H   UNL     1      34.673 -11.526 -23.556  0.00  0.00    -0.080 HD
BRANCH  14  16
ATOM     16  C   UNL     1      35.325 -10.191 -24.944  0.00  0.00    -0.077 C 
ATOM     17  C   UNL     1      35.644 -10.463 -26.405  0.00  0.00    -0.025 C 
ENDBRANCH  14  16
BRANCH  14  18
ATOM     18  C   UNL     1      33.062 -10.451 -24.177  0.00  0.00    -0.077 C 
ATOM     19  C   UNL     1      33.290  -9.129 -23.463  0.00  0.00    -0.025 C 
ENDBRANCH  14  18
ENDBRANCH  13  14
ENDBRANCH  12  13
ENDBRANCH   2  12
BRANCH   6  20
ATOM     20  C   UNL     1      34.829 -17.539 -23.839  0.00  0.00    +0.090 C 
BRANCH  20  21
ATOM     21  C   UNL     1      35.176 -18.393 -22.657  0.00  0.00    -0.015 C 
ATOM     22  C   UNL     1      36.452 -18.325 -22.107  0.00  0.00    -0.001 C 
ATOM     23  C   UNL     1      34.220 -19.250 -22.121  0.00  0.00    -0.001 C 
ATOM     24  C   UNL     1      36.776 -19.121 -21.009  0.00  0.00    +0.037 C 
ATOM     25  C   UNL     1      34.545 -20.047 -21.022  0.00  0.00    +0.037 C 
ATOM     26  C   UNL     1      35.822 -19.982 -20.467  0.00  0.00    +0.139 C 
BRANCH  26  27
ATOM     27  O   UNL     1      36.138 -20.758 -19.394  0.00  0.00    -0.471 OA
ATOM     28  C   UNL     1      35.295 -21.878 -19.131  0.00  0.00    +0.252 C 
ENDBRANCH  26  27
ENDBRANCH  20  21
ENDBRANCH   6  20
TORSDOF 8
ENDMDL
