MODEL 1
REMARK VINA RESULT:      -9.7      0.000      0.000
REMARK  Name = 6857710
REMARK  13 active torsions:
REMARK  status: ('A' for Active; 'I' for Inactive)
REMARK    1  A    between atoms: N_2  and  C_5
REMARK    2  A    between atoms: C_3  and  C_19
REMARK    3  A    between atoms: C_5  and  C_6
REMARK    4  A    between atoms: C_5  and  C_10
REMARK    5  A    between atoms: C_6  and  O_8
REMARK    6  A    between atoms: C_10  and  C_11
REMARK    7  A    between atoms: C_16  and  O_17
REMARK    8  A    between atoms: C_19  and  N_21
REMARK    9  A    between atoms: C_19  and  C_32
REMARK   10  A    between atoms: C_22  and  O_24
REMARK   11  A    between atoms: O_24  and  C_25
REMARK   12  A    between atoms: C_25  and  C_26
REMARK   13  A    between atoms: C_32  and  C_33
REMARK                            x       y       z     vdW  Elec       q    Type
REMARK                         _______ _______ _______ _____ _____    ______ ____
ROOT
ATOM      1  O   UNL     1      33.816 -12.819 -25.764  0.00  0.00    -0.273 OA
ATOM      2  N   UNL     1      33.092 -11.754 -23.831  0.00  0.00    -0.302 N 
ATOM      3  C   UNL     1      33.378 -12.864 -24.615  0.00  0.00    +0.240 C 
ATOM      4  H   UNL     1      32.743 -11.902 -22.922  0.00  0.00    +0.150 HD
ENDROOT
BRANCH   2   5
ATOM      5  C   UNL     1      33.276 -10.395 -24.282  0.00  0.00    +0.103 C 
BRANCH   5   6
ATOM      6  C   UNL     1      34.718  -9.919 -24.006  0.00  0.00    +0.129 C 
ATOM      7  C   UNL     1      34.837  -8.402 -23.896  0.00  0.00    +0.033 C 
BRANCH   6   8
ATOM      8  O   UNL     1      35.583 -10.383 -25.039  0.00  0.00    -0.383 OA
ATOM      9  H   UNL     1      36.280 -10.937 -24.653  0.00  0.00    +0.210 HD
ENDBRANCH   6   8
ENDBRANCH   5   6
BRANCH   5  10
ATOM     10  C   UNL     1      32.201  -9.501 -23.634  0.00  0.00    +0.048 C 
BRANCH  10  11
ATOM     11  C   UNL     1      31.906  -9.845 -22.194  0.00  0.00    -0.020 C 
ATOM     12  C   UNL     1      32.418  -9.049 -21.169  0.00  0.00    -0.001 C 
ATOM     13  C   UNL     1      31.123 -10.957 -21.889  0.00  0.00    -0.001 C 
ATOM     14  C   UNL     1      32.146  -9.366 -19.838  0.00  0.00    +0.036 C 
ATOM     15  C   UNL     1      30.850 -11.274 -20.558  0.00  0.00    +0.036 C 
ATOM     16  C   UNL     1      31.362 -10.479 -19.533  0.00  0.00    +0.134 C 
BRANCH  16  17
ATOM     17  O   UNL     1      31.096 -10.788 -18.234  0.00  0.00    -0.506 OA
ATOM     18  H   UNL     1      31.504 -10.303 -17.545  0.00  0.00    +0.292 HD
ENDBRANCH  16  17
ENDBRANCH  10  11
ENDBRANCH   5  10
ENDBRANCH   2   5
BRANCH   3  19
ATOM     19  C   UNL     1      33.034 -14.169 -23.907  0.00  0.00    +0.151 C 
BRANCH  19  21
ATOM     20  O   UNL     1      32.863 -15.989 -26.166  0.00  0.00    -0.226 OA
ATOM     21  N   UNL     1      34.003 -15.147 -24.327  0.00  0.00    -0.264 N 
ATOM     22  C   UNL     1      33.838 -15.976 -25.421  0.00  0.00    +0.402 C 
ATOM     23  H   UNL     1      34.834 -15.231 -23.805  0.00  0.00    +0.153 HD
BRANCH  22  24
ATOM     24  O   UNL     1      34.929 -16.788 -25.558  0.00  0.00    -0.430 OA
BRANCH  24  25
ATOM     25  C   UNL     1      34.712 -18.176 -25.276  0.00  0.00    +0.237 C 
BRANCH  25  26
ATOM     26  C   UNL     1      34.899 -18.411 -23.806  0.00  0.00    +0.021 C 
ATOM     27  C   UNL     1      33.936 -19.117 -23.084  0.00  0.00    -0.001 C 
ATOM     28  C   UNL     1      36.036 -17.924 -23.160  0.00  0.00    -0.001 C 
ATOM     29  C   UNL     1      34.110 -19.335 -21.718  0.00  0.00    -0.000 C 
ATOM     30  C   UNL     1      36.210 -18.142 -21.793  0.00  0.00    -0.000 C 
ATOM     31  C   UNL     1      35.246 -18.847 -21.072  0.00  0.00    -0.000 C 
ENDBRANCH  25  26
ENDBRANCH  24  25
ENDBRANCH  22  24
ENDBRANCH  19  21
BRANCH  19  32
ATOM     32  C   UNL     1      33.038 -13.965 -22.387  0.00  0.00    +0.029 C 
BRANCH  32  33
ATOM     33  C   UNL     1      33.426 -15.213 -21.567  0.00  0.00    +0.002 C 
ATOM     34  C   UNL     1      32.230 -15.667 -20.724  0.00  0.00    +0.000 C 
ATOM     35  C   UNL     1      34.630 -14.963 -20.659  0.00  0.00    +0.000 C 
ENDBRANCH  32  33
ENDBRANCH  19  32
ENDBRANCH   3  19
TORSDOF 13
ENDMDL
MODEL 2
REMARK VINA RESULT:      -9.4      9.681     14.218
REMARK  Name = 6857710
REMARK  13 active torsions:
REMARK  status: ('A' for Active; 'I' for Inactive)
REMARK    1  A    between atoms: N_2  and  C_5
REMARK    2  A    between atoms: C_3  and  C_19
REMARK    3  A    between atoms: C_5  and  C_6
REMARK    4  A    between atoms: C_5  and  C_10
REMARK    5  A    between atoms: C_6  and  O_8
REMARK    6  A    between atoms: C_10  and  C_11
REMARK    7  A    between atoms: C_16  and  O_17
REMARK    8  A    between atoms: C_19  and  N_21
REMARK    9  A    between atoms: C_19  and  C_32
REMARK   10  A    between atoms: C_22  and  O_24
REMARK   11  A    between atoms: O_24  and  C_25
REMARK   12  A    between atoms: C_25  and  C_26
REMARK   13  A    between atoms: C_32  and  C_33
REMARK                            x       y       z     vdW  Elec       q    Type
REMARK                         _______ _______ _______ _____ _____    ______ ____
ROOT
ATOM      1  O   UNL     1      34.840 -24.889 -15.287  0.00  0.00    -0.273 OA
ATOM      2  N   UNL     1      34.284 -23.933 -13.245  0.00  0.00    -0.302 N 
ATOM      3  C   UNL     1      34.039 -24.303 -14.561  0.00  0.00    +0.240 C 
ATOM      4  H   UNL     1      33.571 -23.465 -12.751  0.00  0.00    +0.150 HD
ENDROOT
BRANCH   2   5
ATOM      5  C   UNL     1      35.530 -24.198 -12.565  0.00  0.00    +0.103 C 
BRANCH   5   6
ATOM      6  C   UNL     1      35.374 -23.997 -11.043  0.00  0.00    +0.129 C 
ATOM      7  C   UNL     1      36.512 -23.189 -10.426  0.00  0.00    +0.033 C 
BRANCH   6   8
ATOM      8  O   UNL     1      35.297 -25.265 -10.396  0.00  0.00    -0.383 OA
ATOM      9  H   UNL     1      35.315 -25.970 -11.063  0.00  0.00    +0.210 HD
ENDBRANCH   6   8
ENDBRANCH   5   6
BRANCH   5  10
ATOM     10  C   UNL     1      36.636 -23.325 -13.189  0.00  0.00    +0.048 C 
BRANCH  10  11
ATOM     11  C   UNL     1      37.802 -24.111 -13.735  0.00  0.00    -0.020 C 
ATOM     12  C   UNL     1      38.476 -25.018 -12.916  0.00  0.00    -0.001 C 
ATOM     13  C   UNL     1      38.206 -23.932 -15.057  0.00  0.00    -0.001 C 
ATOM     14  C   UNL     1      39.554 -25.745 -13.421  0.00  0.00    +0.036 C 
ATOM     15  C   UNL     1      39.284 -24.660 -15.562  0.00  0.00    +0.036 C 
ATOM     16  C   UNL     1      39.958 -25.566 -14.743  0.00  0.00    +0.134 C 
BRANCH  16  17
ATOM     17  O   UNL     1      41.009 -26.277 -15.235  0.00  0.00    -0.506 OA
ATOM     18  H   UNL     1      41.444 -25.991 -16.014  0.00  0.00    +0.292 HD
ENDBRANCH  16  17
ENDBRANCH  10  11
ENDBRANCH   5  10
ENDBRANCH   2   5
BRANCH   3  19
ATOM     19  C   UNL     1      32.665 -23.847 -15.038  0.00  0.00    +0.151 C 
BRANCH  19  21
ATOM     20  O   UNL     1      30.653 -22.601 -16.723  0.00  0.00    -0.226 OA
ATOM     21  N   UNL     1      32.829 -23.328 -16.370  0.00  0.00    -0.264 N 
ATOM     22  C   UNL     1      31.810 -22.748 -17.102  0.00  0.00    +0.402 C 
ATOM     23  H   UNL     1      33.720 -23.388 -16.785  0.00  0.00    +0.153 HD
BRANCH  22  24
ATOM     24  O   UNL     1      32.282 -22.355 -18.324  0.00  0.00    -0.430 OA
BRANCH  24  25
ATOM     25  C   UNL     1      33.641 -22.708 -18.610  0.00  0.00    +0.237 C 
BRANCH  25  26
ATOM     26  C   UNL     1      34.268 -21.614 -19.423  0.00  0.00    +0.021 C 
ATOM     27  C   UNL     1      33.464 -20.710 -20.117  0.00  0.00    -0.001 C 
ATOM     28  C   UNL     1      35.658 -21.501 -19.486  0.00  0.00    -0.001 C 
ATOM     29  C   UNL     1      34.048 -19.695 -20.873  0.00  0.00    -0.000 C 
ATOM     30  C   UNL     1      36.242 -20.484 -20.242  0.00  0.00    -0.000 C 
ATOM     31  C   UNL     1      35.437 -19.582 -20.936  0.00  0.00    -0.000 C 
ENDBRANCH  25  26
ENDBRANCH  24  25
ENDBRANCH  22  24
ENDBRANCH  19  21
BRANCH  19  32
ATOM     32  C   UNL     1      31.672 -25.015 -14.989  0.00  0.00    +0.029 C 
BRANCH  32  33
ATOM     33  C   UNL     1      30.544 -24.863 -13.947  0.00  0.00    +0.002 C 
ATOM     34  C   UNL     1      29.185 -25.032 -14.631  0.00  0.00    +0.000 C 
ATOM     35  C   UNL     1      30.594 -23.516 -13.225  0.00  0.00    +0.000 C 
ENDBRANCH  32  33
ENDBRANCH  19  32
ENDBRANCH   3  19
TORSDOF 13
ENDMDL
MODEL 3
REMARK VINA RESULT:      -9.3      9.252     13.219
REMARK  Name = 6857710
REMARK  13 active torsions:
REMARK  status: ('A' for Active; 'I' for Inactive)
REMARK    1  A    between atoms: N_2  and  C_5
REMARK    2  A    between atoms: C_3  and  C_19
REMARK    3  A    between atoms: C_5  and  C_6
REMARK    4  A    between atoms: C_5  and  C_10
REMARK    5  A    between atoms: C_6  and  O_8
REMARK    6  A    between atoms: C_10  and  C_11
REMARK    7  A    between atoms: C_16  and  O_17
REMARK    8  A    between atoms: C_19  and  N_21
REMARK    9  A    between atoms: C_19  and  C_32
REMARK   10  A    between atoms: C_22  and  O_24
REMARK   11  A    between atoms: O_24  and  C_25
REMARK   12  A    between atoms: C_25  and  C_26
REMARK   13  A    between atoms: C_32  and  C_33
REMARK                            x       y       z     vdW  Elec       q    Type
REMARK                         _______ _______ _______ _____ _____    ______ ____
ROOT
ATOM      1  O   UNL     1      33.669 -24.163 -12.639  0.00  0.00    -0.273 OA
ATOM      2  N   UNL     1      33.234 -23.733 -14.879  0.00  0.00    -0.302 N 
ATOM      3  C   UNL     1      34.061 -23.955 -13.786  0.00  0.00    +0.240 C 
ATOM      4  H   UNL     1      33.653 -23.575 -15.757  0.00  0.00    +0.150 HD
ENDROOT
BRANCH   2   5
ATOM      5  C   UNL     1      31.792 -23.719 -14.794  0.00  0.00    +0.103 C 
BRANCH   5   6
ATOM      6  C   UNL     1      31.266 -25.058 -14.237  0.00  0.00    +0.129 C 
ATOM      7  C   UNL     1      30.207 -25.703 -15.126  0.00  0.00    +0.033 C 
BRANCH   6   8
ATOM      8  O   UNL     1      30.724 -24.856 -12.934  0.00  0.00    -0.383 OA
ATOM      9  H   UNL     1      30.847 -25.659 -12.404  0.00  0.00    +0.210 HD
ENDBRANCH   6   8
ENDBRANCH   5   6
BRANCH   5  10
ATOM     10  C   UNL     1      31.213 -23.361 -16.177  0.00  0.00    +0.048 C 
BRANCH  10  11
ATOM     11  C   UNL     1      29.754 -22.979 -16.149  0.00  0.00    -0.020 C 
ATOM     12  C   UNL     1      28.942 -23.245 -17.252  0.00  0.00    -0.001 C 
ATOM     13  C   UNL     1      29.216 -22.361 -15.020  0.00  0.00    -0.001 C 
ATOM     14  C   UNL     1      27.593 -22.893 -17.226  0.00  0.00    +0.036 C 
ATOM     15  C   UNL     1      27.866 -22.009 -14.995  0.00  0.00    +0.036 C 
ATOM     16  C   UNL     1      27.055 -22.275 -16.098  0.00  0.00    +0.134 C 
BRANCH  16  17
ATOM     17  O   UNL     1      25.738 -21.932 -16.073  0.00  0.00    -0.506 OA
ATOM     18  H   UNL     1      25.355 -21.600 -15.286  0.00  0.00    +0.292 HD
ENDBRANCH  16  17
ENDBRANCH  10  11
ENDBRANCH   5  10
ENDBRANCH   2   5
BRANCH   3  19
ATOM     19  C   UNL     1      35.536 -23.857 -14.154  0.00  0.00    +0.151 C 
BRANCH  19  21
ATOM     20  O   UNL     1      37.933 -23.036 -15.578  0.00  0.00    -0.226 OA
ATOM     21  N   UNL     1      35.648 -22.871 -15.197  0.00  0.00    -0.264 N 
ATOM     22  C   UNL     1      36.837 -22.543 -15.823  0.00  0.00    +0.402 C 
ATOM     23  H   UNL     1      34.830 -22.404 -15.483  0.00  0.00    +0.153 HD
BRANCH  22  24
ATOM     24  O   UNL     1      36.613 -21.578 -16.766  0.00  0.00    -0.430 OA
BRANCH  24  25
ATOM     25  C   UNL     1      36.769 -21.990 -18.129  0.00  0.00    +0.237 C 
BRANCH  25  26
ATOM     26  C   UNL     1      35.576 -21.535 -18.916  0.00  0.00    +0.021 C 
ATOM     27  C   UNL     1      34.307 -22.025 -18.609  0.00  0.00    -0.001 C 
ATOM     28  C   UNL     1      35.736 -20.620 -19.958  0.00  0.00    -0.001 C 
ATOM     29  C   UNL     1      33.199 -21.603 -19.341  0.00  0.00    -0.000 C 
ATOM     30  C   UNL     1      34.627 -20.196 -20.691  0.00  0.00    -0.000 C 
ATOM     31  C   UNL     1      33.358 -20.688 -20.383  0.00  0.00    -0.000 C 
ENDBRANCH  25  26
ENDBRANCH  24  25
ENDBRANCH  22  24
ENDBRANCH  19  21
BRANCH  19  32
ATOM     32  C   UNL     1      36.368 -23.491 -12.919  0.00  0.00    +0.029 C 
BRANCH  32  33
ATOM     33  C   UNL     1      37.183 -24.656 -12.318  0.00  0.00    +0.002 C 
ATOM     34  C   UNL     1      38.630 -24.209 -12.092  0.00  0.00    +0.000 C 
ATOM     35  C   UNL     1      37.161 -25.901 -13.204  0.00  0.00    +0.000 C 
ENDBRANCH  32  33
ENDBRANCH  19  32
ENDBRANCH   3  19
TORSDOF 13
ENDMDL
MODEL 4
REMARK VINA RESULT:      -9.1      7.507     11.080
REMARK  Name = 6857710
REMARK  13 active torsions:
REMARK  status: ('A' for Active; 'I' for Inactive)
REMARK    1  A    between atoms: N_2  and  C_5
REMARK    2  A    between atoms: C_3  and  C_19
REMARK    3  A    between atoms: C_5  and  C_6
REMARK    4  A    between atoms: C_5  and  C_10
REMARK    5  A    between atoms: C_6  and  O_8
REMARK    6  A    between atoms: C_10  and  C_11
REMARK    7  A    between atoms: C_16  and  O_17
REMARK    8  A    between atoms: C_19  and  N_21
REMARK    9  A    between atoms: C_19  and  C_32
REMARK   10  A    between atoms: C_22  and  O_24
REMARK   11  A    between atoms: O_24  and  C_25
REMARK   12  A    between atoms: C_25  and  C_26
REMARK   13  A    between atoms: C_32  and  C_33
REMARK                            x       y       z     vdW  Elec       q    Type
REMARK                         _______ _______ _______ _____ _____    ______ ____
ROOT
ATOM      1  O   UNL     1      33.821 -23.954 -19.484  0.00  0.00    -0.273 OA
ATOM      2  N   UNL     1      34.104 -21.779 -18.720  0.00  0.00    -0.302 N 
ATOM      3  C   UNL     1      33.770 -23.120 -18.582  0.00  0.00    +0.240 C 
ATOM      4  H   UNL     1      34.027 -21.194 -17.932  0.00  0.00    +0.150 HD
ENDROOT
BRANCH   2   5
ATOM      5  C   UNL     1      34.559 -21.199 -19.963  0.00  0.00    +0.103 C 
BRANCH   5   6
ATOM      6  C   UNL     1      36.000 -20.667 -19.822  0.00  0.00    +0.129 C 
ATOM      7  C   UNL     1      36.991 -21.369 -20.745  0.00  0.00    +0.033 C 
BRANCH   6   8
ATOM      8  O   UNL     1      36.435 -20.811 -18.472  0.00  0.00    -0.383 OA
ATOM      9  H   UNL     1      36.724 -19.950 -18.131  0.00  0.00    +0.210 HD
ENDBRANCH   6   8
ENDBRANCH   5   6
BRANCH   5  10
ATOM     10  C   UNL     1      33.550 -20.125 -20.413  0.00  0.00    +0.048 C 
BRANCH  10  11
ATOM     11  C   UNL     1      34.135 -19.082 -21.332  0.00  0.00    -0.020 C 
ATOM     12  C   UNL     1      34.616 -19.451 -22.588  0.00  0.00    -0.001 C 
ATOM     13  C   UNL     1      34.195 -17.749 -20.926  0.00  0.00    -0.001 C 
ATOM     14  C   UNL     1      35.157 -18.487 -23.439  0.00  0.00    +0.036 C 
ATOM     15  C   UNL     1      34.736 -16.785 -21.777  0.00  0.00    +0.036 C 
ATOM     16  C   UNL     1      35.217 -17.154 -23.033  0.00  0.00    +0.134 C 
BRANCH  16  17
ATOM     17  O   UNL     1      35.744 -16.213 -23.864  0.00  0.00    -0.506 OA
ATOM     18  H   UNL     1      35.212 -15.825 -24.529  0.00  0.00    +0.292 HD
ENDBRANCH  16  17
ENDBRANCH  10  11
ENDBRANCH   5  10
ENDBRANCH   2   5
BRANCH   3  19
ATOM     19  C   UNL     1      33.269 -23.442 -17.179  0.00  0.00    +0.151 C 
BRANCH  19  21
ATOM     20  O   UNL     1      33.971 -24.746 -14.679  0.00  0.00    -0.226 OA
ATOM     21  N   UNL     1      34.318 -23.083 -16.261  0.00  0.00    -0.264 N 
ATOM     22  C   UNL     1      34.582 -23.765 -15.088  0.00  0.00    +0.402 C 
ATOM     23  H   UNL     1      34.881 -22.306 -16.482  0.00  0.00    +0.153 HD
BRANCH  22  24
ATOM     24  O   UNL     1      35.636 -23.182 -14.440  0.00  0.00    -0.430 OA
BRANCH  24  25
ATOM     25  C   UNL     1      36.833 -23.025 -15.211  0.00  0.00    +0.237 C 
BRANCH  25  26
ATOM     26  C   UNL     1      37.864 -23.996 -14.717  0.00  0.00    +0.021 C 
ATOM     27  C   UNL     1      37.690 -24.634 -13.488  0.00  0.00    -0.001 C 
ATOM     28  C   UNL     1      38.998 -24.262 -15.486  0.00  0.00    -0.001 C 
ATOM     29  C   UNL     1      38.649 -25.536 -13.029  0.00  0.00    -0.000 C 
ATOM     30  C   UNL     1      39.957 -25.164 -15.026  0.00  0.00    -0.000 C 
ATOM     31  C   UNL     1      39.782 -25.801 -13.797  0.00  0.00    -0.000 C 
ENDBRANCH  25  26
ENDBRANCH  24  25
ENDBRANCH  22  24
ENDBRANCH  19  21
BRANCH  19  32
ATOM     32  C   UNL     1      31.965 -22.686 -16.894  0.00  0.00    +0.029 C 
BRANCH  32  33
ATOM     33  C   UNL     1      31.011 -23.390 -15.907  0.00  0.00    +0.002 C 
ATOM     34  C   UNL     1      29.575 -23.309 -16.433  0.00  0.00    +0.000 C 
ATOM     35  C   UNL     1      31.079 -22.792 -14.502  0.00  0.00    +0.000 C 
ENDBRANCH  32  33
ENDBRANCH  19  32
ENDBRANCH   3  19
TORSDOF 13
ENDMDL
MODEL 5
REMARK VINA RESULT:      -9.1      3.253      8.872
REMARK  Name = 6857710
REMARK  13 active torsions:
REMARK  status: ('A' for Active; 'I' for Inactive)
REMARK    1  A    between atoms: N_2  and  C_5
REMARK    2  A    between atoms: C_3  and  C_19
REMARK    3  A    between atoms: C_5  and  C_6
REMARK    4  A    between atoms: C_5  and  C_10
REMARK    5  A    between atoms: C_6  and  O_8
REMARK    6  A    between atoms: C_10  and  C_11
REMARK    7  A    between atoms: C_16  and  O_17
REMARK    8  A    between atoms: C_19  and  N_21
REMARK    9  A    between atoms: C_19  and  C_32
REMARK   10  A    between atoms: C_22  and  O_24
REMARK   11  A    between atoms: O_24  and  C_25
REMARK   12  A    between atoms: C_25  and  C_26
REMARK   13  A    between atoms: C_32  and  C_33
REMARK                            x       y       z     vdW  Elec       q    Type
REMARK                         _______ _______ _______ _____ _____    ______ ____
ROOT
ATOM      1  O   UNL     1      34.183  -9.816 -23.649  0.00  0.00    -0.273 OA
ATOM      2  N   UNL     1      32.770 -11.659 -23.644  0.00  0.00    -0.302 N 
ATOM      3  C   UNL     1      33.147 -10.371 -23.287  0.00  0.00    +0.240 C 
ATOM      4  H   UNL     1      31.918 -12.009 -23.297  0.00  0.00    +0.150 HD
ENDROOT
BRANCH   2   5
ATOM      5  C   UNL     1      33.566 -12.510 -24.498  0.00  0.00    +0.103 C 
BRANCH   5   6
ATOM      6  C   UNL     1      33.672 -11.915 -25.917  0.00  0.00    +0.129 C 
ATOM      7  C   UNL     1      33.504 -12.957 -27.018  0.00  0.00    +0.033 C 
BRANCH   6   8
ATOM      8  O   UNL     1      34.932 -11.267 -26.073  0.00  0.00    -0.383 OA
ATOM      9  H   UNL     1      35.440 -11.713 -26.769  0.00  0.00    +0.210 HD
ENDBRANCH   6   8
ENDBRANCH   5   6
BRANCH   5  10
ATOM     10  C   UNL     1      32.977 -13.934 -24.473  0.00  0.00    +0.048 C 
BRANCH  10  11
ATOM     11  C   UNL     1      33.605 -14.839 -23.442  0.00  0.00    -0.020 C 
ATOM     12  C   UNL     1      33.144 -14.822 -22.126  0.00  0.00    -0.001 C 
ATOM     13  C   UNL     1      34.648 -15.692 -23.804  0.00  0.00    -0.001 C 
ATOM     14  C   UNL     1      33.724 -15.659 -21.172  0.00  0.00    +0.036 C 
ATOM     15  C   UNL     1      35.228 -16.528 -22.851  0.00  0.00    +0.036 C 
ATOM     16  C   UNL     1      34.766 -16.511 -21.535  0.00  0.00    +0.134 C 
BRANCH  16  17
ATOM     17  O   UNL     1      35.332 -17.328 -20.604  0.00  0.00    -0.506 OA
ATOM     18  H   UNL     1      35.477 -17.015 -19.733  0.00  0.00    +0.292 HD
ENDBRANCH  16  17
ENDBRANCH  10  11
ENDBRANCH   5  10
ENDBRANCH   2   5
BRANCH   3  19
ATOM     19  C   UNL     1      32.148  -9.726 -22.334  0.00  0.00    +0.151 C 
BRANCH  19  21
ATOM     20  O   UNL     1      32.001  -6.943 -21.510  0.00  0.00    -0.226 OA
ATOM     21  N   UNL     1      31.538  -8.628 -23.038  0.00  0.00    -0.264 N 
ATOM     22  C   UNL     1      31.516  -7.329 -22.568  0.00  0.00    +0.402 C 
ATOM     23  H   UNL     1      31.113  -8.814 -23.906  0.00  0.00    +0.153 HD
BRANCH  22  24
ATOM     24  O   UNL     1      30.867  -6.523 -23.463  0.00  0.00    -0.430 OA
BRANCH  24  25
ATOM     25  C   UNL     1      31.221  -5.136 -23.423  0.00  0.00    +0.237 C 
BRANCH  25  26
ATOM     26  C   UNL     1      31.852  -4.755 -24.730  0.00  0.00    +0.021 C 
ATOM     27  C   UNL     1      32.884  -5.530 -25.260  0.00  0.00    -0.001 C 
ATOM     28  C   UNL     1      31.406  -3.625 -25.417  0.00  0.00    -0.001 C 
ATOM     29  C   UNL     1      33.470  -5.175 -26.473  0.00  0.00    -0.000 C 
ATOM     30  C   UNL     1      31.992  -3.271 -26.632  0.00  0.00    -0.000 C 
ATOM     31  C   UNL     1      33.025  -4.046 -27.160  0.00  0.00    -0.000 C 
ENDBRANCH  25  26
ENDBRANCH  24  25
ENDBRANCH  22  24
ENDBRANCH  19  21
BRANCH  19  32
ATOM     32  C   UNL     1      31.116 -10.760 -21.867  0.00  0.00    +0.029 C 
BRANCH  32  33
ATOM     33  C   UNL     1      31.098 -11.016 -20.345  0.00  0.00    +0.002 C 
ATOM     34  C   UNL     1      31.716  -9.821 -19.615  0.00  0.00    +0.000 C 
ATOM     35  C   UNL     1      31.842 -12.295 -19.960  0.00  0.00    +0.000 C 
ENDBRANCH  32  33
ENDBRANCH  19  32
ENDBRANCH   3  19
TORSDOF 13
ENDMDL
MODEL 6
REMARK VINA RESULT:      -9.1      3.084      9.083
REMARK  Name = 6857710
REMARK  13 active torsions:
REMARK  status: ('A' for Active; 'I' for Inactive)
REMARK    1  A    between atoms: N_2  and  C_5
REMARK    2  A    between atoms: C_3  and  C_19
REMARK    3  A    between atoms: C_5  and  C_6
REMARK    4  A    between atoms: C_5  and  C_10
REMARK    5  A    between atoms: C_6  and  O_8
REMARK    6  A    between atoms: C_10  and  C_11
REMARK    7  A    between atoms: C_16  and  O_17
REMARK    8  A    between atoms: C_19  and  N_21
REMARK    9  A    between atoms: C_19  and  C_32
REMARK   10  A    between atoms: C_22  and  O_24
REMARK   11  A    between atoms: O_24  and  C_25
REMARK   12  A    between atoms: C_25  and  C_26
REMARK   13  A    between atoms: C_32  and  C_33
REMARK                            x       y       z     vdW  Elec       q    Type
REMARK                         _______ _______ _______ _____ _____    ______ ____
ROOT
ATOM      1  O   UNL     1      34.880 -15.884 -20.417  0.00  0.00    -0.273 OA
ATOM      2  N   UNL     1      34.092 -17.436 -21.955  0.00  0.00    -0.302 N 
ATOM      3  C   UNL     1      34.207 -16.165 -21.407  0.00  0.00    +0.240 C 
ATOM      4  H   UNL     1      33.524 -17.552 -22.752  0.00  0.00    +0.150 HD
ENDROOT
BRANCH   2   5
ATOM      5  C   UNL     1      34.762 -18.596 -21.415  0.00  0.00    +0.103 C 
BRANCH   5   6
ATOM      6  C   UNL     1      35.977 -18.979 -22.285  0.00  0.00    +0.129 C 
ATOM      7  C   UNL     1      37.311 -18.766 -21.576  0.00  0.00    +0.033 C 
BRANCH   6   8
ATOM      8  O   UNL     1      35.962 -18.220 -23.492  0.00  0.00    -0.383 OA
ATOM      9  H   UNL     1      35.063 -18.211 -23.857  0.00  0.00    +0.210 HD
ENDBRANCH   6   8
ENDBRANCH   5   6
BRANCH   5  10
ATOM     10  C   UNL     1      33.737 -19.737 -21.257  0.00  0.00    +0.048 C 
BRANCH  10  11
ATOM     11  C   UNL     1      34.067 -20.706 -20.149  0.00  0.00    -0.020 C 
ATOM     12  C   UNL     1      33.042 -21.381 -19.485  0.00  0.00    -0.001 C 
ATOM     13  C   UNL     1      35.395 -20.928 -19.788  0.00  0.00    -0.001 C 
ATOM     14  C   UNL     1      33.345 -22.278 -18.461  0.00  0.00    +0.036 C 
ATOM     15  C   UNL     1      35.699 -21.825 -18.763  0.00  0.00    +0.036 C 
ATOM     16  C   UNL     1      34.674 -22.499 -18.100  0.00  0.00    +0.134 C 
BRANCH  16  17
ATOM     17  O   UNL     1      34.970 -23.375 -17.101  0.00  0.00    -0.506 OA
ATOM     18  H   UNL     1      35.718 -23.933 -17.174  0.00  0.00    +0.292 HD
ENDBRANCH  16  17
ENDBRANCH  10  11
ENDBRANCH   5  10
ENDBRANCH   2   5
BRANCH   3  19
ATOM     19  C   UNL     1      33.349 -15.144 -22.145  0.00  0.00    +0.151 C 
BRANCH  19  21
ATOM     20  O   UNL     1      31.613 -12.849 -22.547  0.00  0.00    -0.226 OA
ATOM     21  N   UNL     1      33.067 -14.078 -21.219  0.00  0.00    -0.264 N 
ATOM     22  C   UNL     1      32.223 -13.020 -21.497  0.00  0.00    +0.402 C 
ATOM     23  H   UNL     1      33.502 -14.105 -20.336  0.00  0.00    +0.153 HD
BRANCH  22  24
ATOM     24  O   UNL     1      32.163 -12.179 -20.419  0.00  0.00    -0.430 OA
BRANCH  24  25
ATOM     25  C   UNL     1      31.111 -11.208 -20.444  0.00  0.00    +0.237 C 
BRANCH  25  26
ATOM     26  C   UNL     1      31.681  -9.880 -20.845  0.00  0.00    +0.021 C 
ATOM     27  C   UNL     1      31.717  -9.513 -22.191  0.00  0.00    -0.001 C 
ATOM     28  C   UNL     1      32.175  -9.009 -19.873  0.00  0.00    -0.001 C 
ATOM     29  C   UNL     1      32.248  -8.279 -22.564  0.00  0.00    -0.000 C 
ATOM     30  C   UNL     1      32.705  -7.774 -20.246  0.00  0.00    -0.000 C 
ATOM     31  C   UNL     1      32.742  -7.409 -21.592  0.00  0.00    -0.000 C 
ENDBRANCH  25  26
ENDBRANCH  24  25
ENDBRANCH  22  24
ENDBRANCH  19  21
BRANCH  19  32
ATOM     32  C   UNL     1      34.077 -14.646 -23.399  0.00  0.00    +0.029 C 
BRANCH  32  33
ATOM     33  C   UNL     1      33.348 -14.931 -24.729  0.00  0.00    +0.002 C 
ATOM     34  C   UNL     1      34.044 -16.082 -25.461  0.00  0.00    +0.000 C 
ATOM     35  C   UNL     1      33.289 -13.704 -25.637  0.00  0.00    +0.000 C 
ENDBRANCH  32  33
ENDBRANCH  19  32
ENDBRANCH   3  19
TORSDOF 13
ENDMDL
MODEL 7
REMARK VINA RESULT:      -9.1      2.370      3.574
REMARK  Name = 6857710
REMARK  13 active torsions:
REMARK  status: ('A' for Active; 'I' for Inactive)
REMARK    1  A    between atoms: N_2  and  C_5
REMARK    2  A    between atoms: C_3  and  C_19
REMARK    3  A    between atoms: C_5  and  C_6
REMARK    4  A    between atoms: C_5  and  C_10
REMARK    5  A    between atoms: C_6  and  O_8
REMARK    6  A    between atoms: C_10  and  C_11
REMARK    7  A    between atoms: C_16  and  O_17
REMARK    8  A    between atoms: C_19  and  N_21
REMARK    9  A    between atoms: C_19  and  C_32
REMARK   10  A    between atoms: C_22  and  O_24
REMARK   11  A    between atoms: O_24  and  C_25
REMARK   12  A    between atoms: C_25  and  C_26
REMARK   13  A    between atoms: C_32  and  C_33
REMARK                            x       y       z     vdW  Elec       q    Type
REMARK                         _______ _______ _______ _____ _____    ______ ____
ROOT
ATOM      1  O   UNL     1      32.884 -13.324 -24.275  0.00  0.00    -0.273 OA
ATOM      2  N   UNL     1      33.266 -11.344 -23.124  0.00  0.00    -0.302 N 
ATOM      3  C   UNL     1      32.937 -12.689 -23.223  0.00  0.00    +0.240 C 
ATOM      4  H   UNL     1      33.279 -10.931 -22.229  0.00  0.00    +0.150 HD
ENDROOT
BRANCH   2   5
ATOM      5  C   UNL     1      33.589 -10.520 -24.265  0.00  0.00    +0.103 C 
BRANCH   5   6
ATOM      6  C   UNL     1      34.404 -11.319 -25.302  0.00  0.00    +0.129 C 
ATOM      7  C   UNL     1      35.548 -10.515 -25.914  0.00  0.00    +0.033 C 
BRANCH   6   8
ATOM      8  O   UNL     1      33.543 -11.774 -26.343  0.00  0.00    -0.383 OA
ATOM      9  H   UNL     1      32.742 -11.227 -26.362  0.00  0.00    +0.210 HD
ENDBRANCH   6   8
ENDBRANCH   5   6
BRANCH   5  10
ATOM     10  C   UNL     1      34.302  -9.244 -23.775  0.00  0.00    +0.048 C 
BRANCH  10  11
ATOM     11  C   UNL     1      33.379  -8.227 -23.151  0.00  0.00    -0.020 C 
ATOM     12  C   UNL     1      32.934  -8.402 -21.840  0.00  0.00    -0.001 C 
ATOM     13  C   UNL     1      32.970  -7.114 -23.884  0.00  0.00    -0.001 C 
ATOM     14  C   UNL     1      32.081  -7.462 -21.263  0.00  0.00    +0.036 C 
ATOM     15  C   UNL     1      32.117  -6.174 -23.306  0.00  0.00    +0.036 C 
ATOM     16  C   UNL     1      31.672  -6.348 -21.995  0.00  0.00    +0.134 C 
BRANCH  16  17
ATOM     17  O   UNL     1      30.839  -5.431 -21.431  0.00  0.00    -0.506 OA
ATOM     18  H   UNL     1      29.972  -5.678 -21.180  0.00  0.00    +0.292 HD
ENDBRANCH  16  17
ENDBRANCH  10  11
ENDBRANCH   5  10
ENDBRANCH   2   5
BRANCH   3  19
ATOM     19  C   UNL     1      32.588 -13.295 -21.869  0.00  0.00    +0.151 C 
BRANCH  19  21
ATOM     20  O   UNL     1      31.985 -15.959 -20.877  0.00  0.00    -0.226 OA
ATOM     21  N   UNL     1      33.507 -14.380 -21.640  0.00  0.00    -0.264 N 
ATOM     22  C   UNL     1      33.129 -15.622 -21.164  0.00  0.00    +0.402 C 
ATOM     23  H   UNL     1      34.460 -14.229 -21.834  0.00  0.00    +0.153 HD
BRANCH  22  24
ATOM     24  O   UNL     1      34.227 -16.430 -21.056  0.00  0.00    -0.430 OA
BRANCH  24  25
ATOM     25  C   UNL     1      34.294 -17.517 -21.987  0.00  0.00    +0.237 C 
BRANCH  25  26
ATOM     26  C   UNL     1      34.354 -18.809 -21.227  0.00  0.00    +0.021 C 
ATOM     27  C   UNL     1      35.587 -19.405 -20.959  0.00  0.00    -0.001 C 
ATOM     28  C   UNL     1      33.177 -19.415 -20.787  0.00  0.00    -0.001 C 
ATOM     29  C   UNL     1      35.642 -20.606 -20.254  0.00  0.00    -0.000 C 
ATOM     30  C   UNL     1      33.232 -20.617 -20.081  0.00  0.00    -0.000 C 
ATOM     31  C   UNL     1      34.465 -21.212 -19.814  0.00  0.00    -0.000 C 
ENDBRANCH  25  26
ENDBRANCH  24  25
ENDBRANCH  22  24
ENDBRANCH  19  21
BRANCH  19  32
ATOM     32  C   UNL     1      32.669 -12.225 -20.773  0.00  0.00    +0.029 C 
BRANCH  32  33
ATOM     33  C   UNL     1      31.310 -11.811 -20.170  0.00  0.00    +0.002 C 
ATOM     34  C   UNL     1      30.445 -11.159 -21.253  0.00  0.00    +0.000 C 
ATOM     35  C   UNL     1      31.464 -10.853 -18.989  0.00  0.00    +0.000 C 
ENDBRANCH  32  33
ENDBRANCH  19  32
ENDBRANCH   3  19
TORSDOF 13
ENDMDL
MODEL 8
REMARK VINA RESULT:      -9.0      5.803      8.510
REMARK  Name = 6857710
REMARK  13 active torsions:
REMARK  status: ('A' for Active; 'I' for Inactive)
REMARK    1  A    between atoms: N_2  and  C_5
REMARK    2  A    between atoms: C_3  and  C_19
REMARK    3  A    between atoms: C_5  and  C_6
REMARK    4  A    between atoms: C_5  and  C_10
REMARK    5  A    between atoms: C_6  and  O_8
REMARK    6  A    between atoms: C_10  and  C_11
REMARK    7  A    between atoms: C_16  and  O_17
REMARK    8  A    between atoms: C_19  and  N_21
REMARK    9  A    between atoms: C_19  and  C_32
REMARK   10  A    between atoms: C_22  and  O_24
REMARK   11  A    between atoms: O_24  and  C_25
REMARK   12  A    between atoms: C_25  and  C_26
REMARK   13  A    between atoms: C_32  and  C_33
REMARK                            x       y       z     vdW  Elec       q    Type
REMARK                         _______ _______ _______ _____ _____    ______ ____
ROOT
ATOM      1  O   UNL     1      32.560 -19.976 -20.992  0.00  0.00    -0.273 OA
ATOM      2  N   UNL     1      34.671 -19.021 -20.838  0.00  0.00    -0.302 N 
ATOM      3  C   UNL     1      33.702 -19.969 -20.537  0.00  0.00    +0.240 C 
ATOM      4  H   UNL     1      35.557 -19.108 -20.416  0.00  0.00    +0.150 HD
ENDROOT
BRANCH   2   5
ATOM      5  C   UNL     1      34.445 -17.913 -21.737  0.00  0.00    +0.103 C 
BRANCH   5   6
ATOM      6  C   UNL     1      35.213 -18.117 -23.059  0.00  0.00    +0.129 C 
ATOM      7  C   UNL     1      34.784 -19.372 -23.814  0.00  0.00    +0.033 C 
BRANCH   6   8
ATOM      8  O   UNL     1      36.613 -18.186 -22.795  0.00  0.00    -0.383 OA
ATOM      9  H   UNL     1      36.979 -18.986 -23.203  0.00  0.00    +0.210 HD
ENDBRANCH   6   8
ENDBRANCH   5   6
BRANCH   5  10
ATOM     10  C   UNL     1      34.805 -16.601 -21.014  0.00  0.00    +0.048 C 
BRANCH  10  11
ATOM     11  C   UNL     1      33.908 -15.440 -21.368  0.00  0.00    -0.020 C 
ATOM     12  C   UNL     1      33.085 -14.873 -20.395  0.00  0.00    -0.001 C 
ATOM     13  C   UNL     1      33.902 -14.935 -22.668  0.00  0.00    -0.001 C 
ATOM     14  C   UNL     1      32.256 -13.800 -20.722  0.00  0.00    +0.036 C 
ATOM     15  C   UNL     1      33.073 -13.862 -22.995  0.00  0.00    +0.036 C 
ATOM     16  C   UNL     1      32.250 -13.294 -22.022  0.00  0.00    +0.134 C 
BRANCH  16  17
ATOM     17  O   UNL     1      31.441 -12.247 -22.340  0.00  0.00    -0.506 OA
ATOM     18  H   UNL     1      30.589 -12.404 -22.694  0.00  0.00    +0.292 HD
ENDBRANCH  16  17
ENDBRANCH  10  11
ENDBRANCH   5  10
ENDBRANCH   2   5
BRANCH   3  19
ATOM     19  C   UNL     1      34.197 -20.989 -19.518  0.00  0.00    +0.151 C 
BRANCH  19  21
ATOM     20  O   UNL     1      34.003 -22.816 -17.267  0.00  0.00    -0.226 OA
ATOM     21  N   UNL     1      33.057 -21.769 -19.110  0.00  0.00    -0.264 N 
ATOM     22  C   UNL     1      33.055 -22.616 -18.018  0.00  0.00    +0.402 C 
ATOM     23  H   UNL     1      32.231 -21.692 -19.639  0.00  0.00    +0.153 HD
BRANCH  22  24
ATOM     24  O   UNL     1      31.828 -23.209 -17.894  0.00  0.00    -0.430 OA
BRANCH  24  25
ATOM     25  C   UNL     1      30.914 -22.566 -16.999  0.00  0.00    +0.237 C 
BRANCH  25  26
ATOM     26  C   UNL     1      30.858 -23.343 -15.716  0.00  0.00    +0.021 C 
ATOM     27  C   UNL     1      31.421 -22.814 -14.554  0.00  0.00    -0.001 C 
ATOM     28  C   UNL     1      30.242 -24.595 -15.685  0.00  0.00    -0.001 C 
ATOM     29  C   UNL     1      31.370 -23.537 -13.364  0.00  0.00    -0.000 C 
ATOM     30  C   UNL     1      30.191 -25.317 -14.493  0.00  0.00    -0.000 C 
ATOM     31  C   UNL     1      30.755 -24.788 -13.332  0.00  0.00    -0.000 C 
ENDBRANCH  25  26
ENDBRANCH  24  25
ENDBRANCH  22  24
ENDBRANCH  19  21
BRANCH  19  32
ATOM     32  C   UNL     1      35.303 -21.857 -20.131  0.00  0.00    +0.029 C 
BRANCH  32  33
ATOM     33  C   UNL     1      36.722 -21.570 -19.597  0.00  0.00    +0.002 C 
ATOM     34  C   UNL     1      36.708 -21.583 -18.066  0.00  0.00    +0.000 C 
ATOM     35  C   UNL     1      37.275 -20.235 -20.096  0.00  0.00    +0.000 C 
ENDBRANCH  32  33
ENDBRANCH  19  32
ENDBRANCH   3  19
TORSDOF 13
ENDMDL
MODEL 9
REMARK VINA RESULT:      -8.9      2.563      4.034
REMARK  Name = 6857710
REMARK  13 active torsions:
REMARK  status: ('A' for Active; 'I' for Inactive)
REMARK    1  A    between atoms: N_2  and  C_5
REMARK    2  A    between atoms: C_3  and  C_19
REMARK    3  A    between atoms: C_5  and  C_6
REMARK    4  A    between atoms: C_5  and  C_10
REMARK    5  A    between atoms: C_6  and  O_8
REMARK    6  A    between atoms: C_10  and  C_11
REMARK    7  A    between atoms: C_16  and  O_17
REMARK    8  A    between atoms: C_19  and  N_21
REMARK    9  A    between atoms: C_19  and  C_32
REMARK   10  A    between atoms: C_22  and  O_24
REMARK   11  A    between atoms: O_24  and  C_25
REMARK   12  A    between atoms: C_25  and  C_26
REMARK   13  A    between atoms: C_32  and  C_33
REMARK                            x       y       z     vdW  Elec       q    Type
REMARK                         _______ _______ _______ _____ _____    ______ ____
ROOT
ATOM      1  O   UNL     1      33.151 -13.203 -21.293  0.00  0.00    -0.273 OA
ATOM      2  N   UNL     1      33.003 -11.770 -23.115  0.00  0.00    -0.302 N 
ATOM      3  C   UNL     1      33.219 -12.998 -22.504  0.00  0.00    +0.240 C 
ATOM      4  H   UNL     1      33.083 -11.715 -24.095  0.00  0.00    +0.150 HD
ENDROOT
BRANCH   2   5
ATOM      5  C   UNL     1      32.668 -10.569 -22.385  0.00  0.00    +0.103 C 
BRANCH   5   6
ATOM      6  C   UNL     1      31.226 -10.644 -21.843  0.00  0.00    +0.129 C 
ATOM      7  C   UNL     1      31.156 -10.607 -20.320  0.00  0.00    +0.033 C 
BRANCH   6   8
ATOM      8  O   UNL     1      30.597 -11.835 -22.312  0.00  0.00    -0.383 OA
ATOM      9  H   UNL     1      30.148 -11.654 -23.152  0.00  0.00    +0.210 HD
ENDBRANCH   6   8
ENDBRANCH   5   6
BRANCH   5  10
ATOM     10  C   UNL     1      32.920  -9.347 -23.290  0.00  0.00    +0.048 C 
BRANCH  10  11
ATOM     11  C   UNL     1      32.272  -8.077 -22.798  0.00  0.00    -0.020 C 
ATOM     12  C   UNL     1      31.240  -7.491 -23.531  0.00  0.00    -0.001 C 
ATOM     13  C   UNL     1      32.705  -7.488 -21.611  0.00  0.00    -0.001 C 
ATOM     14  C   UNL     1      30.640  -6.317 -23.077  0.00  0.00    +0.036 C 
ATOM     15  C   UNL     1      32.105  -6.313 -21.156  0.00  0.00    +0.036 C 
ATOM     16  C   UNL     1      31.073  -5.728 -21.889  0.00  0.00    +0.134 C 
BRANCH  16  17
ATOM     17  O   UNL     1      30.487  -4.582 -21.446  0.00  0.00    -0.506 OA
ATOM     18  H   UNL     1      29.555  -4.533 -21.366  0.00  0.00    +0.292 HD
ENDBRANCH  16  17
ENDBRANCH  10  11
ENDBRANCH   5  10
ENDBRANCH   2   5
BRANCH   3  19
ATOM     19  C   UNL     1      33.611 -14.076 -23.508  0.00  0.00    +0.151 C 
BRANCH  19  21
ATOM     20  O   UNL     1      35.657 -16.137 -23.416  0.00  0.00    -0.226 OA
ATOM     21  N   UNL     1      33.561 -15.338 -22.817  0.00  0.00    -0.264 N 
ATOM     22  C   UNL     1      34.588 -16.263 -22.828  0.00  0.00    +0.402 C 
ATOM     23  H   UNL     1      32.748 -15.554 -22.306  0.00  0.00    +0.153 HD
BRANCH  22  24
ATOM     24  O   UNL     1      34.238 -17.353 -22.080  0.00  0.00    -0.430 OA
BRANCH  24  25
ATOM     25  C   UNL     1      35.174 -18.437 -22.082  0.00  0.00    +0.237 C 
BRANCH  25  26
ATOM     26  C   UNL     1      34.686 -19.506 -21.149  0.00  0.00    +0.021 C 
ATOM     27  C   UNL     1      35.596 -20.371 -20.541  0.00  0.00    -0.001 C 
ATOM     28  C   UNL     1      33.322 -19.634 -20.887  0.00  0.00    -0.001 C 
ATOM     29  C   UNL     1      35.143 -21.364 -19.674  0.00  0.00    -0.000 C 
ATOM     30  C   UNL     1      32.868 -20.628 -20.019  0.00  0.00    -0.000 C 
ATOM     31  C   UNL     1      33.778 -21.493 -19.413  0.00  0.00    -0.000 C 
ENDBRANCH  25  26
ENDBRANCH  24  25
ENDBRANCH  22  24
ENDBRANCH  19  21
BRANCH  19  32
ATOM     32  C   UNL     1      32.671 -14.040 -24.719  0.00  0.00    +0.029 C 
BRANCH  32  33
ATOM     33  C   UNL     1      33.313 -14.483 -26.051  0.00  0.00    +0.002 C 
ATOM     34  C   UNL     1      33.132 -13.383 -27.101  0.00  0.00    +0.000 C 
ATOM     35  C   UNL     1      32.725 -15.794 -26.573  0.00  0.00    +0.000 C 
ENDBRANCH  32  33
ENDBRANCH  19  32
ENDBRANCH   3  19
TORSDOF 13
ENDMDL
