MODEL 1
REMARK VINA RESULT:      -7.1      0.000      0.000
REMARK  Name = 4634717
REMARK  7 active torsions:
REMARK  status: ('A' for Active; 'I' for Inactive)
REMARK    1  A    between atoms: C_1  and  C_12
REMARK    2  A    between atoms: C_2  and  C_11
REMARK    3  A    between atoms: C_5  and  N_7
REMARK    4  A    between atoms: C_12  and  C_14
REMARK    5  A    between atoms: C_14  and  O_15
REMARK    6  A    between atoms: O_15  and  C_16
REMARK    7  A    between atoms: C_16  and  C_18
REMARK                            x       y       z     vdW  Elec       q    Type
REMARK                         _______ _______ _______ _____ _____    ______ ____
ROOT
ATOM      1  C   UNL     1      34.953 -16.907 -22.245  0.00  0.00    -0.008 C 
ATOM      2  C   UNL     1      34.541 -16.474 -23.505  0.00  0.00    +0.040 C 
ATOM      3  C   UNL     1      34.619 -16.168 -21.110  0.00  0.00    -0.002 C 
ATOM      4  C   UNL     1      33.794 -15.303 -23.631  0.00  0.00    +0.017 C 
ATOM      5  C   UNL     1      33.459 -14.565 -22.496  0.00  0.00    +0.042 C 
ATOM      6  C   UNL     1      33.871 -14.997 -21.235  0.00  0.00    +0.014 C 
ENDROOT
BRANCH   5   7
ATOM      7  N   UNL     1      32.703 -13.380 -22.622  0.00  0.00    -0.357 N 
ATOM      8  H   UNL     1      32.332 -13.124 -23.498  0.00  0.00    +0.142 HD
ATOM      9  H   UNL     1      32.548 -12.809 -21.836  0.00  0.00    +0.142 HD
ENDBRANCH   5   7
BRANCH   2  11
ATOM     10  O   UNL     1      34.742 -16.772 -25.843  0.00  0.00    -0.283 OA
ATOM     11  C   UNL     1      34.878 -17.227 -24.706  0.00  0.00    +0.234 C 
ENDBRANCH   2  11
BRANCH   1  12
ATOM     12  C   UNL     1      35.755 -18.157 -22.082  0.00  0.00    +0.136 C 
BRANCH  12  14
ATOM     13  O   UNL     1      33.930 -19.696 -21.611  0.00  0.00    -0.250 OA
ATOM     14  C   UNL     1      35.027 -19.244 -21.316  0.00  0.00    +0.321 C 
BRANCH  14  15
ATOM     15  O   UNL     1      35.791 -19.632 -20.251  0.00  0.00    -0.447 OA
BRANCH  15  16
ATOM     16  C   UNL     1      36.186 -21.007 -20.245  0.00  0.00    +0.221 C 
BRANCH  16  18
ATOM     17 BR   UNL     1      33.941 -22.305 -19.058  0.00  0.00    -0.077 Br
ATOM     18  C   UNL     1      35.775 -21.650 -18.938  0.00  0.00    +0.115 C 
ENDBRANCH  16  18
ENDBRANCH  15  16
ENDBRANCH  14  15
ENDBRANCH  12  14
ENDBRANCH   1  12
TORSDOF 7
ENDMDL
MODEL 2
REMARK VINA RESULT:      -7.0      3.288      4.680
REMARK  Name = 4634717
REMARK  7 active torsions:
REMARK  status: ('A' for Active; 'I' for Inactive)
REMARK    1  A    between atoms: C_1  and  C_12
REMARK    2  A    between atoms: C_2  and  C_11
REMARK    3  A    between atoms: C_5  and  N_7
REMARK    4  A    between atoms: C_12  and  C_14
REMARK    5  A    between atoms: C_14  and  O_15
REMARK    6  A    between atoms: O_15  and  C_16
REMARK    7  A    between atoms: C_16  and  C_18
REMARK                            x       y       z     vdW  Elec       q    Type
REMARK                         _______ _______ _______ _____ _____    ______ ____
ROOT
ATOM      1  C   UNL     1      35.771 -20.431 -20.311  0.00  0.00    -0.008 C 
ATOM      2  C   UNL     1      34.397 -20.225 -20.432  0.00  0.00    +0.040 C 
ATOM      3  C   UNL     1      36.665 -19.479 -20.802  0.00  0.00    -0.002 C 
ATOM      4  C   UNL     1      33.916 -19.068 -21.043  0.00  0.00    +0.017 C 
ATOM      5  C   UNL     1      34.809 -18.115 -21.533  0.00  0.00    +0.042 C 
ATOM      6  C   UNL     1      36.184 -18.320 -21.413  0.00  0.00    +0.014 C 
ENDROOT
BRANCH   5   7
ATOM      7  N   UNL     1      34.323 -16.943 -22.152  0.00  0.00    -0.357 N 
ATOM      8  H   UNL     1      33.863 -17.000 -23.020  0.00  0.00    +0.142 HD
ATOM      9  H   UNL     1      34.445 -16.070 -21.715  0.00  0.00    +0.142 HD
ENDBRANCH   5   7
BRANCH   2  11
ATOM     10  O   UNL     1      32.427 -20.891 -19.304  0.00  0.00    -0.283 OA
ATOM     11  C   UNL     1      33.443 -21.204 -19.929  0.00  0.00    +0.234 C 
ENDBRANCH   2  11
BRANCH   1  12
ATOM     12  C   UNL     1      36.313 -21.662 -19.662  0.00  0.00    +0.136 C 
BRANCH  12  14
ATOM     13  O   UNL     1      37.140 -20.701 -17.585  0.00  0.00    -0.250 OA
ATOM     14  C   UNL     1      36.456 -21.538 -18.158  0.00  0.00    +0.321 C 
BRANCH  14  15
ATOM     15  O   UNL     1      35.702 -22.504 -17.553  0.00  0.00    -0.447 OA
BRANCH  15  16
ATOM     16  C   UNL     1      35.976 -22.720 -16.166  0.00  0.00    +0.221 C 
BRANCH  16  18
ATOM     17 BR   UNL     1      33.243 -23.330 -16.713  0.00  0.00    -0.077 Br
ATOM     18  C   UNL     1      34.687 -23.032 -15.434  0.00  0.00    +0.115 C 
ENDBRANCH  16  18
ENDBRANCH  15  16
ENDBRANCH  14  15
ENDBRANCH  12  14
ENDBRANCH   1  12
TORSDOF 7
ENDMDL
MODEL 3
REMARK VINA RESULT:      -7.0      3.630      6.108
REMARK  Name = 4634717
REMARK  7 active torsions:
REMARK  status: ('A' for Active; 'I' for Inactive)
REMARK    1  A    between atoms: C_1  and  C_12
REMARK    2  A    between atoms: C_2  and  C_11
REMARK    3  A    between atoms: C_5  and  N_7
REMARK    4  A    between atoms: C_12  and  C_14
REMARK    5  A    between atoms: C_14  and  O_15
REMARK    6  A    between atoms: O_15  and  C_16
REMARK    7  A    between atoms: C_16  and  C_18
REMARK                            x       y       z     vdW  Elec       q    Type
REMARK                         _______ _______ _______ _____ _____    ______ ____
ROOT
ATOM      1  C   UNL     1      34.624 -19.546 -20.945  0.00  0.00    -0.008 C 
ATOM      2  C   UNL     1      35.438 -20.386 -20.186  0.00  0.00    +0.040 C 
ATOM      3  C   UNL     1      33.240 -19.717 -20.932  0.00  0.00    -0.002 C 
ATOM      4  C   UNL     1      34.869 -21.397 -19.413  0.00  0.00    +0.017 C 
ATOM      5  C   UNL     1      33.485 -21.568 -19.399  0.00  0.00    +0.042 C 
ATOM      6  C   UNL     1      32.670 -20.728 -20.158  0.00  0.00    +0.014 C 
ENDROOT
BRANCH   5   7
ATOM      7  N   UNL     1      32.908 -22.591 -18.617  0.00  0.00    -0.357 N 
ATOM      8  H   UNL     1      32.110 -23.068 -18.941  0.00  0.00    +0.142 HD
ATOM      9  H   UNL     1      33.304 -22.829 -17.747  0.00  0.00    +0.142 HD
ENDBRANCH   5   7
BRANCH   2  11
ATOM     10  O   UNL     1      37.488 -19.566 -19.335  0.00  0.00    -0.283 OA
ATOM     11  C   UNL     1      36.887 -20.228 -20.183  0.00  0.00    +0.234 C 
ENDBRANCH   2  11
BRANCH   1  12
ATOM     12  C   UNL     1      35.208 -18.455 -21.783  0.00  0.00    +0.136 C 
BRANCH  12  14
ATOM     13  O   UNL     1      35.249 -16.583 -20.228  0.00  0.00    -0.250 OA
ATOM     14  C   UNL     1      34.866 -17.065 -21.286  0.00  0.00    +0.321 C 
BRANCH  14  15
ATOM     15  O   UNL     1      34.068 -16.443 -22.204  0.00  0.00    -0.447 OA
BRANCH  15  16
ATOM     16  C   UNL     1      34.749 -15.620 -23.156  0.00  0.00    +0.221 C 
BRANCH  16  18
ATOM     17 BR   UNL     1      34.426 -17.570 -25.213  0.00  0.00    -0.077 Br
ATOM     18  C   UNL     1      34.105 -15.775 -24.518  0.00  0.00    +0.115 C 
ENDBRANCH  16  18
ENDBRANCH  15  16
ENDBRANCH  14  15
ENDBRANCH  12  14
ENDBRANCH   1  12
TORSDOF 7
ENDMDL
MODEL 4
REMARK VINA RESULT:      -7.0      2.246      3.741
REMARK  Name = 4634717
REMARK  7 active torsions:
REMARK  status: ('A' for Active; 'I' for Inactive)
REMARK    1  A    between atoms: C_1  and  C_12
REMARK    2  A    between atoms: C_2  and  C_11
REMARK    3  A    between atoms: C_5  and  N_7
REMARK    4  A    between atoms: C_12  and  C_14
REMARK    5  A    between atoms: C_14  and  O_15
REMARK    6  A    between atoms: O_15  and  C_16
REMARK    7  A    between atoms: C_16  and  C_18
REMARK                            x       y       z     vdW  Elec       q    Type
REMARK                         _______ _______ _______ _____ _____    ______ ____
ROOT
ATOM      1  C   UNL     1      34.177 -15.017 -23.082  0.00  0.00    -0.008 C 
ATOM      2  C   UNL     1      33.639 -15.066 -21.797  0.00  0.00    +0.040 C 
ATOM      3  C   UNL     1      33.762 -14.029 -23.975  0.00  0.00    -0.002 C 
ATOM      4  C   UNL     1      32.686 -14.127 -21.403  0.00  0.00    +0.017 C 
ATOM      5  C   UNL     1      32.272 -13.138 -22.296  0.00  0.00    +0.042 C 
ATOM      6  C   UNL     1      32.810 -13.089 -23.583  0.00  0.00    +0.014 C 
ENDROOT
BRANCH   5   7
ATOM      7  N   UNL     1      31.307 -12.188 -21.899  0.00  0.00    -0.357 N 
ATOM      8  H   UNL     1      31.076 -11.441 -22.498  0.00  0.00    +0.142 HD
ATOM      9  H   UNL     1      30.866 -12.271 -21.023  0.00  0.00    +0.142 HD
ENDBRANCH   5   7
BRANCH   2  11
ATOM     10  O   UNL     1      34.972 -15.920 -20.039  0.00  0.00    -0.283 OA
ATOM     11  C   UNL     1      34.055 -16.088 -20.845  0.00  0.00    +0.234 C 
ENDBRANCH   2  11
BRANCH   1  12
ATOM     12  C   UNL     1      35.199 -16.011 -23.529  0.00  0.00    +0.136 C 
BRANCH  12  14
ATOM     13  O   UNL     1      34.810 -16.714 -25.827  0.00  0.00    -0.250 OA
ATOM     14  C   UNL     1      34.704 -16.932 -24.628  0.00  0.00    +0.321 C 
BRANCH  14  15
ATOM     15  O   UNL     1      34.125 -18.034 -24.064  0.00  0.00    -0.447 OA
BRANCH  15  16
ATOM     16  C   UNL     1      35.032 -19.056 -23.638  0.00  0.00    +0.221 C 
BRANCH  16  18
ATOM     17 BR   UNL     1      36.236 -19.147 -21.054  0.00  0.00    -0.077 Br
ATOM     18  C   UNL     1      34.704 -19.469 -22.219  0.00  0.00    +0.115 C 
ENDBRANCH  16  18
ENDBRANCH  15  16
ENDBRANCH  14  15
ENDBRANCH  12  14
ENDBRANCH   1  12
TORSDOF 7
ENDMDL
MODEL 5
REMARK VINA RESULT:      -6.9      3.442      5.880
REMARK  Name = 4634717
REMARK  7 active torsions:
REMARK  status: ('A' for Active; 'I' for Inactive)
REMARK    1  A    between atoms: C_1  and  C_12
REMARK    2  A    between atoms: C_2  and  C_11
REMARK    3  A    between atoms: C_5  and  N_7
REMARK    4  A    between atoms: C_12  and  C_14
REMARK    5  A    between atoms: C_14  and  O_15
REMARK    6  A    between atoms: O_15  and  C_16
REMARK    7  A    between atoms: C_16  and  C_18
REMARK                            x       y       z     vdW  Elec       q    Type
REMARK                         _______ _______ _______ _____ _____    ______ ____
ROOT
ATOM      1  C   UNL     1      34.647 -19.406 -21.083  0.00  0.00    -0.008 C 
ATOM      2  C   UNL     1      35.431 -20.273 -20.323  0.00  0.00    +0.040 C 
ATOM      3  C   UNL     1      33.259 -19.536 -21.080  0.00  0.00    -0.002 C 
ATOM      4  C   UNL     1      34.827 -21.271 -19.560  0.00  0.00    +0.017 C 
ATOM      5  C   UNL     1      33.438 -21.401 -19.555  0.00  0.00    +0.042 C 
ATOM      6  C   UNL     1      32.654 -20.534 -20.316  0.00  0.00    +0.014 C 
ENDROOT
BRANCH   5   7
ATOM      7  N   UNL     1      32.826 -22.411 -18.783  0.00  0.00    -0.357 N 
ATOM      8  H   UNL     1      32.129 -22.981 -19.181  0.00  0.00    +0.142 HD
ATOM      9  H   UNL     1      33.097 -22.546 -17.846  0.00  0.00    +0.142 HD
ENDBRANCH   5   7
BRANCH   2  11
ATOM     10  O   UNL     1      37.499 -19.524 -19.451  0.00  0.00    -0.283 OA
ATOM     11  C   UNL     1      36.884 -20.158 -20.310  0.00  0.00    +0.234 C 
ENDBRANCH   2  11
BRANCH   1  12
ATOM     12  C   UNL     1      35.269 -18.329 -21.912  0.00  0.00    +0.136 C 
BRANCH  12  14
ATOM     13  O   UNL     1      35.022 -19.404 -24.081  0.00  0.00    -0.250 OA
ATOM     14  C   UNL     1      34.900 -18.408 -23.380  0.00  0.00    +0.321 C 
BRANCH  14  15
ATOM     15  O   UNL     1      34.413 -17.198 -23.788  0.00  0.00    -0.447 OA
BRANCH  15  16
ATOM     16  C   UNL     1      34.790 -16.079 -22.980  0.00  0.00    +0.221 C 
BRANCH  16  18
ATOM     17 BR   UNL     1      32.807 -15.424 -21.037  0.00  0.00    -0.077 Br
ATOM     18  C   UNL     1      33.602 -15.158 -22.799  0.00  0.00    +0.115 C 
ENDBRANCH  16  18
ENDBRANCH  15  16
ENDBRANCH  14  15
ENDBRANCH  12  14
ENDBRANCH   1  12
TORSDOF 7
ENDMDL
MODEL 6
REMARK VINA RESULT:      -6.8      1.838      2.514
REMARK  Name = 4634717
REMARK  7 active torsions:
REMARK  status: ('A' for Active; 'I' for Inactive)
REMARK    1  A    between atoms: C_1  and  C_12
REMARK    2  A    between atoms: C_2  and  C_11
REMARK    3  A    between atoms: C_5  and  N_7
REMARK    4  A    between atoms: C_12  and  C_14
REMARK    5  A    between atoms: C_14  and  O_15
REMARK    6  A    between atoms: O_15  and  C_16
REMARK    7  A    between atoms: C_16  and  C_18
REMARK                            x       y       z     vdW  Elec       q    Type
REMARK                         _______ _______ _______ _____ _____    ______ ____
ROOT
ATOM      1  C   UNL     1      34.678 -16.072 -23.552  0.00  0.00    -0.008 C 
ATOM      2  C   UNL     1      34.320 -16.647 -24.771  0.00  0.00    +0.040 C 
ATOM      3  C   UNL     1      34.279 -14.770 -23.251  0.00  0.00    -0.002 C 
ATOM      4  C   UNL     1      33.562 -15.920 -25.689  0.00  0.00    +0.017 C 
ATOM      5  C   UNL     1      33.162 -14.618 -25.387  0.00  0.00    +0.042 C 
ATOM      6  C   UNL     1      33.520 -14.043 -24.168  0.00  0.00    +0.014 C 
ENDROOT
BRANCH   5   7
ATOM      7  N   UNL     1      32.395 -13.882 -26.315  0.00  0.00    -0.357 N 
ATOM      8  H   UNL     1      32.761 -13.059 -26.714  0.00  0.00    +0.142 HD
ATOM      9  H   UNL     1      31.494 -14.191 -26.564  0.00  0.00    +0.142 HD
ENDBRANCH   5   7
BRANCH   2  11
ATOM     10  O   UNL     1      33.948 -18.961 -25.092  0.00  0.00    -0.283 OA
ATOM     11  C   UNL     1      34.725 -18.004 -25.111  0.00  0.00    +0.234 C 
ENDBRANCH   2  11
BRANCH   1  12
ATOM     12  C   UNL     1      35.491 -16.828 -22.552  0.00  0.00    +0.136 C 
BRANCH  12  14
ATOM     13  O   UNL     1      35.050 -16.151 -20.256  0.00  0.00    -0.250 OA
ATOM     14  C   UNL     1      34.837 -16.916 -21.187  0.00  0.00    +0.321 C 
BRANCH  14  15
ATOM     15  O   UNL     1      33.978 -17.979 -21.167  0.00  0.00    -0.447 OA
BRANCH  15  16
ATOM     16  C   UNL     1      34.502 -19.204 -21.692  0.00  0.00    +0.221 C 
BRANCH  16  18
ATOM     17 BR   UNL     1      33.251 -20.976 -19.840  0.00  0.00    -0.077 Br
ATOM     18  C   UNL     1      34.861 -20.134 -20.552  0.00  0.00    +0.115 C 
ENDBRANCH  16  18
ENDBRANCH  15  16
ENDBRANCH  14  15
ENDBRANCH  12  14
ENDBRANCH   1  12
TORSDOF 7
ENDMDL
MODEL 7
REMARK VINA RESULT:      -6.8      4.894      6.657
REMARK  Name = 4634717
REMARK  7 active torsions:
REMARK  status: ('A' for Active; 'I' for Inactive)
REMARK    1  A    between atoms: C_1  and  C_12
REMARK    2  A    between atoms: C_2  and  C_11
REMARK    3  A    between atoms: C_5  and  N_7
REMARK    4  A    between atoms: C_12  and  C_14
REMARK    5  A    between atoms: C_14  and  O_15
REMARK    6  A    between atoms: O_15  and  C_16
REMARK    7  A    between atoms: C_16  and  C_18
REMARK                            x       y       z     vdW  Elec       q    Type
REMARK                         _______ _______ _______ _____ _____    ______ ____
ROOT
ATOM      1  C   UNL     1      34.441 -15.604 -23.548  0.00  0.00    -0.008 C 
ATOM      2  C   UNL     1      33.988 -16.045 -24.791  0.00  0.00    +0.040 C 
ATOM      3  C   UNL     1      35.066 -16.496 -22.677  0.00  0.00    -0.002 C 
ATOM      4  C   UNL     1      34.160 -17.377 -25.164  0.00  0.00    +0.017 C 
ATOM      5  C   UNL     1      34.786 -18.270 -24.294  0.00  0.00    +0.042 C 
ATOM      6  C   UNL     1      35.239 -17.830 -23.050  0.00  0.00    +0.014 C 
ENDROOT
BRANCH   5   7
ATOM      7  N   UNL     1      34.961 -19.618 -24.670  0.00  0.00    -0.357 N 
ATOM      8  H   UNL     1      34.947 -19.869 -25.622  0.00  0.00    +0.142 HD
ATOM      9  H   UNL     1      35.096 -20.308 -23.982  0.00  0.00    +0.142 HD
ENDBRANCH   5   7
BRANCH   2  11
ATOM     10  O   UNL     1      33.641 -15.049 -26.909  0.00  0.00    -0.283 OA
ATOM     11  C   UNL     1      33.331 -15.133 -25.719  0.00  0.00    +0.234 C 
ENDBRANCH   2  11
BRANCH   1  12
ATOM     12  C   UNL     1      34.268 -14.182 -23.123  0.00  0.00    +0.136 C 
BRANCH  12  14
ATOM     13  O   UNL     1      32.212 -14.617 -21.895  0.00  0.00    -0.250 OA
ATOM     14  C   UNL     1      32.878 -13.874 -22.603  0.00  0.00    +0.321 C 
BRANCH  14  15
ATOM     15  O   UNL     1      32.493 -12.641 -23.052  0.00  0.00    -0.447 OA
BRANCH  15  16
ATOM     16  C   UNL     1      33.468 -11.936 -23.827  0.00  0.00    +0.221 C 
BRANCH  16  18
ATOM     17 BR   UNL     1      34.824  -9.476 -24.323  0.00  0.00    -0.077 Br
ATOM     18  C   UNL     1      33.260 -10.444 -23.672  0.00  0.00    +0.115 C 
ENDBRANCH  16  18
ENDBRANCH  15  16
ENDBRANCH  14  15
ENDBRANCH  12  14
ENDBRANCH   1  12
TORSDOF 7
ENDMDL
MODEL 8
REMARK VINA RESULT:      -6.8      4.907      7.087
REMARK  Name = 4634717
REMARK  7 active torsions:
REMARK  status: ('A' for Active; 'I' for Inactive)
REMARK    1  A    between atoms: C_1  and  C_12
REMARK    2  A    between atoms: C_2  and  C_11
REMARK    3  A    between atoms: C_5  and  N_7
REMARK    4  A    between atoms: C_12  and  C_14
REMARK    5  A    between atoms: C_14  and  O_15
REMARK    6  A    between atoms: O_15  and  C_16
REMARK    7  A    between atoms: C_16  and  C_18
REMARK                            x       y       z     vdW  Elec       q    Type
REMARK                         _______ _______ _______ _____ _____    ______ ____
ROOT
ATOM      1  C   UNL     1      34.008 -15.123 -23.298  0.00  0.00    -0.008 C 
ATOM      2  C   UNL     1      34.551 -16.302 -23.806  0.00  0.00    +0.040 C 
ATOM      3  C   UNL     1      34.004 -14.892 -21.923  0.00  0.00    -0.002 C 
ATOM      4  C   UNL     1      35.091 -17.252 -22.940  0.00  0.00    +0.017 C 
ATOM      5  C   UNL     1      35.088 -17.021 -21.564  0.00  0.00    +0.042 C 
ATOM      6  C   UNL     1      34.545 -15.841 -21.055  0.00  0.00    +0.014 C 
ENDROOT
BRANCH   5   7
ATOM      7  N   UNL     1      35.634 -17.981 -20.686  0.00  0.00    -0.357 N 
ATOM      8  H   UNL     1      35.770 -18.907 -20.991  0.00  0.00    +0.142 HD
ATOM      9  H   UNL     1      35.880 -17.725 -19.768  0.00  0.00    +0.142 HD
ENDBRANCH   5   7
BRANCH   2  11
ATOM     10  O   UNL     1      33.762 -17.321 -25.790  0.00  0.00    -0.283 OA
ATOM     11  C   UNL     1      34.567 -16.568 -25.239  0.00  0.00    +0.234 C 
ENDBRANCH   2  11
BRANCH   1  12
ATOM     12  C   UNL     1      33.422 -14.090 -24.205  0.00  0.00    +0.136 C 
BRANCH  12  14
ATOM     13  O   UNL     1      32.226 -12.534 -22.765  0.00  0.00    -0.250 OA
ATOM     14  C   UNL     1      33.163 -12.763 -23.519  0.00  0.00    +0.321 C 
BRANCH  14  15
ATOM     15  O   UNL     1      34.137 -11.874 -23.876  0.00  0.00    -0.447 OA
BRANCH  15  16
ATOM     16  C   UNL     1      33.697 -10.527 -24.080  0.00  0.00    +0.221 C 
BRANCH  16  18
ATOM     17 BR   UNL     1      34.607  -7.867 -23.603  0.00  0.00    -0.077 Br
ATOM     18  C   UNL     1      34.889  -9.639 -24.368  0.00  0.00    +0.115 C 
ENDBRANCH  16  18
ENDBRANCH  15  16
ENDBRANCH  14  15
ENDBRANCH  12  14
ENDBRANCH   1  12
TORSDOF 7
ENDMDL
MODEL 9
REMARK VINA RESULT:      -6.7      2.102      2.842
REMARK  Name = 4634717
REMARK  7 active torsions:
REMARK  status: ('A' for Active; 'I' for Inactive)
REMARK    1  A    between atoms: C_1  and  C_12
REMARK    2  A    between atoms: C_2  and  C_11
REMARK    3  A    between atoms: C_5  and  N_7
REMARK    4  A    between atoms: C_12  and  C_14
REMARK    5  A    between atoms: C_14  and  O_15
REMARK    6  A    between atoms: O_15  and  C_16
REMARK    7  A    between atoms: C_16  and  C_18
REMARK                            x       y       z     vdW  Elec       q    Type
REMARK                         _______ _______ _______ _____ _____    ______ ____
ROOT
ATOM      1  C   UNL     1      34.998 -18.204 -22.578  0.00  0.00    -0.008 C 
ATOM      2  C   UNL     1      34.712 -16.873 -22.272  0.00  0.00    +0.040 C 
ATOM      3  C   UNL     1      34.883 -18.657 -23.891  0.00  0.00    -0.002 C 
ATOM      4  C   UNL     1      34.311 -15.997 -23.279  0.00  0.00    +0.017 C 
ATOM      5  C   UNL     1      34.198 -16.450 -24.594  0.00  0.00    +0.042 C 
ATOM      6  C   UNL     1      34.483 -17.781 -24.900  0.00  0.00    +0.014 C 
ENDROOT
BRANCH   5   7
ATOM      7  N   UNL     1      33.792 -15.563 -25.614  0.00  0.00    -0.357 N 
ATOM      8  H   UNL     1      33.264 -14.763 -25.390  0.00  0.00    +0.142 HD
ATOM      9  H   UNL     1      34.038 -15.744 -26.550  0.00  0.00    +0.142 HD
ENDBRANCH   5   7
BRANCH   2  11
ATOM     10  O   UNL     1      34.882 -15.174 -20.635  0.00  0.00    -0.283 OA
ATOM     11  C   UNL     1      34.823 -16.374 -20.908  0.00  0.00    +0.234 C 
ENDBRANCH   2  11
BRANCH   1  12
ATOM     12  C   UNL     1      35.427 -19.164 -21.517  0.00  0.00    +0.136 C 
BRANCH  12  14
ATOM     13  O   UNL     1      33.090 -19.721 -21.128  0.00  0.00    -0.250 OA
ATOM     14  C   UNL     1      34.272 -19.894 -20.861  0.00  0.00    +0.321 C 
BRANCH  14  15
ATOM     15  O   UNL     1      34.761 -20.767 -19.931  0.00  0.00    -0.447 OA
BRANCH  15  16
ATOM     16  C   UNL     1      33.815 -21.706 -19.410  0.00  0.00    +0.221 C 
BRANCH  16  18
ATOM     17 BR   UNL     1      33.078 -23.284 -17.151  0.00  0.00    -0.077 Br
ATOM     18  C   UNL     1      34.454 -22.508 -18.296  0.00  0.00    +0.115 C 
ENDBRANCH  16  18
ENDBRANCH  15  16
ENDBRANCH  14  15
ENDBRANCH  12  14
ENDBRANCH   1  12
TORSDOF 7
ENDMDL
