MODEL 1
REMARK VINA RESULT:      -9.0      0.000      0.000
REMARK  Name = 13804
REMARK  13 active torsions:
REMARK  status: ('A' for Active; 'I' for Inactive)
REMARK    1  A    between atoms: C_2  and  O_16
REMARK    2  A    between atoms: C_3  and  O_18
REMARK    3  A    between atoms: C_4  and  C_20
REMARK    4  A    between atoms: C_5  and  N_7
REMARK    5  A    between atoms: C_20  and  O_21
REMARK    6  A    between atoms: O_21  and  P_22
REMARK    7  A    between atoms: P_22  and  O_24
REMARK    8  A    between atoms: P_22  and  O_26
REMARK    9  A    between atoms: O_26  and  P_27
REMARK   10  A    between atoms: P_27  and  O_30
REMARK   11  A    between atoms: O_30  and  C_31
REMARK   12  A    between atoms: C_31  and  C_32
REMARK   13  A    between atoms: C_32  and  N_33
REMARK                            x       y       z     vdW  Elec       q    Type
REMARK                         _______ _______ _______ _____ _____    ______ ____
ROOT
ATOM      1  O   UNL     1      34.816 -25.176 -15.129  0.00  0.00    -0.332 OA
ATOM      2  C   UNL     1      33.480 -23.999 -13.566  0.00  0.00    +0.171 C 
ATOM      3  C   UNL     1      34.828 -24.278 -12.936  0.00  0.00    +0.188 C 
ATOM      4  C   UNL     1      33.779 -24.174 -15.049  0.00  0.00    +0.176 C 
ATOM      5  C   UNL     1      35.364 -25.392 -13.818  0.00  0.00    +0.236 C 
ENDROOT
BRANCH   5   7
ATOM      6  O   UNL     1      37.114 -26.584 -11.960  0.00  0.00    -0.193 OA
ATOM      7  N   UNL     1      36.796 -25.381 -13.904  0.00  0.00    -0.178 N 
ATOM      8  N   UNL     1      38.989 -25.955 -13.075  0.00  0.00    -0.306 NA
ATOM      9  N   UNL     1      40.907 -25.308 -14.221  0.00  0.00    -0.332 N 
ATOM     10  C   UNL     1      37.395 -24.738 -14.977  0.00  0.00    +0.083 C 
ATOM     11  C   UNL     1      37.613 -26.006 -12.927  0.00  0.00    +0.276 C 
ATOM     12  C   UNL     1      38.715 -24.678 -15.136  0.00  0.00    +0.065 C 
ATOM     13  C   UNL     1      39.537 -25.346 -14.092  0.00  0.00    +0.193 C 
ATOM     14  H   UNL     1      41.476 -25.741 -13.545  0.00  0.00    +0.145 HD
ATOM     15  H   UNL     1      41.316 -24.847 -14.988  0.00  0.00    +0.145 HD
ENDBRANCH   5   7
BRANCH   2  16
ATOM     16  O   UNL     1      32.539 -25.004 -13.186  0.00  0.00    -0.379 OA
ATOM     17  H   UNL     1      32.302 -25.534 -13.963  0.00  0.00    +0.211 HD
ENDBRANCH   2  16
BRANCH   3  18
ATOM     18  O   UNL     1      34.717 -24.663 -11.581  0.00  0.00    -0.378 OA
ATOM     19  H   UNL     1      34.528 -23.881 -11.037  0.00  0.00    +0.211 HD
ENDBRANCH   3  18
BRANCH   4  20
ATOM     20  C   UNL     1      34.293 -22.904 -15.712  0.00  0.00    +0.186 C 
BRANCH  20  21
ATOM     21  O   UNL     1      34.662 -23.205 -17.047  0.00  0.00    -0.270 OA
BRANCH  21  22
ATOM     22  P   UNL     1      33.657 -22.849 -18.264  0.00  0.00    +0.484 P 
ATOM     23  O   UNL     1      32.217 -22.697 -17.865  0.00  0.00    -0.227 OA
BRANCH  22  24
ATOM     24  O   UNL     1      33.924 -24.010 -19.358  0.00  0.00    -0.302 OA
ATOM     25  H   UNL     1      33.133 -24.124 -19.908  0.00  0.00    +0.222 HD
ENDBRANCH  22  24
BRANCH  22  26
ATOM     26  O   UNL     1      34.301 -21.535 -18.953  0.00  0.00    -0.184 OA
BRANCH  26  27
ATOM     27  P   UNL     1      35.815 -21.231 -19.483  0.00  0.00    +0.514 P 
ATOM     28  O   UNL     1      36.170 -22.256 -20.538  0.00  0.00    -0.224 OA
ATOM     29  O   UNL     1      36.712 -21.018 -18.282  0.00  0.00    -0.116 OA
BRANCH  27  30
ATOM     30  O   UNL     1      35.566 -19.780 -20.197  0.00  0.00    -0.274 OA
BRANCH  30  31
ATOM     31  C   UNL     1      34.410 -19.592 -20.997  0.00  0.00    +0.132 C 
BRANCH  31  32
ATOM     32  C   UNL     1      34.333 -18.146 -21.446  0.00  0.00    -0.040 C 
BRANCH  32  33
ATOM     33  N   UNL     1      35.074 -17.989 -22.723  0.00  0.00    +0.387 N 
ATOM     34  C   UNL     1      34.855 -16.588 -23.310  0.00  0.00    -0.096 C 
ATOM     35  C   UNL     1      34.602 -19.021 -23.756  0.00  0.00    -0.096 C 
ATOM     36  C   UNL     1      36.580 -18.185 -22.506  0.00  0.00    -0.096 C 
ENDBRANCH  32  33
ENDBRANCH  31  32
ENDBRANCH  30  31
ENDBRANCH  27  30
ENDBRANCH  26  27
ENDBRANCH  22  26
ENDBRANCH  21  22
ENDBRANCH  20  21
ENDBRANCH   4  20
TORSDOF 13
ENDMDL
MODEL 2
REMARK VINA RESULT:      -8.7      6.740     10.735
REMARK  Name = 13804
REMARK  13 active torsions:
REMARK  status: ('A' for Active; 'I' for Inactive)
REMARK    1  A    between atoms: C_2  and  O_16
REMARK    2  A    between atoms: C_3  and  O_18
REMARK    3  A    between atoms: C_4  and  C_20
REMARK    4  A    between atoms: C_5  and  N_7
REMARK    5  A    between atoms: C_20  and  O_21
REMARK    6  A    between atoms: O_21  and  P_22
REMARK    7  A    between atoms: P_22  and  O_24
REMARK    8  A    between atoms: P_22  and  O_26
REMARK    9  A    between atoms: O_26  and  P_27
REMARK   10  A    between atoms: P_27  and  O_30
REMARK   11  A    between atoms: O_30  and  C_31
REMARK   12  A    between atoms: C_31  and  C_32
REMARK   13  A    between atoms: C_32  and  N_33
REMARK                            x       y       z     vdW  Elec       q    Type
REMARK                         _______ _______ _______ _____ _____    ______ ____
ROOT
ATOM      1  O   UNL     1      35.200 -17.015 -21.007  0.00  0.00    -0.332 OA
ATOM      2  C   UNL     1      34.651 -16.432 -23.237  0.00  0.00    +0.171 C 
ATOM      3  C   UNL     1      34.432 -17.919 -23.059  0.00  0.00    +0.188 C 
ATOM      4  C   UNL     1      34.654 -15.936 -21.797  0.00  0.00    +0.176 C 
ATOM      5  C   UNL     1      35.240 -18.209 -21.806  0.00  0.00    +0.236 C 
ENDROOT
BRANCH   5   7
ATOM      6  O   UNL     1      36.741 -19.999 -20.232  0.00  0.00    -0.193 OA
ATOM      7  N   UNL     1      34.698 -19.298 -21.044  0.00  0.00    -0.178 N 
ATOM      8  N   UNL     1      34.927 -21.189 -19.563  0.00  0.00    -0.306 NA
ATOM      9  N   UNL     1      33.065 -22.405 -18.882  0.00  0.00    -0.332 N 
ATOM     10  C   UNL     1      33.328 -19.510 -21.068  0.00  0.00    +0.083 C 
ATOM     11  C   UNL     1      35.520 -20.159 -20.273  0.00  0.00    +0.276 C 
ATOM     12  C   UNL     1      32.740 -20.495 -20.392  0.00  0.00    +0.065 C 
ATOM     13  C   UNL     1      33.634 -21.375 -19.595  0.00  0.00    +0.193 C 
ATOM     14  H   UNL     1      33.632 -23.004 -18.345  0.00  0.00    +0.145 HD
ATOM     15  H   UNL     1      32.091 -22.542 -18.908  0.00  0.00    +0.145 HD
ENDBRANCH   5   7
BRANCH   2  16
ATOM     16  O   UNL     1      35.943 -16.185 -23.791  0.00  0.00    -0.379 OA
ATOM     17  H   UNL     1      36.382 -15.484 -23.285  0.00  0.00    +0.211 HD
ENDBRANCH   2  16
BRANCH   3  18
ATOM     18  O   UNL     1      34.874 -18.664 -24.175  0.00  0.00    -0.378 OA
ATOM     19  H   UNL     1      34.116 -18.876 -24.743  0.00  0.00    +0.211 HD
ENDBRANCH   3  18
BRANCH   4  20
ATOM     20  C   UNL     1      33.263 -15.615 -21.268  0.00  0.00    +0.186 C 
BRANCH  20  21
ATOM     21  O   UNL     1      33.193 -14.228 -20.988  0.00  0.00    -0.270 OA
BRANCH  21  22
ATOM     22  P   UNL     1      32.465 -13.227 -22.030  0.00  0.00    +0.484 P 
ATOM     23  O   UNL     1      31.388 -12.370 -21.429  0.00  0.00    -0.227 OA
BRANCH  22  24
ATOM     24  O   UNL     1      31.957 -14.192 -23.225  0.00  0.00    -0.302 OA
ATOM     25  H   UNL     1      31.018 -14.021 -23.401  0.00  0.00    +0.222 HD
ENDBRANCH  22  24
BRANCH  22  26
ATOM     26  O   UNL     1      33.674 -12.398 -22.712  0.00  0.00    -0.184 OA
BRANCH  26  27
ATOM     27  P   UNL     1      33.720 -11.472 -24.056  0.00  0.00    +0.514 P 
ATOM     28  O   UNL     1      33.634 -12.376 -25.266  0.00  0.00    -0.224 OA
ATOM     29  O   UNL     1      34.851 -10.476 -23.916  0.00  0.00    -0.116 OA
BRANCH  27  30
ATOM     30  O   UNL     1      32.306 -10.667 -23.878  0.00  0.00    -0.274 OA
BRANCH  30  31
ATOM     31  C   UNL     1      32.329  -9.264 -23.676  0.00  0.00    +0.132 C 
BRANCH  31  32
ATOM     32  C   UNL     1      31.826  -8.943 -22.283  0.00  0.00    -0.040 C 
BRANCH  32  33
ATOM     33  N   UNL     1      32.360  -7.624 -21.860  0.00  0.00    +0.387 N 
ATOM     34  C   UNL     1      31.393  -6.496 -22.248  0.00  0.00    -0.096 C 
ATOM     35  C   UNL     1      33.713  -7.345 -22.529  0.00  0.00    -0.096 C 
ATOM     36  C   UNL     1      32.560  -7.579 -20.340  0.00  0.00    -0.096 C 
ENDBRANCH  32  33
ENDBRANCH  31  32
ENDBRANCH  30  31
ENDBRANCH  27  30
ENDBRANCH  26  27
ENDBRANCH  22  26
ENDBRANCH  21  22
ENDBRANCH  20  21
ENDBRANCH   4  20
TORSDOF 13
ENDMDL
MODEL 3
REMARK VINA RESULT:      -8.7      7.043     10.852
REMARK  Name = 13804
REMARK  13 active torsions:
REMARK  status: ('A' for Active; 'I' for Inactive)
REMARK    1  A    between atoms: C_2  and  O_16
REMARK    2  A    between atoms: C_3  and  O_18
REMARK    3  A    between atoms: C_4  and  C_20
REMARK    4  A    between atoms: C_5  and  N_7
REMARK    5  A    between atoms: C_20  and  O_21
REMARK    6  A    between atoms: O_21  and  P_22
REMARK    7  A    between atoms: P_22  and  O_24
REMARK    8  A    between atoms: P_22  and  O_26
REMARK    9  A    between atoms: O_26  and  P_27
REMARK   10  A    between atoms: P_27  and  O_30
REMARK   11  A    between atoms: O_30  and  C_31
REMARK   12  A    between atoms: C_31  and  C_32
REMARK   13  A    between atoms: C_32  and  N_33
REMARK                            x       y       z     vdW  Elec       q    Type
REMARK                         _______ _______ _______ _____ _____    ______ ____
ROOT
ATOM      1  O   UNL     1      35.286 -17.274 -20.814  0.00  0.00    -0.332 OA
ATOM      2  C   UNL     1      34.700 -16.672 -23.029  0.00  0.00    +0.171 C 
ATOM      3  C   UNL     1      34.443 -18.152 -22.847  0.00  0.00    +0.188 C 
ATOM      4  C   UNL     1      34.752 -16.178 -21.590  0.00  0.00    +0.176 C 
ATOM      5  C   UNL     1      35.273 -18.467 -21.614  0.00  0.00    +0.236 C 
ENDROOT
BRANCH   5   7
ATOM      6  O   UNL     1      36.765 -20.411 -20.226  0.00  0.00    -0.193 OA
ATOM      7  N   UNL     1      34.718 -19.541 -20.841  0.00  0.00    -0.178 N 
ATOM      8  N   UNL     1      34.931 -21.494 -19.439  0.00  0.00    -0.306 NA
ATOM      9  N   UNL     1      33.049 -22.600 -18.636  0.00  0.00    -0.332 N 
ATOM     10  C   UNL     1      33.339 -19.656 -20.753  0.00  0.00    +0.083 C 
ATOM     11  C   UNL     1      35.536 -20.483 -20.167  0.00  0.00    +0.276 C 
ATOM     12  C   UNL     1      32.739 -20.621 -20.059  0.00  0.00    +0.065 C 
ATOM     13  C   UNL     1      33.631 -21.588 -19.366  0.00  0.00    +0.193 C 
ATOM     14  H   UNL     1      33.614 -23.255 -18.167  0.00  0.00    +0.145 HD
ATOM     15  H   UNL     1      32.069 -22.668 -18.584  0.00  0.00    +0.145 HD
ENDBRANCH   5   7
BRANCH   2  16
ATOM     16  O   UNL     1      35.985 -16.461 -23.614  0.00  0.00    -0.379 OA
ATOM     17  H   UNL     1      36.563 -16.019 -22.972  0.00  0.00    +0.211 HD
ENDBRANCH   2  16
BRANCH   3  18
ATOM     18  O   UNL     1      34.836 -18.908 -23.974  0.00  0.00    -0.378 OA
ATOM     19  H   UNL     1      35.656 -18.539 -24.341  0.00  0.00    +0.211 HD
ENDBRANCH   3  18
BRANCH   4  20
ATOM     20  C   UNL     1      33.384 -15.818 -21.027  0.00  0.00    +0.186 C 
BRANCH  20  21
ATOM     21  O   UNL     1      33.299 -14.409 -20.906  0.00  0.00    -0.270 OA
BRANCH  21  22
ATOM     22  P   UNL     1      32.889 -13.511 -22.188  0.00  0.00    +0.484 P 
ATOM     23  O   UNL     1      31.947 -14.179 -23.147  0.00  0.00    -0.227 OA
BRANCH  22  24
ATOM     24  O   UNL     1      34.303 -13.074 -22.840  0.00  0.00    -0.302 OA
ATOM     25  H   UNL     1      34.689 -13.830 -23.312  0.00  0.00    +0.222 HD
ENDBRANCH  22  24
BRANCH  22  26
ATOM     26  O   UNL     1      32.331 -12.130 -21.557  0.00  0.00    -0.184 OA
BRANCH  26  27
ATOM     27  P   UNL     1      31.890 -10.726 -22.263  0.00  0.00    +0.514 P 
ATOM     28  O   UNL     1      30.392 -10.746 -22.478  0.00  0.00    -0.224 OA
ATOM     29  O   UNL     1      32.830 -10.451 -23.416  0.00  0.00    -0.116 OA
BRANCH  27  30
ATOM     30  O   UNL     1      32.250  -9.688 -21.051  0.00  0.00    -0.274 OA
BRANCH  30  31
ATOM     31  C   UNL     1      32.780  -8.411 -21.368  0.00  0.00    +0.132 C 
BRANCH  31  32
ATOM     32  C   UNL     1      31.647  -7.457 -21.691  0.00  0.00    -0.040 C 
BRANCH  32  33
ATOM     33  N   UNL     1      31.912  -6.808 -23.000  0.00  0.00    +0.387 N 
ATOM     34  C   UNL     1      33.375  -7.006 -23.420  0.00  0.00    -0.096 C 
ATOM     35  C   UNL     1      31.636  -5.299 -22.924  0.00  0.00    -0.096 C 
ATOM     36  C   UNL     1      31.016  -7.403 -24.094  0.00  0.00    -0.096 C 
ENDBRANCH  32  33
ENDBRANCH  31  32
ENDBRANCH  30  31
ENDBRANCH  27  30
ENDBRANCH  26  27
ENDBRANCH  22  26
ENDBRANCH  21  22
ENDBRANCH  20  21
ENDBRANCH   4  20
TORSDOF 13
ENDMDL
MODEL 4
REMARK VINA RESULT:      -8.5      2.838      8.346
REMARK  Name = 13804
REMARK  13 active torsions:
REMARK  status: ('A' for Active; 'I' for Inactive)
REMARK    1  A    between atoms: C_2  and  O_16
REMARK    2  A    between atoms: C_3  and  O_18
REMARK    3  A    between atoms: C_4  and  C_20
REMARK    4  A    between atoms: C_5  and  N_7
REMARK    5  A    between atoms: C_20  and  O_21
REMARK    6  A    between atoms: O_21  and  P_22
REMARK    7  A    between atoms: P_22  and  O_24
REMARK    8  A    between atoms: P_22  and  O_26
REMARK    9  A    between atoms: O_26  and  P_27
REMARK   10  A    between atoms: P_27  and  O_30
REMARK   11  A    between atoms: O_30  and  C_31
REMARK   12  A    between atoms: C_31  and  C_32
REMARK   13  A    between atoms: C_32  and  N_33
REMARK                            x       y       z     vdW  Elec       q    Type
REMARK                         _______ _______ _______ _____ _____    ______ ____
ROOT
ATOM      1  O   UNL     1      33.128 -23.168 -18.637  0.00  0.00    -0.332 OA
ATOM      2  C   UNL     1      33.994 -23.379 -16.441  0.00  0.00    +0.171 C 
ATOM      3  C   UNL     1      34.811 -22.345 -17.186  0.00  0.00    +0.188 C 
ATOM      4  C   UNL     1      32.722 -23.442 -17.277  0.00  0.00    +0.176 C 
ATOM      5  C   UNL     1      34.470 -22.656 -18.634  0.00  0.00    +0.236 C 
ENDROOT
BRANCH   5   7
ATOM      6  O   UNL     1      36.834 -21.420 -19.540  0.00  0.00    -0.193 OA
ATOM      7  N   UNL     1      34.528 -21.493 -19.471  0.00  0.00    -0.178 N 
ATOM      8  N   UNL     1      35.738 -19.803 -20.698  0.00  0.00    -0.306 NA
ATOM      9  N   UNL     1      34.611 -18.149 -21.882  0.00  0.00    -0.332 N 
ATOM     10  C   UNL     1      33.340 -20.908 -19.883  0.00  0.00    +0.083 C 
ATOM     11  C   UNL     1      35.759 -20.927 -19.889  0.00  0.00    +0.276 C 
ATOM     12  C   UNL     1      33.299 -19.828 -20.660  0.00  0.00    +0.065 C 
ATOM     13  C   UNL     1      34.610 -19.265 -21.077  0.00  0.00    +0.193 C 
ATOM     14  H   UNL     1      35.464 -17.754 -22.174  0.00  0.00    +0.145 HD
ATOM     15  H   UNL     1      33.759 -17.746 -22.166  0.00  0.00    +0.145 HD
ENDBRANCH   5   7
BRANCH   2  16
ATOM     16  O   UNL     1      34.629 -24.655 -16.510  0.00  0.00    -0.379 OA
ATOM     17  H   UNL     1      33.959 -25.342 -16.656  0.00  0.00    +0.211 HD
ENDBRANCH   2  16
BRANCH   3  18
ATOM     18  O   UNL     1      36.194 -22.459 -16.917  0.00  0.00    -0.378 OA
ATOM     19  H   UNL     1      36.362 -23.284 -16.435  0.00  0.00    +0.211 HD
ENDBRANCH   3  18
BRANCH   4  20
ATOM     20  C   UNL     1      31.684 -22.405 -16.873  0.00  0.00    +0.186 C 
BRANCH  20  21
ATOM     21  O   UNL     1      30.394 -22.969 -17.027  0.00  0.00    -0.270 OA
BRANCH  21  22
ATOM     22  P   UNL     1      29.494 -23.299 -15.724  0.00  0.00    +0.484 P 
ATOM     23  O   UNL     1      28.739 -24.596 -15.795  0.00  0.00    -0.227 OA
BRANCH  22  24
ATOM     24  O   UNL     1      28.556 -21.994 -15.543  0.00  0.00    -0.302 OA
ATOM     25  H   UNL     1      28.227 -21.709 -16.410  0.00  0.00    +0.222 HD
ENDBRANCH  22  24
BRANCH  22  26
ATOM     26  O   UNL     1      30.522 -23.193 -14.480  0.00  0.00    -0.184 OA
BRANCH  26  27
ATOM     27  P   UNL     1      31.200 -24.346 -13.544  0.00  0.00    +0.514 P 
ATOM     28  O   UNL     1      31.470 -25.564 -14.402  0.00  0.00    -0.224 OA
ATOM     29  O   UNL     1      30.396 -24.466 -12.268  0.00  0.00    -0.116 OA
BRANCH  27  30
ATOM     30  O   UNL     1      32.616 -23.608 -13.189  0.00  0.00    -0.274 OA
BRANCH  30  31
ATOM     31  C   UNL     1      33.767 -24.399 -12.944  0.00  0.00    +0.132 C 
BRANCH  31  32
ATOM     32  C   UNL     1      35.013 -23.556 -13.133  0.00  0.00    -0.040 C 
BRANCH  32  33
ATOM     33  N   UNL     1      36.114 -24.117 -12.309  0.00  0.00    +0.387 N 
ATOM     34  C   UNL     1      36.704 -25.371 -12.971  0.00  0.00    -0.096 C 
ATOM     35  C   UNL     1      35.606 -24.506 -10.914  0.00  0.00    -0.096 C 
ATOM     36  C   UNL     1      37.242 -23.092 -12.139  0.00  0.00    -0.096 C 
ENDBRANCH  32  33
ENDBRANCH  31  32
ENDBRANCH  30  31
ENDBRANCH  27  30
ENDBRANCH  26  27
ENDBRANCH  22  26
ENDBRANCH  21  22
ENDBRANCH  20  21
ENDBRANCH   4  20
TORSDOF 13
ENDMDL
MODEL 5
REMARK VINA RESULT:      -8.4      1.998      2.859
REMARK  Name = 13804
REMARK  13 active torsions:
REMARK  status: ('A' for Active; 'I' for Inactive)
REMARK    1  A    between atoms: C_2  and  O_16
REMARK    2  A    between atoms: C_3  and  O_18
REMARK    3  A    between atoms: C_4  and  C_20
REMARK    4  A    between atoms: C_5  and  N_7
REMARK    5  A    between atoms: C_20  and  O_21
REMARK    6  A    between atoms: O_21  and  P_22
REMARK    7  A    between atoms: P_22  and  O_24
REMARK    8  A    between atoms: P_22  and  O_26
REMARK    9  A    between atoms: O_26  and  P_27
REMARK   10  A    between atoms: P_27  and  O_30
REMARK   11  A    between atoms: O_30  and  C_31
REMARK   12  A    between atoms: C_31  and  C_32
REMARK   13  A    between atoms: C_32  and  N_33
REMARK                            x       y       z     vdW  Elec       q    Type
REMARK                         _______ _______ _______ _____ _____    ______ ____
ROOT
ATOM      1  O   UNL     1      34.892 -24.657 -16.235  0.00  0.00    -0.332 OA
ATOM      2  C   UNL     1      33.693 -23.014 -15.020  0.00  0.00    +0.171 C 
ATOM      3  C   UNL     1      34.761 -23.596 -14.120  0.00  0.00    +0.188 C 
ATOM      4  C   UNL     1      34.195 -23.403 -16.404  0.00  0.00    +0.176 C 
ATOM      5  C   UNL     1      35.103 -24.893 -14.834  0.00  0.00    +0.236 C 
ENDROOT
BRANCH   5   7
ATOM      6  O   UNL     1      36.303 -27.210 -15.897  0.00  0.00    -0.193 OA
ATOM      7  N   UNL     1      36.466 -25.289 -14.627  0.00  0.00    -0.178 N 
ATOM      8  N   UNL     1      38.327 -26.791 -14.956  0.00  0.00    -0.306 NA
ATOM      9  N   UNL     1      40.397 -26.358 -13.988  0.00  0.00    -0.332 N 
ATOM     10  C   UNL     1      37.282 -24.487 -13.844  0.00  0.00    +0.083 C 
ATOM     11  C   UNL     1      37.001 -26.472 -15.198  0.00  0.00    +0.276 C 
ATOM     12  C   UNL     1      38.558 -24.776 -13.600  0.00  0.00    +0.065 C 
ATOM     13  C   UNL     1      39.082 -26.023 -14.216  0.00  0.00    +0.193 C 
ATOM     14  H   UNL     1      40.771 -27.179 -14.384  0.00  0.00    +0.145 HD
ATOM     15  H   UNL     1      40.963 -25.778 -13.431  0.00  0.00    +0.145 HD
ENDBRANCH   5   7
BRANCH   2  16
ATOM     16  O   UNL     1      32.447 -23.677 -14.802  0.00  0.00    -0.379 OA
ATOM     17  H   UNL     1      32.123 -23.472 -13.911  0.00  0.00    +0.211 HD
ENDBRANCH   2  16
BRANCH   3  18
ATOM     18  O   UNL     1      34.297 -23.808 -12.802  0.00  0.00    -0.378 OA
ATOM     19  H   UNL     1      34.719 -24.600 -12.434  0.00  0.00    +0.211 HD
ENDBRANCH   3  18
BRANCH   4  20
ATOM     20  C   UNL     1      35.170 -22.394 -16.995  0.00  0.00    +0.186 C 
BRANCH  20  21
ATOM     21  O   UNL     1      34.661 -21.945 -18.239  0.00  0.00    -0.270 OA
BRANCH  21  22
ATOM     22  P   UNL     1      35.676 -21.459 -19.401  0.00  0.00    +0.484 P 
ATOM     23  O   UNL     1      36.046 -22.522 -20.395  0.00  0.00    -0.227 OA
BRANCH  22  24
ATOM     24  O   UNL     1      36.933 -20.831 -18.600  0.00  0.00    -0.302 OA
ATOM     25  H   UNL     1      36.680 -19.973 -18.224  0.00  0.00    +0.222 HD
ENDBRANCH  22  24
BRANCH  22  26
ATOM     26  O   UNL     1      34.963 -20.159 -20.048  0.00  0.00    -0.184 OA
BRANCH  26  27
ATOM     27  P   UNL     1      35.461 -19.127 -21.211  0.00  0.00    +0.514 P 
ATOM     28  O   UNL     1      34.836 -19.545 -22.525  0.00  0.00    -0.224 OA
ATOM     29  O   UNL     1      36.959 -18.953 -21.091  0.00  0.00    -0.116 OA
BRANCH  27  30
ATOM     30  O   UNL     1      34.744 -17.755 -20.681  0.00  0.00    -0.274 OA
BRANCH  30  31
ATOM     31  C   UNL     1      34.965 -16.543 -21.382  0.00  0.00    +0.132 C 
BRANCH  31  32
ATOM     32  C   UNL     1      34.405 -15.384 -20.582  0.00  0.00    -0.040 C 
BRANCH  32  33
ATOM     33  N   UNL     1      33.096 -14.979 -21.157  0.00  0.00    +0.387 N 
ATOM     34  C   UNL     1      31.964 -15.855 -20.601  0.00  0.00    -0.096 C 
ATOM     35  C   UNL     1      33.106 -15.122 -22.685  0.00  0.00    -0.096 C 
ATOM     36  C   UNL     1      32.781 -13.517 -20.815  0.00  0.00    -0.096 C 
ENDBRANCH  32  33
ENDBRANCH  31  32
ENDBRANCH  30  31
ENDBRANCH  27  30
ENDBRANCH  26  27
ENDBRANCH  22  26
ENDBRANCH  21  22
ENDBRANCH  20  21
ENDBRANCH   4  20
TORSDOF 13
ENDMDL
MODEL 6
REMARK VINA RESULT:      -8.4      9.450     13.246
REMARK  Name = 13804
REMARK  13 active torsions:
REMARK  status: ('A' for Active; 'I' for Inactive)
REMARK    1  A    between atoms: C_2  and  O_16
REMARK    2  A    between atoms: C_3  and  O_18
REMARK    3  A    between atoms: C_4  and  C_20
REMARK    4  A    between atoms: C_5  and  N_7
REMARK    5  A    between atoms: C_20  and  O_21
REMARK    6  A    between atoms: O_21  and  P_22
REMARK    7  A    between atoms: P_22  and  O_24
REMARK    8  A    between atoms: P_22  and  O_26
REMARK    9  A    between atoms: O_26  and  P_27
REMARK   10  A    between atoms: P_27  and  O_30
REMARK   11  A    between atoms: O_30  and  C_31
REMARK   12  A    between atoms: C_31  and  C_32
REMARK   13  A    between atoms: C_32  and  N_33
REMARK                            x       y       z     vdW  Elec       q    Type
REMARK                         _______ _______ _______ _____ _____    ______ ____
ROOT
ATOM      1  O   UNL     1      34.467 -14.133 -22.608  0.00  0.00    -0.332 OA
ATOM      2  C   UNL     1      32.921 -13.555 -24.309  0.00  0.00    +0.171 C 
ATOM      3  C   UNL     1      33.261 -15.024 -24.444  0.00  0.00    +0.188 C 
ATOM      4  C   UNL     1      33.347 -13.260 -22.877  0.00  0.00    +0.176 C 
ATOM      5  C   UNL     1      34.550 -15.124 -23.645  0.00  0.00    +0.236 C 
ENDROOT
BRANCH   5   7
ATOM      6  O   UNL     1      35.000 -17.525 -25.049  0.00  0.00    -0.193 OA
ATOM      7  N   UNL     1      34.721 -16.416 -23.044  0.00  0.00    -0.178 N 
ATOM      8  N   UNL     1      35.104 -18.796 -23.170  0.00  0.00    -0.306 NA
ATOM      9  N   UNL     1      35.208 -20.092 -21.241  0.00  0.00    -0.332 N 
ATOM     10  C   UNL     1      34.665 -16.520 -21.663  0.00  0.00    +0.083 C 
ATOM     11  C   UNL     1      34.946 -17.582 -23.819  0.00  0.00    +0.276 C 
ATOM     12  C   UNL     1      34.814 -17.677 -21.021  0.00  0.00    +0.065 C 
ATOM     13  C   UNL     1      35.048 -18.876 -21.867  0.00  0.00    +0.193 C 
ATOM     14  H   UNL     1      35.365 -20.903 -21.776  0.00  0.00    +0.145 HD
ATOM     15  H   UNL     1      35.166 -20.149 -20.260  0.00  0.00    +0.145 HD
ENDBRANCH   5   7
BRANCH   2  16
ATOM     16  O   UNL     1      33.739 -12.775 -25.181  0.00  0.00    -0.379 OA
ATOM     17  H   UNL     1      34.672 -12.998 -25.033  0.00  0.00    +0.211 HD
ENDBRANCH   2  16
BRANCH   3  18
ATOM     18  O   UNL     1      33.426 -15.414 -25.792  0.00  0.00    -0.378 OA
ATOM     19  H   UNL     1      33.771 -16.321 -25.826  0.00  0.00    +0.211 HD
ENDBRANCH   3  18
BRANCH   4  20
ATOM     20  C   UNL     1      32.260 -13.553 -21.853  0.00  0.00    +0.186 C 
BRANCH  20  21
ATOM     21  O   UNL     1      32.291 -12.547 -20.856  0.00  0.00    -0.270 OA
BRANCH  21  22
ATOM     22  P   UNL     1      31.385 -11.217 -21.020  0.00  0.00    +0.484 P 
ATOM     23  O   UNL     1      30.524 -10.894 -19.832  0.00  0.00    -0.227 OA
BRANCH  22  24
ATOM     24  O   UNL     1      30.562 -11.458 -22.391  0.00  0.00    -0.302 OA
ATOM     25  H   UNL     1      30.651 -12.386 -22.662  0.00  0.00    +0.222 HD
ENDBRANCH  22  24
BRANCH  22  26
ATOM     26  O   UNL     1      32.436 -10.054 -21.418  0.00  0.00    -0.184 OA
BRANCH  26  27
ATOM     27  P   UNL     1      32.619  -9.195 -22.795  0.00  0.00    +0.514 P 
ATOM     28  O   UNL     1      32.928 -10.155 -23.923  0.00  0.00    -0.224 OA
ATOM     29  O   UNL     1      33.530  -8.020 -22.512  0.00  0.00    -0.116 OA
BRANCH  27  30
ATOM     30  O   UNL     1      31.093  -8.629 -22.966  0.00  0.00    -0.274 OA
BRANCH  30  31
ATOM     31  C   UNL     1      30.866  -7.230 -22.928  0.00  0.00    +0.132 C 
BRANCH  31  32
ATOM     32  C   UNL     1      30.875  -6.676 -24.339  0.00  0.00    -0.040 C 
BRANCH  32  33
ATOM     33  N   UNL     1      31.660  -5.415 -24.365  0.00  0.00    +0.387 N 
ATOM     34  C   UNL     1      31.957  -4.929 -22.939  0.00  0.00    -0.096 C 
ATOM     35  C   UNL     1      30.887  -4.309 -25.096  0.00  0.00    -0.096 C 
ATOM     36  C   UNL     1      32.997  -5.621 -25.087  0.00  0.00    -0.096 C 
ENDBRANCH  32  33
ENDBRANCH  31  32
ENDBRANCH  30  31
ENDBRANCH  27  30
ENDBRANCH  26  27
ENDBRANCH  22  26
ENDBRANCH  21  22
ENDBRANCH  20  21
ENDBRANCH   4  20
TORSDOF 13
ENDMDL
MODEL 7
REMARK VINA RESULT:      -8.2      6.530     13.499
REMARK  Name = 13804
REMARK  13 active torsions:
REMARK  status: ('A' for Active; 'I' for Inactive)
REMARK    1  A    between atoms: C_2  and  O_16
REMARK    2  A    between atoms: C_3  and  O_18
REMARK    3  A    between atoms: C_4  and  C_20
REMARK    4  A    between atoms: C_5  and  N_7
REMARK    5  A    between atoms: C_20  and  O_21
REMARK    6  A    between atoms: O_21  and  P_22
REMARK    7  A    between atoms: P_22  and  O_24
REMARK    8  A    between atoms: P_22  and  O_26
REMARK    9  A    between atoms: O_26  and  P_27
REMARK   10  A    between atoms: P_27  and  O_30
REMARK   11  A    between atoms: O_30  and  C_31
REMARK   12  A    between atoms: C_31  and  C_32
REMARK   13  A    between atoms: C_32  and  N_33
REMARK                            x       y       z     vdW  Elec       q    Type
REMARK                         _______ _______ _______ _____ _____    ______ ____
ROOT
ATOM      1  O   UNL     1      31.682 -12.112 -22.927  0.00  0.00    -0.332 OA
ATOM      2  C   UNL     1      33.557 -13.114 -23.971  0.00  0.00    +0.171 C 
ATOM      3  C   UNL     1      33.914 -11.691 -23.601  0.00  0.00    +0.188 C 
ATOM      4  C   UNL     1      32.352 -13.383 -23.080  0.00  0.00    +0.176 C 
ATOM      5  C   UNL     1      32.545 -11.065 -23.399  0.00  0.00    +0.236 C 
ENDROOT
BRANCH   5   7
ATOM      6  O   UNL     1      33.595  -8.487 -23.832  0.00  0.00    -0.193 OA
ATOM      7  N   UNL     1      32.565 -10.005 -22.432  0.00  0.00    -0.178 N 
ATOM      8  N   UNL     1      33.096  -7.754 -21.741  0.00  0.00    -0.306 NA
ATOM      9  N   UNL     1      32.584  -7.009 -19.599  0.00  0.00    -0.332 N 
ATOM     10  C   UNL     1      32.032 -10.241 -21.174  0.00  0.00    +0.083 C 
ATOM     11  C   UNL     1      33.112  -8.730 -22.724  0.00  0.00    +0.276 C 
ATOM     12  C   UNL     1      32.008  -9.317 -20.216  0.00  0.00    +0.065 C 
ATOM     13  C   UNL     1      32.590  -7.993 -20.561  0.00  0.00    +0.193 C 
ATOM     14  H   UNL     1      32.962  -6.123 -19.799  0.00  0.00    +0.145 HD
ATOM     15  H   UNL     1      32.201  -7.193 -18.711  0.00  0.00    +0.145 HD
ENDBRANCH   5   7
BRANCH   2  16
ATOM     16  O   UNL     1      33.123 -13.179 -25.330  0.00  0.00    -0.379 OA
ATOM     17  H   UNL     1      33.506 -13.962 -25.754  0.00  0.00    +0.211 HD
ENDBRANCH   2  16
BRANCH   3  18
ATOM     18  O   UNL     1      34.663 -11.045 -24.611  0.00  0.00    -0.378 OA
ATOM     19  H   UNL     1      35.446 -11.578 -24.823  0.00  0.00    +0.211 HD
ENDBRANCH   3  18
BRANCH   4  20
ATOM     20  C   UNL     1      32.729 -13.891 -21.695  0.00  0.00    +0.186 C 
BRANCH  20  21
ATOM     21  O   UNL     1      32.914 -15.294 -21.762  0.00  0.00    -0.270 OA
BRANCH  21  22
ATOM     22  P   UNL     1      34.347 -15.940 -21.381  0.00  0.00    +0.484 P 
ATOM     23  O   UNL     1      34.946 -15.430 -20.102  0.00  0.00    -0.227 OA
BRANCH  22  24
ATOM     24  O   UNL     1      35.262 -15.687 -22.691  0.00  0.00    -0.302 OA
ATOM     25  H   UNL     1      34.727 -15.267 -23.383  0.00  0.00    +0.222 HD
ENDBRANCH  22  24
BRANCH  22  26
ATOM     26  O   UNL     1      34.096 -17.538 -21.409  0.00  0.00    -0.184 OA
BRANCH  26  27
ATOM     27  P   UNL     1      34.872 -18.736 -22.202  0.00  0.00    +0.514 P 
ATOM     28  O   UNL     1      36.333 -18.705 -21.806  0.00  0.00    -0.224 OA
ATOM     29  O   UNL     1      34.468 -18.690 -23.659  0.00  0.00    -0.116 OA
BRANCH  27  30
ATOM     30  O   UNL     1      34.150 -20.031 -21.511  0.00  0.00    -0.274 OA
BRANCH  30  31
ATOM     31  C   UNL     1      34.444 -20.350 -20.162  0.00  0.00    +0.132 C 
BRANCH  31  32
ATOM     32  C   UNL     1      33.377 -21.277 -19.614  0.00  0.00    -0.040 C 
BRANCH  32  33
ATOM     33  N   UNL     1      34.027 -22.418 -18.920  0.00  0.00    +0.387 N 
ATOM     34  C   UNL     1      34.158 -23.624 -19.861  0.00  0.00    -0.096 C 
ATOM     35  C   UNL     1      33.206 -22.851 -17.698  0.00  0.00    -0.096 C 
ATOM     36  C   UNL     1      35.432 -22.032 -18.440  0.00  0.00    -0.096 C 
ENDBRANCH  32  33
ENDBRANCH  31  32
ENDBRANCH  30  31
ENDBRANCH  27  30
ENDBRANCH  26  27
ENDBRANCH  22  26
ENDBRANCH  21  22
ENDBRANCH  20  21
ENDBRANCH   4  20
TORSDOF 13
ENDMDL
MODEL 8
REMARK VINA RESULT:      -8.1      2.855      4.841
REMARK  Name = 13804
REMARK  13 active torsions:
REMARK  status: ('A' for Active; 'I' for Inactive)
REMARK    1  A    between atoms: C_2  and  O_16
REMARK    2  A    between atoms: C_3  and  O_18
REMARK    3  A    between atoms: C_4  and  C_20
REMARK    4  A    between atoms: C_5  and  N_7
REMARK    5  A    between atoms: C_20  and  O_21
REMARK    6  A    between atoms: O_21  and  P_22
REMARK    7  A    between atoms: P_22  and  O_24
REMARK    8  A    between atoms: P_22  and  O_26
REMARK    9  A    between atoms: O_26  and  P_27
REMARK   10  A    between atoms: P_27  and  O_30
REMARK   11  A    between atoms: O_30  and  C_31
REMARK   12  A    between atoms: C_31  and  C_32
REMARK   13  A    between atoms: C_32  and  N_33
REMARK                            x       y       z     vdW  Elec       q    Type
REMARK                         _______ _______ _______ _____ _____    ______ ____
ROOT
ATOM      1  O   UNL     1      35.072 -22.209 -15.279  0.00  0.00    -0.332 OA
ATOM      2  C   UNL     1      36.898 -23.706 -15.478  0.00  0.00    +0.171 C 
ATOM      3  C   UNL     1      35.648 -24.505 -15.177  0.00  0.00    +0.188 C 
ATOM      4  C   UNL     1      36.320 -22.390 -15.983  0.00  0.00    +0.176 C 
ATOM      5  C   UNL     1      34.716 -23.439 -14.627  0.00  0.00    +0.236 C 
ENDROOT
BRANCH   5   7
ATOM      6  O   UNL     1      33.005 -24.913 -12.943  0.00  0.00    -0.193 OA
ATOM      7  N   UNL     1      33.336 -23.727 -14.895  0.00  0.00    -0.178 N 
ATOM      8  N   UNL     1      31.211 -24.716 -14.321  0.00  0.00    -0.306 NA
ATOM      9  N   UNL     1      29.377 -24.513 -15.737  0.00  0.00    -0.332 N 
ATOM     10  C   UNL     1      32.773 -23.256 -16.071  0.00  0.00    +0.083 C 
ATOM     11  C   UNL     1      32.536 -24.477 -13.996  0.00  0.00    +0.276 C 
ATOM     12  C   UNL     1      31.503 -23.476 -16.401  0.00  0.00    +0.065 C 
ATOM     13  C   UNL     1      30.696 -24.264 -15.433  0.00  0.00    +0.193 C 
ATOM     14  H   UNL     1      28.819 -25.032 -15.114  0.00  0.00    +0.145 HD
ATOM     15  H   UNL     1      28.992 -24.171 -16.575  0.00  0.00    +0.145 HD
ENDBRANCH   5   7
BRANCH   2  16
ATOM     16  O   UNL     1      37.615 -23.437 -14.273  0.00  0.00    -0.379 OA
ATOM     17  H   UNL     1      38.566 -23.414 -14.463  0.00  0.00    +0.211 HD
ENDBRANCH   2  16
BRANCH   3  18
ATOM     18  O   UNL     1      35.888 -25.547 -14.252  0.00  0.00    -0.378 OA
ATOM     19  H   UNL     1      36.481 -25.228 -13.554  0.00  0.00    +0.211 HD
ENDBRANCH   3  18
BRANCH   4  20
ATOM     20  C   UNL     1      36.026 -22.396 -17.477  0.00  0.00    +0.186 C 
BRANCH  20  21
ATOM     21  O   UNL     1      36.402 -21.142 -18.019  0.00  0.00    -0.270 OA
BRANCH  21  22
ATOM     22  P   UNL     1      36.318 -20.893 -19.615  0.00  0.00    +0.484 P 
ATOM     23  O   UNL     1      36.773 -22.050 -20.456  0.00  0.00    -0.227 OA
BRANCH  22  24
ATOM     24  O   UNL     1      37.154 -19.529 -19.853  0.00  0.00    -0.302 OA
ATOM     25  H   UNL     1      36.547 -18.772 -19.844  0.00  0.00    +0.222 HD
ENDBRANCH  22  24
BRANCH  22  26
ATOM     26  O   UNL     1      34.788 -20.439 -19.877  0.00  0.00    -0.184 OA
BRANCH  26  27
ATOM     27  P   UNL     1      34.123 -19.527 -21.057  0.00  0.00    +0.514 P 
ATOM     28  O   UNL     1      32.619 -19.543 -20.888  0.00  0.00    -0.224 OA
ATOM     29  O   UNL     1      34.753 -19.914 -22.377  0.00  0.00    -0.116 OA
BRANCH  27  30
ATOM     30  O   UNL     1      34.703 -18.060 -20.625  0.00  0.00    -0.274 OA
BRANCH  30  31
ATOM     31  C   UNL     1      35.176 -17.179 -21.630  0.00  0.00    +0.132 C 
BRANCH  31  32
ATOM     32  C   UNL     1      33.999 -16.562 -22.360  0.00  0.00    -0.040 C 
BRANCH  32  33
ATOM     33  N   UNL     1      33.869 -15.137 -21.965  0.00  0.00    +0.387 N 
ATOM     34  C   UNL     1      32.408 -14.795 -21.635  0.00  0.00    -0.096 C 
ATOM     35  C   UNL     1      34.333 -14.213 -23.099  0.00  0.00    -0.096 C 
ATOM     36  C   UNL     1      34.720 -14.837 -20.724  0.00  0.00    -0.096 C 
ENDBRANCH  32  33
ENDBRANCH  31  32
ENDBRANCH  30  31
ENDBRANCH  27  30
ENDBRANCH  26  27
ENDBRANCH  22  26
ENDBRANCH  21  22
ENDBRANCH  20  21
ENDBRANCH   4  20
TORSDOF 13
ENDMDL
MODEL 9
REMARK VINA RESULT:      -8.0      6.543     10.322
REMARK  Name = 13804
REMARK  13 active torsions:
REMARK  status: ('A' for Active; 'I' for Inactive)
REMARK    1  A    between atoms: C_2  and  O_16
REMARK    2  A    between atoms: C_3  and  O_18
REMARK    3  A    between atoms: C_4  and  C_20
REMARK    4  A    between atoms: C_5  and  N_7
REMARK    5  A    between atoms: C_20  and  O_21
REMARK    6  A    between atoms: O_21  and  P_22
REMARK    7  A    between atoms: P_22  and  O_24
REMARK    8  A    between atoms: P_22  and  O_26
REMARK    9  A    between atoms: O_26  and  P_27
REMARK   10  A    between atoms: P_27  and  O_30
REMARK   11  A    between atoms: O_30  and  C_31
REMARK   12  A    between atoms: C_31  and  C_32
REMARK   13  A    between atoms: C_32  and  N_33
REMARK                            x       y       z     vdW  Elec       q    Type
REMARK                         _______ _______ _______ _____ _____    ______ ____
ROOT
ATOM      1  O   UNL     1      35.262 -17.842 -20.660  0.00  0.00    -0.332 OA
ATOM      2  C   UNL     1      34.678 -17.385 -22.910  0.00  0.00    +0.171 C 
ATOM      3  C   UNL     1      34.474 -18.862 -22.649  0.00  0.00    +0.188 C 
ATOM      4  C   UNL     1      34.697 -16.811 -21.500  0.00  0.00    +0.176 C 
ATOM      5  C   UNL     1      35.302 -19.077 -21.393  0.00  0.00    +0.236 C 
ENDROOT
BRANCH   5   7
ATOM      6  O   UNL     1      32.568 -19.576 -20.930  0.00  0.00    -0.193 OA
ATOM      7  N   UNL     1      34.780 -20.127 -20.566  0.00  0.00    -0.178 N 
ATOM      8  N   UNL     1      32.955 -21.352 -19.570  0.00  0.00    -0.306 NA
ATOM      9  N   UNL     1      33.357 -23.170 -18.176  0.00  0.00    -0.332 N 
ATOM     10  C   UNL     1      35.669 -20.979 -19.931  0.00  0.00    +0.083 C 
ATOM     11  C   UNL     1      33.387 -20.317 -20.382  0.00  0.00    +0.276 C 
ATOM     12  C   UNL     1      35.274 -21.980 -19.147  0.00  0.00    +0.065 C 
ATOM     13  C   UNL     1      33.807 -22.147 -18.979  0.00  0.00    +0.193 C 
ATOM     14  H   UNL     1      32.390 -23.305 -18.046  0.00  0.00    +0.145 HD
ATOM     15  H   UNL     1      34.001 -23.767 -17.732  0.00  0.00    +0.145 HD
ENDBRANCH   5   7
BRANCH   2  16
ATOM     16  O   UNL     1      35.960 -17.158 -23.495  0.00  0.00    -0.379 OA
ATOM     17  H   UNL     1      35.948 -17.442 -24.422  0.00  0.00    +0.211 HD
ENDBRANCH   2  16
BRANCH   3  18
ATOM     18  O   UNL     1      34.907 -19.663 -23.729  0.00  0.00    -0.378 OA
ATOM     19  H   UNL     1      34.341 -19.499 -24.500  0.00  0.00    +0.211 HD
ENDBRANCH   3  18
BRANCH   4  20
ATOM     20  C   UNL     1      33.310 -16.473 -20.969  0.00  0.00    +0.186 C 
BRANCH  20  21
ATOM     21  O   UNL     1      32.686 -15.575 -21.870  0.00  0.00    -0.270 OA
BRANCH  21  22
ATOM     22  P   UNL     1      33.186 -14.039 -21.957  0.00  0.00    +0.484 P 
ATOM     23  O   UNL     1      34.097 -13.740 -23.114  0.00  0.00    -0.227 OA
BRANCH  22  24
ATOM     24  O   UNL     1      33.836 -13.745 -20.506  0.00  0.00    -0.302 OA
ATOM     25  H   UNL     1      33.134 -13.507 -19.879  0.00  0.00    +0.222 HD
ENDBRANCH  22  24
BRANCH  22  26
ATOM     26  O   UNL     1      31.825 -13.165 -21.937  0.00  0.00    -0.184 OA
BRANCH  26  27
ATOM     27  P   UNL     1      31.489 -11.713 -21.268  0.00  0.00    +0.514 P 
ATOM     28  O   UNL     1      32.091 -11.673 -19.881  0.00  0.00    -0.224 OA
ATOM     29  O   UNL     1      30.021 -11.415 -21.480  0.00  0.00    -0.116 OA
BRANCH  27  30
ATOM     30  O   UNL     1      32.355 -10.748 -22.265  0.00  0.00    -0.274 OA
BRANCH  30  31
ATOM     31  C   UNL     1      32.295  -9.342 -22.092  0.00  0.00    +0.132 C 
BRANCH  31  32
ATOM     32  C   UNL     1      32.315  -8.663 -23.447  0.00  0.00    -0.040 C 
BRANCH  32  33
ATOM     33  N   UNL     1      32.982  -7.341 -23.323  0.00  0.00    +0.387 N 
ATOM     34  C   UNL     1      34.509  -7.496 -23.366  0.00  0.00    -0.096 C 
ATOM     35  C   UNL     1      32.606  -6.665 -21.997  0.00  0.00    -0.096 C 
ATOM     36  C   UNL     1      32.564  -6.411 -24.469  0.00  0.00    -0.096 C 
ENDBRANCH  32  33
ENDBRANCH  31  32
ENDBRANCH  30  31
ENDBRANCH  27  30
ENDBRANCH  26  27
ENDBRANCH  22  26
ENDBRANCH  21  22
ENDBRANCH  20  21
ENDBRANCH   4  20
TORSDOF 13
ENDMDL
