MODEL 1
REMARK VINA RESULT:      -9.6      0.000      0.000
REMARK  Name = 656612
REMARK  5 active torsions:
REMARK  status: ('A' for Active; 'I' for Inactive)
REMARK    1  A    between atoms: O_1  and  C_3
REMARK    2  A    between atoms: O_1  and  C_13
REMARK    3  A    between atoms: C_3  and  C_5
REMARK    4  A    between atoms: C_6  and  C_11
REMARK    5  A    between atoms: C_13  and  C_18
REMARK                            x       y       z     vdW  Elec       q    Type
REMARK                         _______ _______ _______ _____ _____    ______ ____
ROOT
ATOM      1  O   UNL     1      34.421 -18.398 -21.154  0.00  0.00    -0.443 OA
ENDROOT
BRANCH   1   3
ATOM      2  O   UNL     1      36.126 -17.354 -22.318  0.00  0.00    -0.250 OA
ATOM      3  C   UNL     1      34.963 -17.428 -21.948  0.00  0.00    +0.317 C 
BRANCH   3   5
ATOM      4  C   UNL     1      33.797 -15.162 -21.539  0.00  0.00    +0.015 C 
ATOM      5  C   UNL     1      33.954 -16.412 -22.343  0.00  0.00    +0.103 C 
ATOM      6  C   UNL     1      34.438 -15.109 -22.894  0.00  0.00    +0.035 C 
ATOM      7  C   UNL     1      34.677 -14.934 -20.356  0.00  0.00    +0.001 C 
ATOM      8  C   UNL     1      32.408 -14.643 -21.357  0.00  0.00    +0.001 C 
BRANCH   6  11
ATOM      9 CL   UNL     1      32.634 -14.228 -26.444  0.00  0.00    -0.070 Cl
ATOM     10 CL   UNL     1      34.081 -16.669 -25.628  0.00  0.00    -0.070 Cl
ATOM     11  C   UNL     1      33.726 -14.532 -24.025  0.00  0.00    -0.003 C 
ATOM     12  C   UNL     1      33.509 -15.089 -25.227  0.00  0.00    +0.111 C 
ENDBRANCH   6  11
ENDBRANCH   3   5
ENDBRANCH   1   3
BRANCH   1  13
ATOM     13  C   UNL     1      34.639 -19.738 -21.579  0.00  0.00    +0.240 C 
BRANCH  13  18
ATOM     14  F   UNL     1      37.085 -20.386 -20.329  0.00  0.00    -0.202 F 
ATOM     15  F   UNL     1      32.366 -20.913 -20.385  0.00  0.00    -0.202 F 
ATOM     16  F   UNL     1      32.528 -22.540 -18.204  0.00  0.00    -0.202 F 
ATOM     17  F   UNL     1      37.234 -22.014 -18.147  0.00  0.00    -0.202 F 
ATOM     18  C   UNL     1      34.723 -20.629 -20.386  0.00  0.00    +0.081 C 
ATOM     19  C   UNL     1      35.964 -20.910 -19.814  0.00  0.00    +0.169 C 
ATOM     20  C   UNL     1      33.563 -21.179 -19.842  0.00  0.00    +0.169 C 
ATOM     21  C   UNL     1      33.642 -22.011 -18.725  0.00  0.00    +0.170 C 
ATOM     22  C   UNL     1      36.043 -21.742 -18.697  0.00  0.00    +0.170 C 
ATOM     23  C   UNL     1      34.883 -22.293 -18.153  0.00  0.00    +0.064 C 
ENDBRANCH  13  18
ENDBRANCH   1  13
TORSDOF 5
ENDMDL
MODEL 2
REMARK VINA RESULT:      -9.6      2.370      3.993
REMARK  Name = 656612
REMARK  5 active torsions:
REMARK  status: ('A' for Active; 'I' for Inactive)
REMARK    1  A    between atoms: O_1  and  C_3
REMARK    2  A    between atoms: O_1  and  C_13
REMARK    3  A    between atoms: C_3  and  C_5
REMARK    4  A    between atoms: C_6  and  C_11
REMARK    5  A    between atoms: C_13  and  C_18
REMARK                            x       y       z     vdW  Elec       q    Type
REMARK                         _______ _______ _______ _____ _____    ______ ____
ROOT
ATOM      1  O   UNL     1      34.234 -16.855 -22.686  0.00  0.00    -0.443 OA
ENDROOT
BRANCH   1   3
ATOM      2  O   UNL     1      35.168 -16.470 -24.767  0.00  0.00    -0.250 OA
ATOM      3  C   UNL     1      34.587 -16.090 -23.761  0.00  0.00    +0.317 C 
BRANCH   3   5
ATOM      4  C   UNL     1      33.380 -13.987 -24.647  0.00  0.00    +0.015 C 
ATOM      5  C   UNL     1      34.179 -14.673 -23.586  0.00  0.00    +0.103 C 
ATOM      6  C   UNL     1      32.734 -14.374 -23.350  0.00  0.00    +0.035 C 
ATOM      7  C   UNL     1      32.976 -14.746 -25.867  0.00  0.00    +0.001 C 
ATOM      8  C   UNL     1      33.700 -12.554 -24.917  0.00  0.00    +0.001 C 
BRANCH   6  11
ATOM      9 CL   UNL     1      31.928 -12.147 -20.030  0.00  0.00    -0.070 Cl
ATOM     10 CL   UNL     1      32.762 -14.971 -20.240  0.00  0.00    -0.070 Cl
ATOM     11  C   UNL     1      32.392 -13.358 -22.366  0.00  0.00    -0.003 C 
ATOM     12  C   UNL     1      32.367 -13.487 -21.030  0.00  0.00    +0.111 C 
ENDBRANCH   6  11
ENDBRANCH   3   5
ENDBRANCH   1   3
BRANCH   1  13
ATOM     13  C   UNL     1      35.261 -17.091 -21.732  0.00  0.00    +0.240 C 
BRANCH  13  18
ATOM     14  F   UNL     1      32.749 -18.116 -20.954  0.00  0.00    -0.202 F 
ATOM     15  F   UNL     1      37.425 -18.856 -21.314  0.00  0.00    -0.202 F 
ATOM     16  F   UNL     1      37.107 -21.344 -20.247  0.00  0.00    -0.202 F 
ATOM     17  F   UNL     1      32.443 -20.607 -19.889  0.00  0.00    -0.202 F 
ATOM     18  C   UNL     1      35.091 -18.453 -21.148  0.00  0.00    +0.081 C 
ATOM     19  C   UNL     1      33.821 -18.902 -20.784  0.00  0.00    +0.169 C 
ATOM     20  C   UNL     1      36.201 -19.278 -20.967  0.00  0.00    +0.169 C 
ATOM     21  C   UNL     1      36.041 -20.553 -20.422  0.00  0.00    +0.170 C 
ATOM     22  C   UNL     1      33.661 -20.176 -20.240  0.00  0.00    +0.170 C 
ATOM     23  C   UNL     1      34.771 -21.001 -20.058  0.00  0.00    +0.064 C 
ENDBRANCH  13  18
ENDBRANCH   1  13
TORSDOF 5
ENDMDL
MODEL 3
REMARK VINA RESULT:      -9.6      0.024      2.219
REMARK  Name = 656612
REMARK  5 active torsions:
REMARK  status: ('A' for Active; 'I' for Inactive)
REMARK    1  A    between atoms: O_1  and  C_3
REMARK    2  A    between atoms: O_1  and  C_13
REMARK    3  A    between atoms: C_3  and  C_5
REMARK    4  A    between atoms: C_6  and  C_11
REMARK    5  A    between atoms: C_13  and  C_18
REMARK                            x       y       z     vdW  Elec       q    Type
REMARK                         _______ _______ _______ _____ _____    ______ ____
ROOT
ATOM      1  O   UNL     1      34.404 -18.409 -21.168  0.00  0.00    -0.443 OA
ENDROOT
BRANCH   1   3
ATOM      2  O   UNL     1      36.127 -17.345 -22.286  0.00  0.00    -0.250 OA
ATOM      3  C   UNL     1      34.957 -17.427 -21.938  0.00  0.00    +0.317 C 
BRANCH   3   5
ATOM      4  C   UNL     1      33.797 -15.156 -21.536  0.00  0.00    +0.015 C 
ATOM      5  C   UNL     1      33.954 -16.408 -22.337  0.00  0.00    +0.103 C 
ATOM      6  C   UNL     1      34.443 -15.107 -22.888  0.00  0.00    +0.035 C 
ATOM      7  C   UNL     1      34.674 -14.930 -20.349  0.00  0.00    +0.001 C 
ATOM      8  C   UNL     1      32.410 -14.633 -21.358  0.00  0.00    +0.001 C 
BRANCH   6  11
ATOM      9 CL   UNL     1      32.632 -14.233 -26.436  0.00  0.00    -0.070 Cl
ATOM     10 CL   UNL     1      34.019 -16.699 -25.594  0.00  0.00    -0.070 Cl
ATOM     11  C   UNL     1      33.737 -14.529 -24.022  0.00  0.00    -0.003 C 
ATOM     12  C   UNL     1      33.495 -15.098 -25.213  0.00  0.00    +0.111 C 
ENDBRANCH   6  11
ENDBRANCH   3   5
ENDBRANCH   1   3
BRANCH   1  13
ATOM     13  C   UNL     1      34.669 -19.743 -21.583  0.00  0.00    +0.240 C 
BRANCH  13  18
ATOM     14  F   UNL     1      32.383 -20.909 -20.407  0.00  0.00    -0.202 F 
ATOM     15  F   UNL     1      37.102 -20.395 -20.308  0.00  0.00    -0.202 F 
ATOM     16  F   UNL     1      37.226 -22.017 -18.121  0.00  0.00    -0.202 F 
ATOM     17  F   UNL     1      32.520 -22.530 -18.219  0.00  0.00    -0.202 F 
ATOM     18  C   UNL     1      34.741 -20.630 -20.386  0.00  0.00    +0.081 C 
ATOM     19  C   UNL     1      33.573 -21.176 -19.852  0.00  0.00    +0.169 C 
ATOM     20  C   UNL     1      35.975 -20.914 -19.802  0.00  0.00    +0.169 C 
ATOM     21  C   UNL     1      36.042 -21.745 -18.683  0.00  0.00    +0.170 C 
ATOM     22  C   UNL     1      33.640 -22.007 -18.733  0.00  0.00    +0.170 C 
ATOM     23  C   UNL     1      34.874 -22.291 -18.148  0.00  0.00    +0.064 C 
ENDBRANCH  13  18
ENDBRANCH   1  13
TORSDOF 5
ENDMDL
MODEL 4
REMARK VINA RESULT:      -9.5      2.372      3.353
REMARK  Name = 656612
REMARK  5 active torsions:
REMARK  status: ('A' for Active; 'I' for Inactive)
REMARK    1  A    between atoms: O_1  and  C_3
REMARK    2  A    between atoms: O_1  and  C_13
REMARK    3  A    between atoms: C_3  and  C_5
REMARK    4  A    between atoms: C_6  and  C_11
REMARK    5  A    between atoms: C_13  and  C_18
REMARK                            x       y       z     vdW  Elec       q    Type
REMARK                         _______ _______ _______ _____ _____    ______ ____
ROOT
ATOM      1  O   UNL     1      34.237 -16.829 -22.663  0.00  0.00    -0.443 OA
ENDROOT
BRANCH   1   3
ATOM      2  O   UNL     1      35.150 -16.453 -24.755  0.00  0.00    -0.250 OA
ATOM      3  C   UNL     1      34.578 -16.069 -23.744  0.00  0.00    +0.317 C 
BRANCH   3   5
ATOM      4  C   UNL     1      33.384 -13.963 -24.640  0.00  0.00    +0.015 C 
ATOM      5  C   UNL     1      34.170 -14.651 -23.572  0.00  0.00    +0.103 C 
ATOM      6  C   UNL     1      32.723 -14.351 -23.352  0.00  0.00    +0.035 C 
ATOM      7  C   UNL     1      32.993 -14.719 -25.866  0.00  0.00    +0.001 C 
ATOM      8  C   UNL     1      33.709 -12.529 -24.903  0.00  0.00    +0.001 C 
BRANCH   6  11
ATOM      9 CL   UNL     1      31.902 -12.123 -20.035  0.00  0.00    -0.070 Cl
ATOM     10 CL   UNL     1      32.780 -14.935 -20.239  0.00  0.00    -0.070 Cl
ATOM     11  C   UNL     1      32.371 -13.336 -22.369  0.00  0.00    -0.003 C 
ATOM     12  C   UNL     1      32.356 -13.461 -21.032  0.00  0.00    +0.111 C 
ENDBRANCH   6  11
ENDBRANCH   3   5
ENDBRANCH   1   3
BRANCH   1  13
ATOM     13  C   UNL     1      35.285 -17.093 -21.738  0.00  0.00    +0.240 C 
BRANCH  13  18
ATOM     14  F   UNL     1      37.433 -18.870 -21.295  0.00  0.00    -0.202 F 
ATOM     15  F   UNL     1      32.758 -18.102 -20.984  0.00  0.00    -0.202 F 
ATOM     16  F   UNL     1      32.427 -20.588 -19.917  0.00  0.00    -0.202 F 
ATOM     17  F   UNL     1      37.090 -21.354 -20.225  0.00  0.00    -0.202 F 
ATOM     18  C   UNL     1      35.100 -18.453 -21.154  0.00  0.00    +0.081 C 
ATOM     19  C   UNL     1      36.204 -19.284 -20.959  0.00  0.00    +0.169 C 
ATOM     20  C   UNL     1      33.825 -18.893 -20.801  0.00  0.00    +0.169 C 
ATOM     21  C   UNL     1      33.652 -20.165 -20.254  0.00  0.00    +0.170 C 
ATOM     22  C   UNL     1      36.031 -20.555 -20.411  0.00  0.00    +0.170 C 
ATOM     23  C   UNL     1      34.756 -20.996 -20.059  0.00  0.00    +0.064 C 
ENDBRANCH  13  18
ENDBRANCH   1  13
TORSDOF 5
ENDMDL
MODEL 5
REMARK VINA RESULT:      -9.5      6.291      9.453
REMARK  Name = 656612
REMARK  5 active torsions:
REMARK  status: ('A' for Active; 'I' for Inactive)
REMARK    1  A    between atoms: O_1  and  C_3
REMARK    2  A    between atoms: O_1  and  C_13
REMARK    3  A    between atoms: C_3  and  C_5
REMARK    4  A    between atoms: C_6  and  C_11
REMARK    5  A    between atoms: C_13  and  C_18
REMARK                            x       y       z     vdW  Elec       q    Type
REMARK                         _______ _______ _______ _____ _____    ______ ____
ROOT
ATOM      1  O   UNL     1      34.209 -12.300 -23.976  0.00  0.00    -0.443 OA
ENDROOT
BRANCH   1   3
ATOM      2  O   UNL     1      32.832 -13.942 -24.845  0.00  0.00    -0.250 OA
ATOM      3  C   UNL     1      33.692 -13.560 -24.065  0.00  0.00    +0.317 C 
BRANCH   3   5
ATOM      4  C   UNL     1      33.676 -14.645 -21.722  0.00  0.00    +0.015 C 
ATOM      5  C   UNL     1      34.302 -14.479 -23.069  0.00  0.00    +0.103 C 
ATOM      6  C   UNL     1      33.581 -15.745 -22.737  0.00  0.00    +0.035 C 
ATOM      7  C   UNL     1      32.423 -13.902 -21.398  0.00  0.00    +0.001 C 
ATOM      8  C   UNL     1      34.600 -14.790 -20.558  0.00  0.00    +0.001 C 
BRANCH   6  11
ATOM      9 CL   UNL     1      35.786 -19.152 -23.147  0.00  0.00    -0.070 Cl
ATOM     10 CL   UNL     1      34.683 -17.367 -25.225  0.00  0.00    -0.070 Cl
ATOM     11  C   UNL     1      34.363 -16.963 -22.580  0.00  0.00    -0.003 C 
ATOM     12  C   UNL     1      34.882 -17.734 -23.549  0.00  0.00    +0.111 C 
ENDBRANCH   6  11
ENDBRANCH   3   5
ENDBRANCH   1   3
BRANCH   1  13
ATOM     13  C   UNL     1      33.495 -11.288 -24.674  0.00  0.00    +0.240 C 
BRANCH  13  18
ATOM     14  F   UNL     1      35.364  -9.214 -25.093  0.00  0.00    -0.202 F 
ATOM     15  F   UNL     1      31.638 -10.789 -22.607  0.00  0.00    -0.202 F 
ATOM     16  F   UNL     1      31.653  -8.491 -21.140  0.00  0.00    -0.202 F 
ATOM     17  F   UNL     1      35.369  -6.920 -23.620  0.00  0.00    -0.202 F 
ATOM     18  C   UNL     1      33.501 -10.033 -23.869  0.00  0.00    +0.081 C 
ATOM     19  C   UNL     1      34.451  -9.044 -24.126  0.00  0.00    +0.169 C 
ATOM     20  C   UNL     1      32.555  -9.845 -22.861  0.00  0.00    +0.169 C 
ATOM     21  C   UNL     1      32.560  -8.670 -22.109  0.00  0.00    +0.170 C 
ATOM     22  C   UNL     1      34.456  -7.869 -23.375  0.00  0.00    +0.170 C 
ATOM     23  C   UNL     1      33.511  -7.682 -22.366  0.00  0.00    +0.064 C 
ENDBRANCH  13  18
ENDBRANCH   1  13
TORSDOF 5
ENDMDL
MODEL 6
REMARK VINA RESULT:      -9.5      6.288      9.659
REMARK  Name = 656612
REMARK  5 active torsions:
REMARK  status: ('A' for Active; 'I' for Inactive)
REMARK    1  A    between atoms: O_1  and  C_3
REMARK    2  A    between atoms: O_1  and  C_13
REMARK    3  A    between atoms: C_3  and  C_5
REMARK    4  A    between atoms: C_6  and  C_11
REMARK    5  A    between atoms: C_13  and  C_18
REMARK                            x       y       z     vdW  Elec       q    Type
REMARK                         _______ _______ _______ _____ _____    ______ ____
ROOT
ATOM      1  O   UNL     1      34.208 -12.303 -23.976  0.00  0.00    -0.443 OA
ENDROOT
BRANCH   1   3
ATOM      2  O   UNL     1      32.847 -13.950 -24.861  0.00  0.00    -0.250 OA
ATOM      3  C   UNL     1      33.698 -13.565 -24.072  0.00  0.00    +0.317 C 
BRANCH   3   5
ATOM      4  C   UNL     1      33.672 -14.650 -21.729  0.00  0.00    +0.015 C 
ATOM      5  C   UNL     1      34.305 -14.482 -23.073  0.00  0.00    +0.103 C 
ATOM      6  C   UNL     1      33.584 -15.750 -22.744  0.00  0.00    +0.035 C 
ATOM      7  C   UNL     1      32.415 -13.909 -21.412  0.00  0.00    +0.001 C 
ATOM      8  C   UNL     1      34.590 -14.792 -20.560  0.00  0.00    +0.001 C 
BRANCH   6  11
ATOM      9 CL   UNL     1      35.788 -19.159 -23.142  0.00  0.00    -0.070 Cl
ATOM     10 CL   UNL     1      34.670 -17.393 -25.226  0.00  0.00    -0.070 Cl
ATOM     11  C   UNL     1      34.368 -16.966 -22.583  0.00  0.00    -0.003 C 
ATOM     12  C   UNL     1      34.880 -17.745 -23.549  0.00  0.00    +0.111 C 
ENDBRANCH   6  11
ENDBRANCH   3   5
ENDBRANCH   1   3
BRANCH   1  13
ATOM     13  C   UNL     1      33.491 -11.292 -24.673  0.00  0.00    +0.240 C 
BRANCH  13  18
ATOM     14  F   UNL     1      31.632 -10.792 -22.609  0.00  0.00    -0.202 F 
ATOM     15  F   UNL     1      35.363  -9.220 -25.089  0.00  0.00    -0.202 F 
ATOM     16  F   UNL     1      35.369  -6.927 -23.615  0.00  0.00    -0.202 F 
ATOM     17  F   UNL     1      31.649  -8.495 -21.140  0.00  0.00    -0.202 F 
ATOM     18  C   UNL     1      33.497 -10.036 -23.869  0.00  0.00    +0.081 C 
ATOM     19  C   UNL     1      32.551  -9.849 -22.861  0.00  0.00    +0.169 C 
ATOM     20  C   UNL     1      34.449  -9.049 -24.123  0.00  0.00    +0.169 C 
ATOM     21  C   UNL     1      34.456  -7.875 -23.370  0.00  0.00    +0.170 C 
ATOM     22  C   UNL     1      32.557  -8.675 -22.107  0.00  0.00    +0.170 C 
ATOM     23  C   UNL     1      33.509  -7.688 -22.362  0.00  0.00    +0.064 C 
ENDBRANCH  13  18
ENDBRANCH   1  13
TORSDOF 5
ENDMDL
MODEL 7
REMARK VINA RESULT:      -9.4      4.795      8.049
REMARK  Name = 656612
REMARK  5 active torsions:
REMARK  status: ('A' for Active; 'I' for Inactive)
REMARK    1  A    between atoms: O_1  and  C_3
REMARK    2  A    between atoms: O_1  and  C_13
REMARK    3  A    between atoms: C_3  and  C_5
REMARK    4  A    between atoms: C_6  and  C_11
REMARK    5  A    between atoms: C_13  and  C_18
REMARK                            x       y       z     vdW  Elec       q    Type
REMARK                         _______ _______ _______ _____ _____    ______ ____
ROOT
ATOM      1  O   UNL     1      34.751 -15.395 -22.490  0.00  0.00    -0.443 OA
ENDROOT
BRANCH   1   3
ATOM      2  O   UNL     1      35.012 -15.874 -20.242  0.00  0.00    -0.250 OA
ATOM      3  C   UNL     1      34.730 -16.199 -21.386  0.00  0.00    +0.317 C 
BRANCH   3   5
ATOM      4  C   UNL     1      35.237 -18.489 -22.465  0.00  0.00    +0.015 C 
ATOM      5  C   UNL     1      34.310 -17.584 -21.721  0.00  0.00    +0.103 C 
ATOM      6  C   UNL     1      34.972 -18.718 -21.007  0.00  0.00    +0.035 C 
ATOM      7  C   UNL     1      36.595 -17.997 -22.845  0.00  0.00    +0.001 C 
ATOM      8  C   UNL     1      34.628 -19.398 -23.481  0.00  0.00    +0.001 C 
BRANCH   6  11
ATOM      9 CL   UNL     1      33.390 -22.156 -19.487  0.00  0.00    -0.070 Cl
ATOM     10 CL   UNL     1      36.178 -21.188 -19.433  0.00  0.00    -0.070 Cl
ATOM     11  C   UNL     1      34.146 -19.837 -20.575  0.00  0.00    -0.003 C 
ATOM     12  C   UNL     1      34.537 -20.933 -19.906  0.00  0.00    +0.111 C 
ENDBRANCH   6  11
ENDBRANCH   3   5
ENDBRANCH   1   3
BRANCH   1  13
ATOM     13  C   UNL     1      33.495 -15.181 -23.122  0.00  0.00    +0.240 C 
BRANCH  13  18
ATOM     14  F   UNL     1      32.033 -14.498 -20.807  0.00  0.00    -0.202 F 
ATOM     15  F   UNL     1      34.005 -13.018 -24.864  0.00  0.00    -0.202 F 
ATOM     16  F   UNL     1      33.153 -10.482 -24.346  0.00  0.00    -0.202 F 
ATOM     17  F   UNL     1      31.186 -11.957 -20.299  0.00  0.00    -0.202 F 
ATOM     18  C   UNL     1      33.030 -13.792 -22.843  0.00  0.00    +0.081 C 
ATOM     19  C   UNL     1      32.311 -13.519 -21.678  0.00  0.00    +0.169 C 
ATOM     20  C   UNL     1      33.314 -12.766 -23.743  0.00  0.00    +0.169 C 
ATOM     21  C   UNL     1      32.881 -11.466 -23.480  0.00  0.00    +0.170 C 
ATOM     22  C   UNL     1      31.877 -12.219 -21.415  0.00  0.00    +0.170 C 
ATOM     23  C   UNL     1      32.161 -11.194 -22.316  0.00  0.00    +0.064 C 
ENDBRANCH  13  18
ENDBRANCH   1  13
TORSDOF 5
ENDMDL
MODEL 8
REMARK VINA RESULT:      -9.4      4.794      7.912
REMARK  Name = 656612
REMARK  5 active torsions:
REMARK  status: ('A' for Active; 'I' for Inactive)
REMARK    1  A    between atoms: O_1  and  C_3
REMARK    2  A    between atoms: O_1  and  C_13
REMARK    3  A    between atoms: C_3  and  C_5
REMARK    4  A    between atoms: C_6  and  C_11
REMARK    5  A    between atoms: C_13  and  C_18
REMARK                            x       y       z     vdW  Elec       q    Type
REMARK                         _______ _______ _______ _____ _____    ______ ____
ROOT
ATOM      1  O   UNL     1      34.755 -15.400 -22.479  0.00  0.00    -0.443 OA
ENDROOT
BRANCH   1   3
ATOM      2  O   UNL     1      35.016 -15.884 -20.232  0.00  0.00    -0.250 OA
ATOM      3  C   UNL     1      34.732 -16.206 -21.377  0.00  0.00    +0.317 C 
BRANCH   3   5
ATOM      4  C   UNL     1      35.231 -18.493 -22.466  0.00  0.00    +0.015 C 
ATOM      5  C   UNL     1      34.308 -17.589 -21.714  0.00  0.00    +0.103 C 
ATOM      6  C   UNL     1      34.972 -18.727 -21.007  0.00  0.00    +0.035 C 
ATOM      7  C   UNL     1      36.588 -18.002 -22.850  0.00  0.00    +0.001 C 
ATOM      8  C   UNL     1      34.616 -19.398 -23.481  0.00  0.00    +0.001 C 
BRANCH   6  11
ATOM      9 CL   UNL     1      33.390 -22.162 -19.481  0.00  0.00    -0.070 Cl
ATOM     10 CL   UNL     1      36.175 -21.186 -19.414  0.00  0.00    -0.070 Cl
ATOM     11  C   UNL     1      34.147 -19.845 -20.576  0.00  0.00    -0.003 C 
ATOM     12  C   UNL     1      34.537 -20.938 -19.899  0.00  0.00    +0.111 C 
ENDBRANCH   6  11
ENDBRANCH   3   5
ENDBRANCH   1   3
BRANCH   1  13
ATOM     13  C   UNL     1      33.500 -15.185 -23.113  0.00  0.00    +0.240 C 
BRANCH  13  18
ATOM     14  F   UNL     1      34.004 -13.025 -24.859  0.00  0.00    -0.202 F 
ATOM     15  F   UNL     1      32.041 -14.500 -20.795  0.00  0.00    -0.202 F 
ATOM     16  F   UNL     1      31.193 -11.960 -20.290  0.00  0.00    -0.202 F 
ATOM     17  F   UNL     1      33.149 -10.488 -24.343  0.00  0.00    -0.202 F 
ATOM     18  C   UNL     1      33.035 -13.796 -22.833  0.00  0.00    +0.081 C 
ATOM     19  C   UNL     1      33.316 -12.771 -23.737  0.00  0.00    +0.169 C 
ATOM     20  C   UNL     1      32.317 -13.522 -21.669  0.00  0.00    +0.169 C 
ATOM     21  C   UNL     1      31.880 -12.223 -21.408  0.00  0.00    +0.170 C 
ATOM     22  C   UNL     1      32.879 -11.472 -23.476  0.00  0.00    +0.170 C 
ATOM     23  C   UNL     1      32.162 -11.198 -22.312  0.00  0.00    +0.064 C 
ENDBRANCH  13  18
ENDBRANCH   1  13
TORSDOF 5
ENDMDL
MODEL 9
REMARK VINA RESULT:      -9.4      4.319      6.105
REMARK  Name = 656612
REMARK  5 active torsions:
REMARK  status: ('A' for Active; 'I' for Inactive)
REMARK    1  A    between atoms: O_1  and  C_3
REMARK    2  A    between atoms: O_1  and  C_13
REMARK    3  A    between atoms: C_3  and  C_5
REMARK    4  A    between atoms: C_6  and  C_11
REMARK    5  A    between atoms: C_13  and  C_18
REMARK                            x       y       z     vdW  Elec       q    Type
REMARK                         _______ _______ _______ _____ _____    ______ ____
ROOT
ATOM      1  O   UNL     1      34.308 -13.833 -22.952  0.00  0.00    -0.443 OA
ENDROOT
BRANCH   1   3
ATOM      2  O   UNL     1      32.149 -13.132 -23.395  0.00  0.00    -0.250 OA
ATOM      3  C   UNL     1      33.352 -12.929 -23.315  0.00  0.00    +0.317 C 
BRANCH   3   5
ATOM      4  C   UNL     1      34.119 -11.170 -25.043  0.00  0.00    +0.015 C 
ATOM      5  C   UNL     1      33.940 -11.600 -23.622  0.00  0.00    +0.103 C 
ATOM      6  C   UNL     1      33.049 -10.546 -24.198  0.00  0.00    +0.035 C 
ATOM      7  C   UNL     1      33.680 -12.077 -26.144  0.00  0.00    +0.001 C 
ATOM      8  C   UNL     1      35.354 -10.395 -25.366  0.00  0.00    +0.001 C 
BRANCH   6  11
ATOM      9 CL   UNL     1      33.021  -7.007 -22.171  0.00  0.00    -0.070 Cl
ATOM     10 CL   UNL     1      31.869  -9.616 -21.409  0.00  0.00    -0.070 Cl
ATOM     11  C   UNL     1      33.194  -9.181 -23.714  0.00  0.00    -0.003 C 
ATOM     12  C   UNL     1      32.742  -8.669 -22.559  0.00  0.00    +0.111 C 
ENDBRANCH   6  11
ENDBRANCH   3   5
ENDBRANCH   1   3
BRANCH   1  13
ATOM     13  C   UNL     1      33.868 -14.894 -22.112  0.00  0.00    +0.240 C 
BRANCH  13  18
ATOM     14  F   UNL     1      35.265 -16.648 -20.398  0.00  0.00    -0.202 F 
ATOM     15  F   UNL     1      33.689 -15.770 -24.790  0.00  0.00    -0.202 F 
ATOM     16  F   UNL     1      34.779 -18.119 -25.643  0.00  0.00    -0.202 F 
ATOM     17  F   UNL     1      36.349 -18.996 -21.263  0.00  0.00    -0.202 F 
ATOM     18  C   UNL     1      34.463 -16.178 -22.583  0.00  0.00    +0.081 C 
ATOM     19  C   UNL     1      35.142 -17.002 -21.685  0.00  0.00    +0.169 C 
ATOM     20  C   UNL     1      34.340 -16.555 -23.920  0.00  0.00    +0.169 C 
ATOM     21  C   UNL     1      34.895 -17.757 -24.360  0.00  0.00    +0.170 C 
ATOM     22  C   UNL     1      35.697 -18.205 -22.124  0.00  0.00    +0.170 C 
ATOM     23  C   UNL     1      35.574 -18.581 -23.461  0.00  0.00    +0.064 C 
ENDBRANCH  13  18
ENDBRANCH   1  13
TORSDOF 5
ENDMDL
