MODEL 1
REMARK VINA RESULT:     -10.1      0.000      0.000
REMARK  Name = 11519070
REMARK  9 active torsions:
REMARK  status: ('A' for Active; 'I' for Inactive)
REMARK    1  A    between atoms: N_1  and  C_24
REMARK    2  A    between atoms: C_2  and  C_9
REMARK    3  A    between atoms: C_9  and  C_10
REMARK    4  A    between atoms: C_9  and  C_16
REMARK    5  A    between atoms: C_9  and  O_22
REMARK    6  A    between atoms: C_24  and  C_25
REMARK    7  A    between atoms: C_25  and  O_26
REMARK    8  A    between atoms: O_26  and  C_27
REMARK    9  A    between atoms: C_27  and  C_28
REMARK                            x       y       z     vdW  Elec       q    Type
REMARK                         _______ _______ _______ _____ _____    ______ ____
ROOT
ATOM      1  N   UNL     1      34.497 -15.979 -21.586  0.00  0.00    +0.392 N 
ATOM      2  C   UNL     1      33.308 -13.834 -22.426  0.00  0.00    +0.024 C 
ATOM      3  C   UNL     1      34.094 -14.510 -23.565  0.00  0.00    -0.020 C 
ATOM      4  C   UNL     1      32.287 -14.854 -21.885  0.00  0.00    -0.020 C 
ATOM      5  C   UNL     1      34.299 -13.507 -21.293  0.00  0.00    -0.020 C 
ATOM      6  C   UNL     1      34.800 -15.773 -23.073  0.00  0.00    -0.073 C 
ATOM      7  C   UNL     1      32.983 -16.121 -21.390  0.00  0.00    -0.073 C 
ATOM      8  C   UNL     1      35.000 -14.769 -20.792  0.00  0.00    -0.073 C 
ENDROOT
BRANCH   2   9
ATOM      9  C   UNL     1      32.607 -12.569 -22.922  0.00  0.00    +0.125 C 
BRANCH   9  10
ATOM     10  C   UNL     1      33.491 -11.872 -23.970  0.00  0.00    +0.006 C 
ATOM     11  C   UNL     1      33.505 -12.373 -25.247  0.00  0.00    -0.002 C 
ATOM     12  C   UNL     1      34.226 -10.781 -23.579  0.00  0.00    -0.002 C 
ATOM     13  C   UNL     1      34.307 -11.741 -26.197  0.00  0.00    -0.000 C 
ATOM     14  C   UNL     1      35.028 -10.148 -24.529  0.00  0.00    -0.000 C 
ATOM     15  C   UNL     1      35.068 -10.629 -25.838  0.00  0.00    -0.000 C 
ENDBRANCH   9  10
BRANCH   9  16
ATOM     16  C   UNL     1      32.180 -11.579 -21.825  0.00  0.00    +0.006 C 
ATOM     17  C   UNL     1      32.148 -10.241 -22.131  0.00  0.00    -0.002 C 
ATOM     18  C   UNL     1      31.851 -12.079 -20.589  0.00  0.00    -0.002 C 
ATOM     19  C   UNL     1      31.761  -9.345 -21.136  0.00  0.00    -0.000 C 
ATOM     20  C   UNL     1      31.464 -11.181 -19.595  0.00  0.00    -0.000 C 
ATOM     21  C   UNL     1      31.419  -9.815 -19.868  0.00  0.00    -0.000 C 
ENDBRANCH   9  16
BRANCH   9  22
ATOM     22  O   UNL     1      31.397 -13.047 -23.547  0.00  0.00    -0.379 OA
ATOM     23  H   UNL     1      30.665 -12.448 -23.332  0.00  0.00    +0.211 HD
ENDBRANCH   9  22
ENDBRANCH   2   9
BRANCH   1  24
ATOM     24  C   UNL     1      35.195 -17.238 -21.093  0.00  0.00    -0.040 C 
BRANCH  24  25
ATOM     25  C   UNL     1      35.719 -18.018 -22.283  0.00  0.00    +0.121 C 
BRANCH  25  26
ATOM     26  O   UNL     1      35.280 -19.368 -22.197  0.00  0.00    -0.351 OA
BRANCH  26  27
ATOM     27  C   UNL     1      34.096 -19.482 -21.420  0.00  0.00    +0.168 C 
BRANCH  27  28
ATOM     28  C   UNL     1      34.306 -20.520 -20.356  0.00  0.00    +0.007 C 
ATOM     29  C   UNL     1      33.208 -21.157 -19.790  0.00  0.00    -0.002 C 
ATOM     30  C   UNL     1      35.597 -20.835 -19.947  0.00  0.00    -0.002 C 
ATOM     31  C   UNL     1      33.403 -22.122 -18.802  0.00  0.00    -0.000 C 
ATOM     32  C   UNL     1      35.792 -21.800 -18.959  0.00  0.00    -0.000 C 
ATOM     33  C   UNL     1      34.694 -22.444 -18.386  0.00  0.00    -0.000 C 
ENDBRANCH  27  28
ENDBRANCH  26  27
ENDBRANCH  25  26
ENDBRANCH  24  25
ENDBRANCH   1  24
TORSDOF 9
ENDMDL
MODEL 2
REMARK VINA RESULT:     -10.1      0.014      1.374
REMARK  Name = 11519070
REMARK  9 active torsions:
REMARK  status: ('A' for Active; 'I' for Inactive)
REMARK    1  A    between atoms: N_1  and  C_24
REMARK    2  A    between atoms: C_2  and  C_9
REMARK    3  A    between atoms: C_9  and  C_10
REMARK    4  A    between atoms: C_9  and  C_16
REMARK    5  A    between atoms: C_9  and  O_22
REMARK    6  A    between atoms: C_24  and  C_25
REMARK    7  A    between atoms: C_25  and  O_26
REMARK    8  A    between atoms: O_26  and  C_27
REMARK    9  A    between atoms: C_27  and  C_28
REMARK                            x       y       z     vdW  Elec       q    Type
REMARK                         _______ _______ _______ _____ _____    ______ ____
ROOT
ATOM      1  N   UNL     1      34.496 -15.978 -21.590  0.00  0.00    +0.392 N 
ATOM      2  C   UNL     1      33.308 -13.832 -22.430  0.00  0.00    +0.024 C 
ATOM      3  C   UNL     1      32.286 -14.859 -21.907  0.00  0.00    -0.020 C 
ATOM      4  C   UNL     1      34.284 -13.508 -21.281  0.00  0.00    -0.020 C 
ATOM      5  C   UNL     1      34.112 -14.495 -23.563  0.00  0.00    -0.020 C 
ATOM      6  C   UNL     1      32.982 -16.128 -21.415  0.00  0.00    -0.073 C 
ATOM      7  C   UNL     1      34.985 -14.771 -20.782  0.00  0.00    -0.073 C 
ATOM      8  C   UNL     1      34.817 -15.759 -23.073  0.00  0.00    -0.073 C 
ENDROOT
BRANCH   2   9
ATOM      9  C   UNL     1      32.607 -12.567 -22.924  0.00  0.00    +0.125 C 
BRANCH   9  10
ATOM     10  C   UNL     1      33.491 -11.869 -23.973  0.00  0.00    +0.006 C 
ATOM     11  C   UNL     1      33.500 -12.368 -25.251  0.00  0.00    -0.002 C 
ATOM     12  C   UNL     1      34.229 -10.781 -23.582  0.00  0.00    -0.002 C 
ATOM     13  C   UNL     1      34.301 -11.736 -26.202  0.00  0.00    -0.000 C 
ATOM     14  C   UNL     1      35.030 -10.148 -24.533  0.00  0.00    -0.000 C 
ATOM     15  C   UNL     1      35.066 -10.626 -25.842  0.00  0.00    -0.000 C 
ENDBRANCH   9  10
BRANCH   9  16
ATOM     16  C   UNL     1      32.182 -11.577 -21.826  0.00  0.00    +0.006 C 
ATOM     17  C   UNL     1      31.855 -12.076 -20.590  0.00  0.00    -0.002 C 
ATOM     18  C   UNL     1      32.148 -10.239 -22.133  0.00  0.00    -0.002 C 
ATOM     19  C   UNL     1      31.470 -11.178 -19.595  0.00  0.00    -0.000 C 
ATOM     20  C   UNL     1      31.762  -9.342 -21.139  0.00  0.00    -0.000 C 
ATOM     21  C   UNL     1      31.423  -9.811 -19.870  0.00  0.00    -0.000 C 
ENDBRANCH   9  16
BRANCH   9  22
ATOM     22  O   UNL     1      31.396 -13.043 -23.547  0.00  0.00    -0.379 OA
ATOM     23  H   UNL     1      30.736 -13.237 -22.865  0.00  0.00    +0.211 HD
ENDBRANCH   9  22
ENDBRANCH   2   9
BRANCH   1  24
ATOM     24  C   UNL     1      35.194 -17.238 -21.098  0.00  0.00    -0.040 C 
BRANCH  24  25
ATOM     25  C   UNL     1      35.704 -18.025 -22.289  0.00  0.00    +0.121 C 
BRANCH  25  26
ATOM     26  O   UNL     1      35.266 -19.374 -22.190  0.00  0.00    -0.351 OA
BRANCH  26  27
ATOM     27  C   UNL     1      34.084 -19.482 -21.409  0.00  0.00    +0.168 C 
BRANCH  27  28
ATOM     28  C   UNL     1      34.293 -20.522 -20.347  0.00  0.00    +0.007 C 
ATOM     29  C   UNL     1      33.192 -21.154 -19.778  0.00  0.00    -0.002 C 
ATOM     30  C   UNL     1      35.583 -20.845 -19.943  0.00  0.00    -0.002 C 
ATOM     31  C   UNL     1      33.385 -22.121 -18.791  0.00  0.00    -0.000 C 
ATOM     32  C   UNL     1      35.775 -21.812 -18.956  0.00  0.00    -0.000 C 
ATOM     33  C   UNL     1      34.677 -22.450 -18.381  0.00  0.00    -0.000 C 
ENDBRANCH  27  28
ENDBRANCH  26  27
ENDBRANCH  25  26
ENDBRANCH  24  25
ENDBRANCH   1  24
TORSDOF 9
ENDMDL
MODEL 3
REMARK VINA RESULT:      -9.4      6.558     11.755
REMARK  Name = 11519070
REMARK  9 active torsions:
REMARK  status: ('A' for Active; 'I' for Inactive)
REMARK    1  A    between atoms: N_1  and  C_24
REMARK    2  A    between atoms: C_2  and  C_9
REMARK    3  A    between atoms: C_9  and  C_10
REMARK    4  A    between atoms: C_9  and  C_16
REMARK    5  A    between atoms: C_9  and  O_22
REMARK    6  A    between atoms: C_24  and  C_25
REMARK    7  A    between atoms: C_25  and  O_26
REMARK    8  A    between atoms: O_26  and  C_27
REMARK    9  A    between atoms: C_27  and  C_28
REMARK                            x       y       z     vdW  Elec       q    Type
REMARK                         _______ _______ _______ _____ _____    ______ ____
ROOT
ATOM      1  N   UNL     1      31.289  -5.338 -24.199  0.00  0.00    +0.392 N 
ATOM      2  C   UNL     1      32.504  -7.365 -23.133  0.00  0.00    +0.024 C 
ATOM      3  C   UNL     1      31.188  -7.802 -23.803  0.00  0.00    -0.020 C 
ATOM      4  C   UNL     1      33.384  -6.698 -24.207  0.00  0.00    -0.020 C 
ATOM      5  C   UNL     1      32.167  -6.304 -22.069  0.00  0.00    -0.020 C 
ATOM      6  C   UNL     1      30.466  -6.610 -24.430  0.00  0.00    -0.073 C 
ATOM      7  C   UNL     1      32.672  -5.504 -24.840  0.00  0.00    -0.073 C 
ATOM      8  C   UNL     1      31.453  -5.106 -22.693  0.00  0.00    -0.073 C 
ENDROOT
BRANCH   2   9
ATOM      9  C   UNL     1      33.220  -8.561 -22.505  0.00  0.00    +0.125 C 
BRANCH   9  10
ATOM     10  C   UNL     1      33.770  -9.470 -23.618  0.00  0.00    +0.006 C 
ATOM     11  C   UNL     1      33.089 -10.625 -23.910  0.00  0.00    -0.002 C 
ATOM     12  C   UNL     1      34.916  -9.086 -24.266  0.00  0.00    -0.002 C 
ATOM     13  C   UNL     1      33.587 -11.450 -24.919  0.00  0.00    -0.000 C 
ATOM     14  C   UNL     1      35.414  -9.910 -25.275  0.00  0.00    -0.000 C 
ATOM     15  C   UNL     1      34.750 -11.092 -25.601  0.00  0.00    -0.000 C 
ENDBRANCH   9  10
BRANCH   9  16
ATOM     16  C   UNL     1      32.388  -9.374 -21.500  0.00  0.00    +0.006 C 
ATOM     17  C   UNL     1      32.402  -8.993 -20.181  0.00  0.00    -0.002 C 
ATOM     18  C   UNL     1      31.669 -10.447 -21.967  0.00  0.00    -0.002 C 
ATOM     19  C   UNL     1      31.647  -9.731 -19.271  0.00  0.00    -0.000 C 
ATOM     20  C   UNL     1      30.914 -11.185 -21.056  0.00  0.00    -0.000 C 
ATOM     21  C   UNL     1      30.903 -10.827 -19.708  0.00  0.00    -0.000 C 
ENDBRANCH   9  16
BRANCH   9  22
ATOM     22  O   UNL     1      34.315  -7.981 -21.766  0.00  0.00    -0.379 OA
ATOM     23  H   UNL     1      33.966  -7.392 -21.079  0.00  0.00    +0.211 HD
ENDBRANCH   9  22
ENDBRANCH   2   9
BRANCH   1  24
ATOM     24  C   UNL     1      30.576  -4.148 -24.825  0.00  0.00    -0.040 C 
BRANCH  24  25
ATOM     25  C   UNL     1      31.363  -2.885 -24.537  0.00  0.00    +0.121 C 
BRANCH  25  26
ATOM     26  O   UNL     1      31.381  -2.061 -25.695  0.00  0.00    -0.351 OA
BRANCH  26  27
ATOM     27  C   UNL     1      32.642  -2.106 -26.347  0.00  0.00    +0.168 C 
BRANCH  27  28
ATOM     28  C   UNL     1      32.505  -2.876 -27.629  0.00  0.00    +0.007 C 
ATOM     29  C   UNL     1      33.369  -3.933 -27.892  0.00  0.00    -0.002 C 
ATOM     30  C   UNL     1      31.515  -2.526 -28.539  0.00  0.00    -0.002 C 
ATOM     31  C   UNL     1      33.241  -4.649 -29.082  0.00  0.00    -0.000 C 
ATOM     32  C   UNL     1      31.388  -3.242 -29.729  0.00  0.00    -0.000 C 
ATOM     33  C   UNL     1      32.251  -4.303 -30.000  0.00  0.00    -0.000 C 
ENDBRANCH  27  28
ENDBRANCH  26  27
ENDBRANCH  25  26
ENDBRANCH  24  25
ENDBRANCH   1  24
TORSDOF 9
ENDMDL
MODEL 4
REMARK VINA RESULT:      -9.3      1.517      4.012
REMARK  Name = 11519070
REMARK  9 active torsions:
REMARK  status: ('A' for Active; 'I' for Inactive)
REMARK    1  A    between atoms: N_1  and  C_24
REMARK    2  A    between atoms: C_2  and  C_9
REMARK    3  A    between atoms: C_9  and  C_10
REMARK    4  A    between atoms: C_9  and  C_16
REMARK    5  A    between atoms: C_9  and  O_22
REMARK    6  A    between atoms: C_24  and  C_25
REMARK    7  A    between atoms: C_25  and  O_26
REMARK    8  A    between atoms: O_26  and  C_27
REMARK    9  A    between atoms: C_27  and  C_28
REMARK                            x       y       z     vdW  Elec       q    Type
REMARK                         _______ _______ _______ _____ _____    ______ ____
ROOT
ATOM      1  N   UNL     1      34.000 -17.325 -21.410  0.00  0.00    +0.392 N 
ATOM      2  C   UNL     1      33.835 -14.905 -22.324  0.00  0.00    +0.024 C 
ATOM      3  C   UNL     1      34.876 -14.996 -21.192  0.00  0.00    -0.020 C 
ATOM      4  C   UNL     1      34.256 -15.885 -23.435  0.00  0.00    -0.020 C 
ATOM      5  C   UNL     1      32.480 -15.374 -21.763  0.00  0.00    -0.020 C 
ATOM      6  C   UNL     1      34.974 -16.421 -20.648  0.00  0.00    -0.073 C 
ATOM      7  C   UNL     1      34.356 -17.313 -22.901  0.00  0.00    -0.073 C 
ATOM      8  C   UNL     1      32.571 -16.802 -21.226  0.00  0.00    -0.073 C 
ENDROOT
BRANCH   2   9
ATOM      9  C   UNL     1      33.739 -13.477 -22.863  0.00  0.00    +0.125 C 
BRANCH   9  10
ATOM     10  C   UNL     1      32.666 -12.704 -22.076  0.00  0.00    +0.006 C 
ATOM     11  C   UNL     1      32.622 -12.857 -20.713  0.00  0.00    -0.002 C 
ATOM     12  C   UNL     1      31.802 -11.899 -22.772  0.00  0.00    -0.002 C 
ATOM     13  C   UNL     1      31.650 -12.158 -19.999  0.00  0.00    -0.000 C 
ATOM     14  C   UNL     1      30.829 -11.198 -22.059  0.00  0.00    -0.000 C 
ATOM     15  C   UNL     1      30.753 -11.328 -20.672  0.00  0.00    -0.000 C 
ENDBRANCH   9  10
BRANCH   9  16
ATOM     16  C   UNL     1      33.493 -13.359 -24.376  0.00  0.00    +0.006 C 
ATOM     17  C   UNL     1      32.817 -14.374 -25.008  0.00  0.00    -0.002 C 
ATOM     18  C   UNL     1      33.961 -12.245 -25.027  0.00  0.00    -0.002 C 
ATOM     19  C   UNL     1      32.595 -14.266 -26.380  0.00  0.00    -0.000 C 
ATOM     20  C   UNL     1      33.739 -12.138 -26.399  0.00  0.00    -0.000 C 
ATOM     21  C   UNL     1      33.056 -13.148 -27.076  0.00  0.00    -0.000 C 
ENDBRANCH   9  16
BRANCH   9  22
ATOM     22  O   UNL     1      35.038 -12.904 -22.606  0.00  0.00    -0.379 OA
ATOM     23  H   UNL     1      35.647 -13.600 -22.318  0.00  0.00    +0.211 HD
ENDBRANCH   9  22
ENDBRANCH   2   9
BRANCH   1  24
ATOM     24  C   UNL     1      34.096 -18.746 -20.873  0.00  0.00    -0.040 C 
BRANCH  24  25
ATOM     25  C   UNL     1      35.457 -19.318 -21.216  0.00  0.00    +0.121 C 
BRANCH  25  26
ATOM     26  O   UNL     1      36.120 -19.715 -20.022  0.00  0.00    -0.351 OA
BRANCH  26  27
ATOM     27  C   UNL     1      36.442 -21.099 -20.041  0.00  0.00    +0.168 C 
BRANCH  27  28
ATOM     28  C   UNL     1      35.830 -21.761 -18.841  0.00  0.00    +0.007 C 
ATOM     29  C   UNL     1      36.567 -21.875 -17.668  0.00  0.00    -0.002 C 
ATOM     30  C   UNL     1      34.531 -22.251 -18.913  0.00  0.00    -0.002 C 
ATOM     31  C   UNL     1      35.998 -22.490 -16.552  0.00  0.00    -0.000 C 
ATOM     32  C   UNL     1      33.963 -22.865 -17.797  0.00  0.00    -0.000 C 
ATOM     33  C   UNL     1      34.696 -22.984 -16.616  0.00  0.00    -0.000 C 
ENDBRANCH  27  28
ENDBRANCH  26  27
ENDBRANCH  25  26
ENDBRANCH  24  25
ENDBRANCH   1  24
TORSDOF 9
ENDMDL
MODEL 5
REMARK VINA RESULT:      -9.0      6.631     11.662
REMARK  Name = 11519070
REMARK  9 active torsions:
REMARK  status: ('A' for Active; 'I' for Inactive)
REMARK    1  A    between atoms: N_1  and  C_24
REMARK    2  A    between atoms: C_2  and  C_9
REMARK    3  A    between atoms: C_9  and  C_10
REMARK    4  A    between atoms: C_9  and  C_16
REMARK    5  A    between atoms: C_9  and  O_22
REMARK    6  A    between atoms: C_24  and  C_25
REMARK    7  A    between atoms: C_25  and  O_26
REMARK    8  A    between atoms: O_26  and  C_27
REMARK    9  A    between atoms: C_27  and  C_28
REMARK                            x       y       z     vdW  Elec       q    Type
REMARK                         _______ _______ _______ _____ _____    ______ ____
ROOT
ATOM      1  N   UNL     1      31.380  -5.278 -24.292  0.00  0.00    +0.392 N 
ATOM      2  C   UNL     1      32.539  -7.322 -23.199  0.00  0.00    +0.024 C 
ATOM      3  C   UNL     1      31.228  -7.738 -23.891  0.00  0.00    -0.020 C 
ATOM      4  C   UNL     1      33.450  -6.675 -24.260  0.00  0.00    -0.020 C 
ATOM      5  C   UNL     1      32.203  -6.252 -22.144  0.00  0.00    -0.020 C 
ATOM      6  C   UNL     1      30.538  -6.535 -24.533  0.00  0.00    -0.073 C 
ATOM      7  C   UNL     1      32.770  -5.470 -24.908  0.00  0.00    -0.073 C 
ATOM      8  C   UNL     1      31.521  -5.043 -22.784  0.00  0.00    -0.073 C 
ENDROOT
BRANCH   2   9
ATOM      9  C   UNL     1      33.223  -8.529 -22.555  0.00  0.00    +0.125 C 
BRANCH   9  10
ATOM     10  C   UNL     1      33.790  -9.443 -23.655  0.00  0.00    +0.006 C 
ATOM     11  C   UNL     1      34.955  -9.070 -24.276  0.00  0.00    -0.002 C 
ATOM     12  C   UNL     1      33.104 -10.590 -23.965  0.00  0.00    -0.002 C 
ATOM     13  C   UNL     1      35.469  -9.898 -25.273  0.00  0.00    -0.000 C 
ATOM     14  C   UNL     1      33.617 -11.419 -24.962  0.00  0.00    -0.000 C 
ATOM     15  C   UNL     1      34.799 -11.073 -25.616  0.00  0.00    -0.000 C 
ENDBRANCH   9  10
BRANCH   9  16
ATOM     16  C   UNL     1      32.354  -9.333 -21.574  0.00  0.00    +0.006 C 
ATOM     17  C   UNL     1      31.569 -10.342 -22.074  0.00  0.00    -0.002 C 
ATOM     18  C   UNL     1      32.402  -9.004 -20.241  0.00  0.00    -0.002 C 
ATOM     19  C   UNL     1      30.781 -11.070 -21.184  0.00  0.00    -0.000 C 
ATOM     20  C   UNL     1      31.613  -9.733 -19.352  0.00  0.00    -0.000 C 
ATOM     21  C   UNL     1      30.803 -10.765 -19.823  0.00  0.00    -0.000 C 
ENDBRANCH   9  16
BRANCH   9  22
ATOM     22  O   UNL     1      34.306  -7.964 -21.786  0.00  0.00    -0.379 OA
ATOM     23  H   UNL     1      34.260  -8.290 -20.874  0.00  0.00    +0.211 HD
ENDBRANCH   9  22
ENDBRANCH   2   9
BRANCH   1  24
ATOM     24  C   UNL     1      30.699  -4.077 -24.933  0.00  0.00    -0.040 C 
BRANCH  24  25
ATOM     25  C   UNL     1      31.755  -3.132 -25.472  0.00  0.00    +0.121 C 
BRANCH  25  26
ATOM     26  O   UNL     1      31.852  -3.282 -26.882  0.00  0.00    -0.351 OA
BRANCH  26  27
ATOM     27  C   UNL     1      32.641  -2.252 -27.462  0.00  0.00    +0.168 C 
BRANCH  27  28
ATOM     28  C   UNL     1      34.052  -2.743 -27.615  0.00  0.00    +0.007 C 
ATOM     29  C   UNL     1      35.104  -1.835 -27.566  0.00  0.00    -0.002 C 
ATOM     30  C   UNL     1      34.293  -4.098 -27.802  0.00  0.00    -0.002 C 
ATOM     31  C   UNL     1      36.415  -2.290 -27.707  0.00  0.00    -0.000 C 
ATOM     32  C   UNL     1      35.604  -4.553 -27.943  0.00  0.00    -0.000 C 
ATOM     33  C   UNL     1      36.665  -3.649 -27.896  0.00  0.00    -0.000 C 
ENDBRANCH  27  28
ENDBRANCH  26  27
ENDBRANCH  25  26
ENDBRANCH  24  25
ENDBRANCH   1  24
TORSDOF 9
ENDMDL
MODEL 6
REMARK VINA RESULT:      -8.9      1.828      8.799
REMARK  Name = 11519070
REMARK  9 active torsions:
REMARK  status: ('A' for Active; 'I' for Inactive)
REMARK    1  A    between atoms: N_1  and  C_24
REMARK    2  A    between atoms: C_2  and  C_9
REMARK    3  A    between atoms: C_9  and  C_10
REMARK    4  A    between atoms: C_9  and  C_16
REMARK    5  A    between atoms: C_9  and  O_22
REMARK    6  A    between atoms: C_24  and  C_25
REMARK    7  A    between atoms: C_25  and  O_26
REMARK    8  A    between atoms: O_26  and  C_27
REMARK    9  A    between atoms: C_27  and  C_28
REMARK                            x       y       z     vdW  Elec       q    Type
REMARK                         _______ _______ _______ _____ _____    ______ ____
ROOT
ATOM      1  N   UNL     1      33.016 -14.614 -20.877  0.00  0.00    +0.392 N 
ATOM      2  C   UNL     1      34.266 -16.810 -21.456  0.00  0.00    +0.024 C 
ATOM      3  C   UNL     1      34.981 -16.053 -20.321  0.00  0.00    -0.020 C 
ATOM      4  C   UNL     1      32.825 -17.102 -20.997  0.00  0.00    -0.020 C 
ATOM      5  C   UNL     1      34.196 -15.877 -22.680  0.00  0.00    -0.020 C 
ATOM      6  C   UNL     1      34.249 -14.755 -19.979  0.00  0.00    -0.073 C 
ATOM      7  C   UNL     1      32.084 -15.810 -20.653  0.00  0.00    -0.073 C 
ATOM      8  C   UNL     1      33.458 -14.582 -22.344  0.00  0.00    -0.073 C 
ENDROOT
BRANCH   2   9
ATOM      9  C   UNL     1      35.004 -18.105 -21.797  0.00  0.00    +0.125 C 
BRANCH   9  10
ATOM     10  C   UNL     1      34.825 -18.417 -23.293  0.00  0.00    +0.006 C 
ATOM     11  C   UNL     1      34.666 -17.367 -24.162  0.00  0.00    -0.002 C 
ATOM     12  C   UNL     1      34.831 -19.730 -23.690  0.00  0.00    -0.002 C 
ATOM     13  C   UNL     1      34.503 -17.649 -25.518  0.00  0.00    -0.000 C 
ATOM     14  C   UNL     1      34.670 -20.013 -25.046  0.00  0.00    -0.000 C 
ATOM     15  C   UNL     1      34.505 -18.973 -25.960  0.00  0.00    -0.000 C 
ENDBRANCH   9  10
BRANCH   9  16
ATOM     16  C   UNL     1      34.626 -19.324 -20.939  0.00  0.00    +0.006 C 
ATOM     17  C   UNL     1      35.637 -20.063 -20.375  0.00  0.00    -0.002 C 
ATOM     18  C   UNL     1      33.295 -19.618 -20.776  0.00  0.00    -0.002 C 
ATOM     19  C   UNL     1      35.293 -21.168 -19.598  0.00  0.00    -0.000 C 
ATOM     20  C   UNL     1      32.953 -20.724 -19.998  0.00  0.00    -0.000 C 
ATOM     21  C   UNL     1      33.951 -21.498 -19.409  0.00  0.00    -0.000 C 
ENDBRANCH   9  16
BRANCH   9  22
ATOM     22  O   UNL     1      36.391 -17.816 -21.523  0.00  0.00    -0.379 OA
ATOM     23  H   UNL     1      36.923 -18.008 -22.311  0.00  0.00    +0.211 HD
ENDBRANCH   9  22
ENDBRANCH   2   9
BRANCH   1  24
ATOM     24  C   UNL     1      32.283 -13.325 -20.537  0.00  0.00    -0.040 C 
BRANCH  24  25
ATOM     25  C   UNL     1      32.018 -12.549 -21.813  0.00  0.00    +0.121 C 
BRANCH  25  26
ATOM     26  O   UNL     1      31.871 -11.168 -21.508  0.00  0.00    -0.351 OA
BRANCH  26  27
ATOM     27  C   UNL     1      31.556 -10.410 -22.667  0.00  0.00    +0.168 C 
BRANCH  27  28
ATOM     28  C   UNL     1      32.707  -9.500 -22.985  0.00  0.00    +0.007 C 
ATOM     29  C   UNL     1      32.776  -8.245 -22.390  0.00  0.00    -0.002 C 
ATOM     30  C   UNL     1      33.694  -9.920 -23.868  0.00  0.00    -0.002 C 
ATOM     31  C   UNL     1      33.845  -7.399 -22.683  0.00  0.00    -0.000 C 
ATOM     32  C   UNL     1      34.764  -9.074 -24.162  0.00  0.00    -0.000 C 
ATOM     33  C   UNL     1      34.839  -7.814 -23.569  0.00  0.00    -0.000 C 
ENDBRANCH  27  28
ENDBRANCH  26  27
ENDBRANCH  25  26
ENDBRANCH  24  25
ENDBRANCH   1  24
TORSDOF 9
ENDMDL
MODEL 7
REMARK VINA RESULT:      -8.3      3.441      5.959
REMARK  Name = 11519070
REMARK  9 active torsions:
REMARK  status: ('A' for Active; 'I' for Inactive)
REMARK    1  A    between atoms: N_1  and  C_24
REMARK    2  A    between atoms: C_2  and  C_9
REMARK    3  A    between atoms: C_9  and  C_10
REMARK    4  A    between atoms: C_9  and  C_16
REMARK    5  A    between atoms: C_9  and  O_22
REMARK    6  A    between atoms: C_24  and  C_25
REMARK    7  A    between atoms: C_25  and  O_26
REMARK    8  A    between atoms: O_26  and  C_27
REMARK    9  A    between atoms: C_27  and  C_28
REMARK                            x       y       z     vdW  Elec       q    Type
REMARK                         _______ _______ _______ _____ _____    ______ ____
ROOT
ATOM      1  N   UNL     1      34.186 -11.392 -25.525  0.00  0.00    +0.392 N 
ATOM      2  C   UNL     1      33.530  -9.669 -23.704  0.00  0.00    +0.024 C 
ATOM      3  C   UNL     1      32.459  -9.736 -24.809  0.00  0.00    -0.020 C 
ATOM      4  C   UNL     1      33.677 -11.078 -23.100  0.00  0.00    -0.020 C 
ATOM      5  C   UNL     1      34.870  -9.291 -24.361  0.00  0.00    -0.020 C 
ATOM      6  C   UNL     1      32.844 -10.749 -25.888  0.00  0.00    -0.073 C 
ATOM      7  C   UNL     1      34.062 -12.099 -24.170  0.00  0.00    -0.073 C 
ATOM      8  C   UNL     1      35.263 -10.306 -25.434  0.00  0.00    -0.073 C 
ENDROOT
BRANCH   2   9
ATOM      9  C   UNL     1      33.142  -8.652 -22.630  0.00  0.00    +0.125 C 
BRANCH   9  10
ATOM     10  C   UNL     1      32.325  -9.355 -21.531  0.00  0.00    +0.006 C 
ATOM     11  C   UNL     1      31.450 -10.344 -21.904  0.00  0.00    -0.002 C 
ATOM     12  C   UNL     1      32.508  -8.961 -20.231  0.00  0.00    -0.002 C 
ATOM     13  C   UNL     1      30.709 -10.981 -20.909  0.00  0.00    -0.000 C 
ATOM     14  C   UNL     1      31.769  -9.598 -19.234  0.00  0.00    -0.000 C 
ATOM     15  C   UNL     1      30.869 -10.607 -19.574  0.00  0.00    -0.000 C 
ENDBRANCH   9  10
BRANCH   9  16
ATOM     16  C   UNL     1      32.404  -7.403 -23.140  0.00  0.00    +0.006 C 
ATOM     17  C   UNL     1      31.175  -7.108 -22.606  0.00  0.00    -0.002 C 
ATOM     18  C   UNL     1      33.009  -6.640 -24.108  0.00  0.00    -0.002 C 
ATOM     19  C   UNL     1      30.507  -5.975 -23.069  0.00  0.00    -0.000 C 
ATOM     20  C   UNL     1      32.340  -5.508 -24.571  0.00  0.00    -0.000 C 
ATOM     21  C   UNL     1      31.089  -5.175 -24.052  0.00  0.00    -0.000 C 
ENDBRANCH   9  16
BRANCH   9  22
ATOM     22  O   UNL     1      34.400  -8.200 -22.086  0.00  0.00    -0.379 OA
ATOM     23  H   UNL     1      34.847  -8.941 -21.648  0.00  0.00    +0.211 HD
ENDBRANCH   9  22
ENDBRANCH   2   9
BRANCH   1  24
ATOM     24  C   UNL     1      34.572 -12.404 -26.594  0.00  0.00    -0.040 C 
BRANCH  24  25
ATOM     25  C   UNL     1      33.360 -13.243 -26.949  0.00  0.00    +0.121 C 
BRANCH  25  26
ATOM     26  O   UNL     1      33.728 -14.616 -26.993  0.00  0.00    -0.351 OA
BRANCH  26  27
ATOM     27  C   UNL     1      32.901 -15.404 -26.149  0.00  0.00    +0.168 C 
BRANCH  27  28
ATOM     28  C   UNL     1      33.759 -16.094 -25.128  0.00  0.00    +0.007 C 
ATOM     29  C   UNL     1      34.180 -17.400 -25.354  0.00  0.00    -0.002 C 
ATOM     30  C   UNL     1      34.126 -15.422 -23.969  0.00  0.00    -0.002 C 
ATOM     31  C   UNL     1      34.978 -18.042 -24.407  0.00  0.00    -0.000 C 
ATOM     32  C   UNL     1      34.923 -16.064 -23.021  0.00  0.00    -0.000 C 
ATOM     33  C   UNL     1      35.349 -17.374 -23.241  0.00  0.00    -0.000 C 
ENDBRANCH  27  28
ENDBRANCH  26  27
ENDBRANCH  25  26
ENDBRANCH  24  25
ENDBRANCH   1  24
TORSDOF 9
ENDMDL
MODEL 8
REMARK VINA RESULT:      -7.5      3.797     11.309
REMARK  Name = 11519070
REMARK  9 active torsions:
REMARK  status: ('A' for Active; 'I' for Inactive)
REMARK    1  A    between atoms: N_1  and  C_24
REMARK    2  A    between atoms: C_2  and  C_9
REMARK    3  A    between atoms: C_9  and  C_10
REMARK    4  A    between atoms: C_9  and  C_16
REMARK    5  A    between atoms: C_9  and  O_22
REMARK    6  A    between atoms: C_24  and  C_25
REMARK    7  A    between atoms: C_25  and  O_26
REMARK    8  A    between atoms: O_26  and  C_27
REMARK    9  A    between atoms: C_27  and  C_28
REMARK                            x       y       z     vdW  Elec       q    Type
REMARK                         _______ _______ _______ _____ _____    ______ ____
ROOT
ATOM      1  N   UNL     1      34.708 -21.349 -19.957  0.00  0.00    +0.392 N 
ATOM      2  C   UNL     1      34.192 -22.892 -17.940  0.00  0.00    +0.024 C 
ATOM      3  C   UNL     1      34.306 -23.707 -19.241  0.00  0.00    -0.020 C 
ATOM      4  C   UNL     1      35.522 -22.142 -17.733  0.00  0.00    -0.020 C 
ATOM      5  C   UNL     1      33.080 -21.845 -18.130  0.00  0.00    -0.020 C 
ATOM      6  C   UNL     1      34.606 -22.801 -20.435  0.00  0.00    -0.073 C 
ATOM      7  C   UNL     1      35.831 -21.232 -18.921  0.00  0.00    -0.073 C 
ATOM      8  C   UNL     1      33.380 -20.930 -19.316  0.00  0.00    -0.073 C 
ENDROOT
BRANCH   2   9
ATOM      9  C   UNL     1      33.888 -23.803 -16.750  0.00  0.00    +0.125 C 
BRANCH   9  10
ATOM     10  C   UNL     1      32.555 -23.380 -16.109  0.00  0.00    +0.006 C 
ATOM     11  C   UNL     1      32.559 -22.998 -14.792  0.00  0.00    -0.002 C 
ATOM     12  C   UNL     1      31.424 -23.405 -16.884  0.00  0.00    -0.002 C 
ATOM     13  C   UNL     1      31.350 -22.614 -14.210  0.00  0.00    -0.000 C 
ATOM     14  C   UNL     1      30.214 -23.021 -16.304  0.00  0.00    -0.000 C 
ATOM     15  C   UNL     1      30.178 -22.627 -14.967  0.00  0.00    -0.000 C 
ENDBRANCH   9  10
BRANCH   9  16
ATOM     16  C   UNL     1      34.997 -23.893 -15.688  0.00  0.00    +0.006 C 
ATOM     17  C   UNL     1      35.477 -25.134 -15.350  0.00  0.00    -0.002 C 
ATOM     18  C   UNL     1      35.456 -22.728 -15.126  0.00  0.00    -0.002 C 
ATOM     19  C   UNL     1      36.483 -25.214 -14.388  0.00  0.00    -0.000 C 
ATOM     20  C   UNL     1      36.461 -22.809 -14.163  0.00  0.00    -0.000 C 
ATOM     21  C   UNL     1      36.974 -24.052 -13.794  0.00  0.00    -0.000 C 
ENDBRANCH   9  16
BRANCH   9  22
ATOM     22  O   UNL     1      33.755 -25.120 -17.326  0.00  0.00    -0.379 OA
ATOM     23  H   UNL     1      32.925 -25.521 -17.026  0.00  0.00    +0.211 HD
ENDBRANCH   9  22
ENDBRANCH   2   9
BRANCH   1  24
ATOM     24  C   UNL     1      35.011 -20.442 -21.142  0.00  0.00    -0.040 C 
BRANCH  24  25
ATOM     25  C   UNL     1      34.227 -19.152 -20.998  0.00  0.00    +0.121 C 
BRANCH  25  26
ATOM     26  O   UNL     1      35.128 -18.058 -20.897  0.00  0.00    -0.351 OA
BRANCH  26  27
ATOM     27  C   UNL     1      35.958 -17.958 -22.047  0.00  0.00    +0.168 C 
BRANCH  27  28
ATOM     28  C   UNL     1      35.222 -17.206 -23.118  0.00  0.00    +0.007 C 
ATOM     29  C   UNL     1      34.818 -15.897 -22.884  0.00  0.00    -0.002 C 
ATOM     30  C   UNL     1      34.953 -17.825 -24.333  0.00  0.00    -0.002 C 
ATOM     31  C   UNL     1      34.135 -15.197 -23.879  0.00  0.00    -0.000 C 
ATOM     32  C   UNL     1      34.270 -17.125 -25.327  0.00  0.00    -0.000 C 
ATOM     33  C   UNL     1      33.861 -15.811 -25.100  0.00  0.00    -0.000 C 
ENDBRANCH  27  28
ENDBRANCH  26  27
ENDBRANCH  25  26
ENDBRANCH  24  25
ENDBRANCH   1  24
TORSDOF 9
ENDMDL
MODEL 9
REMARK VINA RESULT:      -7.5      3.230      6.016
REMARK  Name = 11519070
REMARK  9 active torsions:
REMARK  status: ('A' for Active; 'I' for Inactive)
REMARK    1  A    between atoms: N_1  and  C_24
REMARK    2  A    between atoms: C_2  and  C_9
REMARK    3  A    between atoms: C_9  and  C_10
REMARK    4  A    between atoms: C_9  and  C_16
REMARK    5  A    between atoms: C_9  and  O_22
REMARK    6  A    between atoms: C_24  and  C_25
REMARK    7  A    between atoms: C_25  and  O_26
REMARK    8  A    between atoms: O_26  and  C_27
REMARK    9  A    between atoms: C_27  and  C_28
REMARK                            x       y       z     vdW  Elec       q    Type
REMARK                         _______ _______ _______ _____ _____    ______ ____
ROOT
ATOM      1  N   UNL     1      33.453 -11.439 -24.477  0.00  0.00    +0.392 N 
ATOM      2  C   UNL     1      33.773  -8.936 -23.882  0.00  0.00    +0.024 C 
ATOM      3  C   UNL     1      35.106  -9.573 -24.318  0.00  0.00    -0.020 C 
ATOM      4  C   UNL     1      32.767  -9.103 -25.037  0.00  0.00    -0.020 C 
ATOM      5  C   UNL     1      33.241  -9.726 -22.671  0.00  0.00    -0.020 C 
ATOM      6  C   UNL     1      34.923 -11.050 -24.666  0.00  0.00    -0.073 C 
ATOM      7  C   UNL     1      32.577 -10.577 -25.393  0.00  0.00    -0.073 C 
ATOM      8  C   UNL     1      33.049 -11.202 -23.018  0.00  0.00    -0.073 C 
ENDROOT
BRANCH   2   9
ATOM      9  C   UNL     1      33.962  -7.460 -23.531  0.00  0.00    +0.125 C 
BRANCH   9  10
ATOM     10  C   UNL     1      32.990  -7.074 -22.403  0.00  0.00    +0.006 C 
ATOM     11  C   UNL     1      31.866  -6.357 -22.729  0.00  0.00    -0.002 C 
ATOM     12  C   UNL     1      33.291  -7.462 -21.123  0.00  0.00    -0.002 C 
ATOM     13  C   UNL     1      30.985  -6.006 -21.707  0.00  0.00    -0.000 C 
ATOM     14  C   UNL     1      32.410  -7.113 -20.099  0.00  0.00    -0.000 C 
ATOM     15  C   UNL     1      31.258  -6.384 -20.392  0.00  0.00    -0.000 C 
ENDBRANCH   9  10
BRANCH   9  16
ATOM     16  C   UNL     1      33.841  -6.482 -24.712  0.00  0.00    +0.006 C 
ATOM     17  C   UNL     1      34.930  -6.308 -25.529  0.00  0.00    -0.002 C 
ATOM     18  C   UNL     1      32.649  -5.825 -24.894  0.00  0.00    -0.002 C 
ATOM     19  C   UNL     1      34.820  -5.421 -26.598  0.00  0.00    -0.000 C 
ATOM     20  C   UNL     1      32.539  -4.938 -25.964  0.00  0.00    -0.000 C 
ATOM     21  C   UNL     1      33.624  -4.736 -26.816  0.00  0.00    -0.000 C 
ENDBRANCH   9  16
BRANCH   9  22
ATOM     22  O   UNL     1      35.321  -7.372 -23.054  0.00  0.00    -0.379 OA
ATOM     23  H   UNL     1      35.518  -6.455 -22.808  0.00  0.00    +0.211 HD
ENDBRANCH   9  22
ENDBRANCH   2   9
BRANCH   1  24
ATOM     24  C   UNL     1      33.266 -12.908 -24.826  0.00  0.00    -0.040 C 
BRANCH  24  25
ATOM     25  C   UNL     1      32.975 -13.690 -23.560  0.00  0.00    +0.121 C 
BRANCH  25  26
ATOM     26  O   UNL     1      33.388 -15.040 -23.729  0.00  0.00    -0.351 OA
BRANCH  26  27
ATOM     27  C   UNL     1      34.632 -15.288 -23.090  0.00  0.00    +0.168 C 
BRANCH  27  28
ATOM     28  C   UNL     1      34.734 -16.751 -22.767  0.00  0.00    +0.007 C 
ATOM     29  C   UNL     1      34.835 -17.677 -23.799  0.00  0.00    -0.002 C 
ATOM     30  C   UNL     1      34.727 -17.166 -21.441  0.00  0.00    -0.002 C 
ATOM     31  C   UNL     1      34.930 -19.036 -23.501  0.00  0.00    -0.000 C 
ATOM     32  C   UNL     1      34.822 -18.525 -21.143  0.00  0.00    -0.000 C 
ATOM     33  C   UNL     1      34.924 -19.460 -22.173  0.00  0.00    -0.000 C 
ENDBRANCH  27  28
ENDBRANCH  26  27
ENDBRANCH  25  26
ENDBRANCH  24  25
ENDBRANCH   1  24
TORSDOF 9
ENDMDL
