MODEL 1
REMARK VINA RESULT:     -10.7      0.000      0.000
REMARK  Name = 18142
REMARK  5 active torsions:
REMARK  status: ('A' for Active; 'I' for Inactive)
REMARK    1  A    between atoms: C_5  and  C_19
REMARK    2  A    between atoms: C_5  and  O_21
REMARK    3  A    between atoms: C_18  and  O_25
REMARK    4  A    between atoms: O_21  and  C_23
REMARK    5  A    between atoms: O_25  and  C_26
REMARK                            x       y       z     vdW  Elec       q    Type
REMARK                         _______ _______ _______ _____ _____    ______ ____
ROOT
ATOM      1  C   UNL     1      34.330 -18.929 -21.817  0.00  0.00    +0.045 C 
ATOM      2  C   UNL     1      35.641 -19.632 -21.403  0.00  0.00    +0.005 C 
ATOM      3  C   UNL     1      35.595 -20.199 -19.982  0.00  0.00    +0.005 C 
ATOM      4  C   UNL     1      34.423 -21.216 -19.864  0.00  0.00    +0.004 C 
ATOM      5  C   UNL     1      34.737 -18.376 -23.216  0.00  0.00    +0.189 C 
ATOM      6  C   UNL     1      33.202 -19.977 -21.779  0.00  0.00    +0.004 C 
ATOM      7  C   UNL     1      36.720 -18.606 -21.740  0.00  0.00    +0.005 C 
ATOM      8  C   UNL     1      33.087 -20.646 -20.397  0.00  0.00    +0.000 C 
ATOM      9  C   UNL     1      36.184 -17.868 -22.983  0.00  0.00    +0.053 C 
ATOM     10  C   UNL     1      34.310 -21.700 -18.389  0.00  0.00    +0.023 C 
ATOM     11  C   UNL     1      36.923 -20.872 -19.600  0.00  0.00    +0.026 C 
ATOM     12  C   UNL     1      33.937 -17.746 -20.885  0.00  0.00    +0.004 C 
ATOM     13  C   UNL     1      35.663 -22.099 -17.809  0.00  0.00    -0.024 C 
ATOM     14  C   UNL     1      33.306 -22.860 -18.238  0.00  0.00    +0.012 C 
ATOM     15  C   UNL     1      36.825 -21.720 -18.369  0.00  0.00    -0.030 C 
ATOM     16  C   UNL     1      33.193 -23.327 -16.782  0.00  0.00    +0.064 C 
ATOM     17  C   UNL     1      35.652 -22.923 -16.612  0.00  0.00    +0.028 C 
ATOM     18  C   UNL     1      34.533 -23.470 -16.120  0.00  0.00    +0.116 C 
ENDROOT
BRANCH   5  19
ATOM     19  C   UNL     1      34.729 -19.393 -24.286  0.00  0.00    -0.040 C 
ATOM     20  C   UNL     1      34.723 -20.220 -25.156  0.00  0.00    -0.011 C 
ENDBRANCH   5  19
BRANCH   5  21
ATOM     21  O   UNL     1      33.915 -17.291 -23.628  0.00  0.00    -0.443 OA
BRANCH  21  23
ATOM     22  O   UNL     1      34.846 -16.600 -25.626  0.00  0.00    -0.250 OA
ATOM     23  C   UNL     1      34.500 -16.387 -24.471  0.00  0.00    +0.318 C 
ATOM     24  C   UNL     1      34.662 -15.070 -23.775  0.00  0.00    +0.121 C 
ENDBRANCH  21  23
ENDBRANCH   5  21
BRANCH  18  25
ATOM     25  O   UNL     1      34.574 -24.229 -14.967  0.00  0.00    -0.483 OA
BRANCH  25  26
ATOM     26  C   UNL     1      35.876 -24.686 -14.664  0.00  0.00    +0.165 C 
ATOM     27  C   UNL     1      36.080 -26.113 -15.144  0.00  0.00    +0.044 C 
ATOM     28  C   UNL     1      36.100 -24.804 -13.164  0.00  0.00    +0.044 C 
ATOM     29  C   UNL     1      37.261 -26.614 -14.322  0.00  0.00    +0.004 C 
ATOM     30  C   UNL     1      37.264 -25.779 -13.037  0.00  0.00    +0.004 C 
ENDBRANCH  25  26
ENDBRANCH  18  25
TORSDOF 5
ENDMDL
MODEL 2
REMARK VINA RESULT:     -10.7      1.610      9.848
REMARK  Name = 18142
REMARK  5 active torsions:
REMARK  status: ('A' for Active; 'I' for Inactive)
REMARK    1  A    between atoms: C_5  and  C_19
REMARK    2  A    between atoms: C_5  and  O_21
REMARK    3  A    between atoms: C_18  and  O_25
REMARK    4  A    between atoms: O_21  and  C_23
REMARK    5  A    between atoms: O_25  and  C_26
REMARK                            x       y       z     vdW  Elec       q    Type
REMARK                         _______ _______ _______ _____ _____    ______ ____
ROOT
ATOM      1  C   UNL     1      36.223 -23.353 -15.243  0.00  0.00    +0.045 C 
ATOM      2  C   UNL     1      35.002 -23.672 -16.131  0.00  0.00    +0.005 C 
ATOM      3  C   UNL     1      34.668 -22.549 -17.117  0.00  0.00    +0.005 C 
ATOM      4  C   UNL     1      35.895 -22.276 -18.032  0.00  0.00    +0.004 C 
ATOM      5  C   UNL     1      36.220 -24.596 -14.303  0.00  0.00    +0.189 C 
ATOM      6  C   UNL     1      37.444 -23.175 -16.165  0.00  0.00    +0.004 C 
ATOM      7  C   UNL     1      33.931 -24.101 -15.131  0.00  0.00    +0.005 C 
ATOM      8  C   UNL     1      37.205 -22.089 -17.229  0.00  0.00    +0.000 C 
ATOM      9  C   UNL     1      34.712 -24.801 -14.000  0.00  0.00    +0.053 C 
ATOM     10  C   UNL     1      35.589 -21.057 -18.951  0.00  0.00    +0.023 C 
ATOM     11  C   UNL     1      33.435 -22.894 -17.968  0.00  0.00    +0.026 C 
ATOM     12  C   UNL     1      36.055 -22.061 -14.392  0.00  0.00    +0.004 C 
ATOM     13  C   UNL     1      34.217 -21.163 -19.609  0.00  0.00    -0.024 C 
ATOM     14  C   UNL     1      36.677 -20.857 -20.026  0.00  0.00    +0.012 C 
ATOM     15  C   UNL     1      33.264 -21.995 -19.154  0.00  0.00    -0.030 C 
ATOM     16  C   UNL     1      36.374 -19.651 -20.922  0.00  0.00    +0.064 C 
ATOM     17  C   UNL     1      33.973 -20.320 -20.768  0.00  0.00    +0.028 C 
ATOM     18  C   UNL     1      34.940 -19.609 -21.362  0.00  0.00    +0.116 C 
ENDROOT
BRANCH   5  19
ATOM     19  C   UNL     1      36.775 -25.816 -14.924  0.00  0.00    -0.040 C 
ATOM     20  C   UNL     1      37.226 -26.808 -15.428  0.00  0.00    -0.011 C 
ENDBRANCH   5  19
BRANCH   5  21
ATOM     21  O   UNL     1      36.919 -24.358 -13.088  0.00  0.00    -0.443 OA
BRANCH  21  23
ATOM     22  O   UNL     1      36.843 -26.323 -11.875  0.00  0.00    -0.250 OA
ATOM     23  C   UNL     1      36.557 -25.142 -12.028  0.00  0.00    +0.318 C 
ATOM     24  C   UNL     1      35.743 -24.343 -11.056  0.00  0.00    +0.121 C 
ENDBRANCH  21  23
ENDBRANCH   5  21
BRANCH  18  25
ATOM     25  O   UNL     1      34.650 -18.809 -22.450  0.00  0.00    -0.483 OA
BRANCH  25  26
ATOM     26  C   UNL     1      35.036 -17.464 -22.252  0.00  0.00    +0.165 C 
ATOM     27  C   UNL     1      34.192 -16.808 -21.171  0.00  0.00    +0.044 C 
ATOM     28  C   UNL     1      34.739 -16.605 -23.472  0.00  0.00    +0.044 C 
ATOM     29  C   UNL     1      34.350 -15.316 -21.435  0.00  0.00    +0.004 C 
ATOM     30  C   UNL     1      34.688 -15.184 -22.923  0.00  0.00    +0.004 C 
ENDBRANCH  25  26
ENDBRANCH  18  25
TORSDOF 5
ENDMDL
MODEL 3
REMARK VINA RESULT:      -9.3      1.543      2.169
REMARK  Name = 18142
REMARK  5 active torsions:
REMARK  status: ('A' for Active; 'I' for Inactive)
REMARK    1  A    between atoms: C_5  and  C_19
REMARK    2  A    between atoms: C_5  and  O_21
REMARK    3  A    between atoms: C_18  and  O_25
REMARK    4  A    between atoms: O_21  and  C_23
REMARK    5  A    between atoms: O_25  and  C_26
REMARK                            x       y       z     vdW  Elec       q    Type
REMARK                         _______ _______ _______ _____ _____    ______ ____
ROOT
ATOM      1  C   UNL     1      34.276 -18.938 -21.791  0.00  0.00    +0.045 C 
ATOM      2  C   UNL     1      35.564 -19.656 -21.334  0.00  0.00    +0.005 C 
ATOM      3  C   UNL     1      35.455 -20.242 -19.923  0.00  0.00    +0.005 C 
ATOM      4  C   UNL     1      34.272 -21.250 -19.867  0.00  0.00    +0.004 C 
ATOM      5  C   UNL     1      34.744 -18.369 -23.165  0.00  0.00    +0.189 C 
ATOM      6  C   UNL     1      33.139 -19.976 -21.813  0.00  0.00    +0.004 C 
ATOM      7  C   UNL     1      36.664 -18.635 -21.612  0.00  0.00    +0.005 C 
ATOM      8  C   UNL     1      32.962 -20.662 -20.447  0.00  0.00    +0.000 C 
ATOM      9  C   UNL     1      36.185 -17.877 -22.867  0.00  0.00    +0.053 C 
ATOM     10  C   UNL     1      34.094 -21.752 -18.405  0.00  0.00    +0.023 C 
ATOM     11  C   UNL     1      36.761 -20.930 -19.497  0.00  0.00    +0.026 C 
ATOM     12  C   UNL     1      33.854 -17.763 -20.861  0.00  0.00    +0.004 C 
ATOM     13  C   UNL     1      35.419 -22.170 -17.775  0.00  0.00    -0.024 C 
ATOM     14  C   UNL     1      33.076 -22.906 -18.310  0.00  0.00    +0.012 C 
ATOM     15  C   UNL     1      36.606 -21.793 -18.282  0.00  0.00    -0.030 C 
ATOM     16  C   UNL     1      32.900 -23.391 -16.866  0.00  0.00    +0.064 C 
ATOM     17  C   UNL     1      35.353 -23.009 -16.591  0.00  0.00    +0.028 C 
ATOM     18  C   UNL     1      34.210 -23.553 -16.152  0.00  0.00    +0.116 C 
ENDROOT
BRANCH   5  19
ATOM     19  C   UNL     1      34.773 -19.372 -24.248  0.00  0.00    -0.040 C 
ATOM     20  C   UNL     1      34.796 -20.188 -25.129  0.00  0.00    -0.011 C 
ENDBRANCH   5  19
BRANCH   5  21
ATOM     21  O   UNL     1      33.948 -17.272 -23.596  0.00  0.00    -0.443 OA
BRANCH  21  23
ATOM     22  O   UNL     1      34.951 -16.654 -25.583  0.00  0.00    -0.250 OA
ATOM     23  C   UNL     1      34.555 -16.397 -24.454  0.00  0.00    +0.318 C 
ATOM     24  C   UNL     1      34.671 -15.048 -23.809  0.00  0.00    +0.121 C 
ENDBRANCH  21  23
ENDBRANCH   5  21
BRANCH  18  25
ATOM     25  O   UNL     1      34.198 -24.328 -15.009  0.00  0.00    -0.483 OA
BRANCH  25  26
ATOM     26  C   UNL     1      33.175 -23.953 -14.110  0.00  0.00    +0.165 C 
ATOM     27  C   UNL     1      32.187 -25.089 -13.903  0.00  0.00    +0.044 C 
ATOM     28  C   UNL     1      32.297 -22.849 -14.679  0.00  0.00    +0.044 C 
ATOM     29  C   UNL     1      30.937 -24.398 -13.372  0.00  0.00    +0.004 C 
ATOM     30  C   UNL     1      31.001 -22.957 -13.886  0.00  0.00    +0.004 C 
ENDBRANCH  25  26
ENDBRANCH  18  25
TORSDOF 5
ENDMDL
MODEL 4
REMARK VINA RESULT:      -8.4      6.671     11.432
REMARK  Name = 18142
REMARK  5 active torsions:
REMARK  status: ('A' for Active; 'I' for Inactive)
REMARK    1  A    between atoms: C_5  and  C_19
REMARK    2  A    between atoms: C_5  and  O_21
REMARK    3  A    between atoms: C_18  and  O_25
REMARK    4  A    between atoms: O_21  and  C_23
REMARK    5  A    between atoms: O_25  and  C_26
REMARK                            x       y       z     vdW  Elec       q    Type
REMARK                         _______ _______ _______ _____ _____    ______ ____
ROOT
ATOM      1  C   UNL     1      32.796  -7.870 -22.842  0.00  0.00    +0.045 C 
ATOM      2  C   UNL     1      33.246  -8.766 -24.016  0.00  0.00    +0.005 C 
ATOM      3  C   UNL     1      33.659 -10.173 -23.573  0.00  0.00    +0.005 C 
ATOM      4  C   UNL     1      32.470 -10.861 -22.844  0.00  0.00    +0.004 C 
ATOM      5  C   UNL     1      32.570  -6.521 -23.588  0.00  0.00    +0.189 C 
ATOM      6  C   UNL     1      31.564  -8.527 -22.192  0.00  0.00    +0.004 C 
ATOM      7  C   UNL     1      34.269  -7.907 -24.753  0.00  0.00    +0.005 C 
ATOM      8  C   UNL     1      31.855  -9.969 -21.739  0.00  0.00    +0.000 C 
ATOM      9  C   UNL     1      33.769  -6.460 -24.571  0.00  0.00    +0.053 C 
ATOM     10  C   UNL     1      32.934 -12.241 -22.295  0.00  0.00    +0.023 C 
ATOM     11  C   UNL     1      34.118 -11.026 -24.765  0.00  0.00    +0.026 C 
ATOM     12  C   UNL     1      33.888  -7.681 -21.749  0.00  0.00    +0.004 C 
ATOM     13  C   UNL     1      33.696 -13.049 -23.341  0.00  0.00    -0.024 C 
ATOM     14  C   UNL     1      31.757 -13.068 -21.741  0.00  0.00    +0.012 C 
ATOM     15  C   UNL     1      34.217 -12.487 -24.445  0.00  0.00    -0.030 C 
ATOM     16  C   UNL     1      32.222 -14.423 -21.195  0.00  0.00    +0.064 C 
ATOM     17  C   UNL     1      33.835 -14.476 -23.101  0.00  0.00    +0.028 C 
ATOM     18  C   UNL     1      33.188 -15.111 -22.114  0.00  0.00    +0.116 C 
ENDROOT
BRANCH   5  19
ATOM     19  C   UNL     1      31.302  -6.461 -24.343  0.00  0.00    -0.040 C 
ATOM     20  C   UNL     1      30.271  -6.413 -24.956  0.00  0.00    -0.011 C 
ENDBRANCH   5  19
BRANCH   5  21
ATOM     21  O   UNL     1      32.619  -5.403 -22.711  0.00  0.00    -0.443 OA
BRANCH  21  23
ATOM     22  O   UNL     1      30.547  -5.310 -21.693  0.00  0.00    -0.250 OA
ATOM     23  C   UNL     1      31.415  -4.829 -22.410  0.00  0.00    +0.318 C 
ATOM     24  C   UNL     1      31.299  -3.499 -23.092  0.00  0.00    +0.121 C 
ENDBRANCH  21  23
ENDBRANCH   5  21
BRANCH  18  25
ATOM     25  O   UNL     1      33.371 -16.465 -21.917  0.00  0.00    -0.483 OA
BRANCH  25  26
ATOM     26  C   UNL     1      34.688 -16.884 -22.211  0.00  0.00    +0.165 C 
ATOM     27  C   UNL     1      34.701 -17.873 -23.365  0.00  0.00    +0.044 C 
ATOM     28  C   UNL     1      35.292 -17.693 -21.073  0.00  0.00    +0.044 C 
ATOM     29  C   UNL     1      36.036 -18.594 -23.217  0.00  0.00    +0.004 C 
ATOM     30  C   UNL     1      36.409 -18.490 -21.735  0.00  0.00    +0.004 C 
ENDBRANCH  25  26
ENDBRANCH  18  25
TORSDOF 5
ENDMDL
MODEL 5
REMARK VINA RESULT:      -8.2      4.296     10.972
REMARK  Name = 18142
REMARK  5 active torsions:
REMARK  status: ('A' for Active; 'I' for Inactive)
REMARK    1  A    between atoms: C_5  and  C_19
REMARK    2  A    between atoms: C_5  and  O_21
REMARK    3  A    between atoms: C_18  and  O_25
REMARK    4  A    between atoms: O_21  and  C_23
REMARK    5  A    between atoms: O_25  and  C_26
REMARK                            x       y       z     vdW  Elec       q    Type
REMARK                         _______ _______ _______ _____ _____    ______ ____
ROOT
ATOM      1  C   UNL     1      34.427 -18.098 -22.043  0.00  0.00    +0.045 C 
ATOM      2  C   UNL     1      34.584 -17.142 -23.245  0.00  0.00    +0.005 C 
ATOM      3  C   UNL     1      33.602 -15.968 -23.211  0.00  0.00    +0.005 C 
ATOM      4  C   UNL     1      33.802 -15.159 -21.898  0.00  0.00    +0.004 C 
ATOM      5  C   UNL     1      35.449 -19.208 -22.431  0.00  0.00    +0.189 C 
ATOM      6  C   UNL     1      34.717 -17.295 -20.761  0.00  0.00    +0.004 C 
ATOM      7  C   UNL     1      34.558 -18.075 -24.453  0.00  0.00    +0.005 C 
ATOM      8  C   UNL     1      33.806 -16.060 -20.640  0.00  0.00    +0.000 C 
ATOM      9  C   UNL     1      35.221 -19.376 -23.956  0.00  0.00    +0.053 C 
ATOM     10  C   UNL     1      32.724 -14.039 -21.816  0.00  0.00    +0.023 C 
ATOM     11  C   UNL     1      33.777 -15.052 -24.433  0.00  0.00    +0.026 C 
ATOM     12  C   UNL     1      33.005 -18.720 -21.925  0.00  0.00    +0.004 C 
ATOM     13  C   UNL     1      32.601 -13.262 -23.123  0.00  0.00    -0.024 C 
ATOM     14  C   UNL     1      32.986 -13.069 -20.647  0.00  0.00    +0.012 C 
ATOM     15  C   UNL     1      33.083 -13.732 -24.287  0.00  0.00    -0.030 C 
ATOM     16  C   UNL     1      31.916 -11.974 -20.567  0.00  0.00    +0.064 C 
ATOM     17  C   UNL     1      31.939 -11.970 -23.064  0.00  0.00    +0.028 C 
ATOM     18  C   UNL     1      31.601 -11.381 -21.909  0.00  0.00    +0.116 C 
ENDROOT
BRANCH   5  19
ATOM     19  C   UNL     1      36.856 -18.842 -22.173  0.00  0.00    -0.040 C 
ATOM     20  C   UNL     1      38.000 -18.544 -21.963  0.00  0.00    -0.011 C 
ENDBRANCH   5  19
BRANCH   5  21
ATOM     21  O   UNL     1      35.183 -20.441 -21.774  0.00  0.00    -0.443 OA
BRANCH  21  23
ATOM     22  O   UNL     1      36.355 -20.042 -19.824  0.00  0.00    -0.250 OA
ATOM     23  C   UNL     1      35.364 -20.445 -20.419  0.00  0.00    +0.318 C 
ATOM     24  C   UNL     1      34.157 -21.023 -19.744  0.00  0.00    +0.121 C 
ENDBRANCH  21  23
ENDBRANCH   5  21
BRANCH  18  25
ATOM     25  O   UNL     1      30.955 -10.161 -21.909  0.00  0.00    -0.483 OA
BRANCH  25  26
ATOM     26  C   UNL     1      31.796  -9.101 -22.316  0.00  0.00    +0.165 C 
ATOM     27  C   UNL     1      32.110  -8.176 -21.153  0.00  0.00    +0.044 C 
ATOM     28  C   UNL     1      31.101  -8.174 -23.301  0.00  0.00    +0.044 C 
ATOM     29  C   UNL     1      32.549  -6.879 -21.822  0.00  0.00    +0.004 C 
ATOM     30  C   UNL     1      31.885  -6.871 -23.202  0.00  0.00    +0.004 C 
ENDBRANCH  25  26
ENDBRANCH  18  25
TORSDOF 5
ENDMDL
MODEL 6
REMARK VINA RESULT:      -8.1      5.299      9.310
REMARK  Name = 18142
REMARK  5 active torsions:
REMARK  status: ('A' for Active; 'I' for Inactive)
REMARK    1  A    between atoms: C_5  and  C_19
REMARK    2  A    between atoms: C_5  and  O_21
REMARK    3  A    between atoms: C_18  and  O_25
REMARK    4  A    between atoms: O_21  and  C_23
REMARK    5  A    between atoms: O_25  and  C_26
REMARK                            x       y       z     vdW  Elec       q    Type
REMARK                         _______ _______ _______ _____ _____    ______ ____
ROOT
ATOM      1  C   UNL     1      31.941 -10.479 -22.655  0.00  0.00    +0.045 C 
ATOM      2  C   UNL     1      32.316 -11.146 -21.314  0.00  0.00    +0.005 C 
ATOM      3  C   UNL     1      32.362 -12.674 -21.396  0.00  0.00    +0.005 C 
ATOM      4  C   UNL     1      33.394 -13.107 -22.476  0.00  0.00    +0.004 C 
ATOM      5  C   UNL     1      31.862  -8.987 -22.215  0.00  0.00    +0.189 C 
ATOM      6  C   UNL     1      33.025 -10.850 -23.685  0.00  0.00    +0.004 C 
ATOM      7  C   UNL     1      31.361 -10.502 -20.313  0.00  0.00    +0.005 C 
ATOM      8  C   UNL     1      33.186 -12.375 -23.824  0.00  0.00    +0.000 C 
ATOM      9  C   UNL     1      31.156  -9.066 -20.836  0.00  0.00    +0.053 C 
ATOM     10  C   UNL     1      33.351 -14.655 -22.636  0.00  0.00    +0.023 C 
ATOM     11  C   UNL     1      32.718 -13.300 -20.039  0.00  0.00    +0.026 C 
ATOM     12  C   UNL     1      30.558 -10.930 -23.210  0.00  0.00    +0.004 C 
ATOM     13  C   UNL     1      33.381 -15.373 -21.291  0.00  0.00    -0.024 C 
ATOM     14  C   UNL     1      34.488 -15.174 -23.538  0.00  0.00    +0.012 C 
ATOM     15  C   UNL     1      33.097 -14.747 -20.135  0.00  0.00    -0.030 C 
ATOM     16  C   UNL     1      34.435 -16.698 -23.698  0.00  0.00    +0.064 C 
ATOM     17  C   UNL     1      33.740 -16.781 -21.301  0.00  0.00    +0.028 C 
ATOM     18  C   UNL     1      34.200 -17.404 -22.394  0.00  0.00    +0.116 C 
ENDROOT
BRANCH   5  19
ATOM     19  C   UNL     1      33.180  -8.337 -22.066  0.00  0.00    -0.040 C 
ATOM     20  C   UNL     1      34.251  -7.809 -21.944  0.00  0.00    -0.011 C 
ENDBRANCH   5  19
BRANCH   5  21
ATOM     21  O   UNL     1      31.078  -8.201 -23.104  0.00  0.00    -0.443 OA
BRANCH  21  23
ATOM     22  O   UNL     1      30.967  -6.172 -22.007  0.00  0.00    -0.250 OA
ATOM     23  C   UNL     1      31.228  -6.847 -22.993  0.00  0.00    +0.318 C 
ATOM     24  C   UNL     1      31.772  -6.287 -24.273  0.00  0.00    +0.121 C 
ENDBRANCH  21  23
ENDBRANCH   5  21
BRANCH  18  25
ATOM     25  O   UNL     1      34.508 -18.749 -22.355  0.00  0.00    -0.483 OA
BRANCH  25  26
ATOM     26  C   UNL     1      34.379 -19.298 -21.060  0.00  0.00    +0.165 C 
ATOM     27  C   UNL     1      35.455 -20.339 -20.798  0.00  0.00    +0.044 C 
ATOM     28  C   UNL     1      33.096 -20.103 -20.912  0.00  0.00    +0.044 C 
ATOM     29  C   UNL     1      34.894 -21.168 -19.650  0.00  0.00    +0.004 C 
ATOM     30  C   UNL     1      33.371 -21.028 -19.733  0.00  0.00    +0.004 C 
ENDBRANCH  25  26
ENDBRANCH  18  25
TORSDOF 5
ENDMDL
MODEL 7
REMARK VINA RESULT:      -7.8      1.274      3.226
REMARK  Name = 18142
REMARK  5 active torsions:
REMARK  status: ('A' for Active; 'I' for Inactive)
REMARK    1  A    between atoms: C_5  and  C_19
REMARK    2  A    between atoms: C_5  and  O_21
REMARK    3  A    between atoms: C_18  and  O_25
REMARK    4  A    between atoms: O_21  and  C_23
REMARK    5  A    between atoms: O_25  and  C_26
REMARK                            x       y       z     vdW  Elec       q    Type
REMARK                         _______ _______ _______ _____ _____    ______ ____
ROOT
ATOM      1  C   UNL     1      35.434 -20.182 -20.870  0.00  0.00    +0.045 C 
ATOM      2  C   UNL     1      34.195 -20.466 -19.995  0.00  0.00    +0.005 C 
ATOM      3  C   UNL     1      34.363 -21.693 -19.095  0.00  0.00    +0.005 C 
ATOM      4  C   UNL     1      35.596 -21.495 -18.168  0.00  0.00    +0.004 C 
ATOM      5  C   UNL     1      34.909 -18.990 -21.724  0.00  0.00    +0.189 C 
ATOM      6  C   UNL     1      36.622 -19.902 -19.930  0.00  0.00    +0.004 C 
ATOM      7  C   UNL     1      33.039 -20.450 -20.991  0.00  0.00    +0.005 C 
ATOM      8  C   UNL     1      36.862 -21.063 -18.948  0.00  0.00    +0.000 C 
ATOM      9  C   UNL     1      33.452 -19.410 -22.052  0.00  0.00    +0.053 C 
ATOM     10  C   UNL     1      35.830 -22.793 -17.341  0.00  0.00    +0.023 C 
ATOM     11  C   UNL     1      33.103 -21.953 -18.256  0.00  0.00    +0.026 C 
ATOM     12  C   UNL     1      35.817 -21.363 -21.809  0.00  0.00    +0.004 C 
ATOM     13  C   UNL     1      34.542 -23.316 -16.714  0.00  0.00    -0.024 C 
ATOM     14  C   UNL     1      36.907 -22.599 -16.255  0.00  0.00    +0.012 C 
ATOM     15  C   UNL     1      33.327 -22.925 -17.137  0.00  0.00    -0.030 C 
ATOM     16  C   UNL     1      37.138 -23.883 -15.449  0.00  0.00    +0.064 C 
ATOM     17  C   UNL     1      34.676 -24.264 -15.621  0.00  0.00    +0.028 C 
ATOM     18  C   UNL     1      35.854 -24.549 -15.050  0.00  0.00    +0.116 C 
ENDROOT
BRANCH   5  19
ATOM     19  C   UNL     1      34.908 -17.697 -21.009  0.00  0.00    -0.040 C 
ATOM     20  C   UNL     1      34.907 -16.647 -20.428  0.00  0.00    -0.011 C 
ENDBRANCH   5  19
BRANCH   5  21
ATOM     21  O   UNL     1      35.639 -18.828 -22.934  0.00  0.00    -0.443 OA
BRANCH  21  23
ATOM     22  O   UNL     1      34.828 -16.969 -24.041  0.00  0.00    -0.250 OA
ATOM     23  C   UNL     1      34.983 -18.179 -23.943  0.00  0.00    +0.318 C 
ATOM     24  C   UNL     1      34.468 -19.174 -24.939  0.00  0.00    +0.121 C 
ENDBRANCH  21  23
ENDBRANCH   5  21
BRANCH  18  25
ATOM     25  O   UNL     1      35.929 -25.473 -14.027  0.00  0.00    -0.483 OA
BRANCH  25  26
ATOM     26  C   UNL     1      36.441 -24.919 -12.832  0.00  0.00    +0.165 C 
ATOM     27  C   UNL     1      36.040 -23.460 -12.691  0.00  0.00    +0.044 C 
ATOM     28  C   UNL     1      37.960 -24.845 -12.849  0.00  0.00    +0.044 C 
ATOM     29  C   UNL     1      37.048 -22.895 -11.698  0.00  0.00    +0.004 C 
ATOM     30  C   UNL     1      38.293 -23.779 -11.811  0.00  0.00    +0.004 C 
ENDBRANCH  25  26
ENDBRANCH  18  25
TORSDOF 5
ENDMDL
