MODEL 1
REMARK VINA RESULT:      -9.1      0.000      0.000
REMARK  Name = 448999
REMARK  8 active torsions:
REMARK  status: ('A' for Active; 'I' for Inactive)
REMARK    1  A    between atoms: N_2  and  C_15
REMARK    2  A    between atoms: C_15  and  C_16
REMARK    3  A    between atoms: C_16  and  C_17
REMARK    4  A    between atoms: C_17  and  C_18
REMARK    5  A    between atoms: C_18  and  C_21
REMARK    6  A    between atoms: C_21  and  P_22
REMARK    7  A    between atoms: P_22  and  O_24
REMARK    8  A    between atoms: P_22  and  O_26
REMARK                            x       y       z     vdW  Elec       q    Type
REMARK                         _______ _______ _______ _____ _____    ______ ____
ROOT
ATOM      1  O   UNL     1      33.166 -15.173 -27.053  0.00  0.00    -0.208 OA
ATOM      2  N   UNL     1      34.888 -17.055 -23.340  0.00  0.00    -0.232 NA
ATOM      3  N   UNL     1      34.029 -14.797 -23.103  0.00  0.00    -0.279 N 
ATOM      4  N   UNL     1      34.444 -17.334 -25.507  0.00  0.00    -0.241 NA
ATOM      5  N   UNL     1      33.131 -13.876 -25.133  0.00  0.00    -0.301 NA
ATOM      6  N   UNL     1      33.152 -12.658 -23.115  0.00  0.00    -0.320 N 
ATOM      7  C   UNL     1      34.314 -15.919 -23.769  0.00  0.00    +0.189 C 
ATOM      8  C   UNL     1      34.952 -17.892 -24.420  0.00  0.00    +0.203 C 
ATOM      9  C   UNL     1      34.044 -16.095 -25.094  0.00  0.00    +0.183 C 
ATOM     10  C   UNL     1      33.416 -15.038 -25.862  0.00  0.00    +0.224 C 
ATOM     11  C   UNL     1      33.425 -13.785 -23.848  0.00  0.00    +0.245 C 
ATOM     12  H   UNL     1      34.232 -14.690 -22.145  0.00  0.00    +0.152 HD
ATOM     13  H   UNL     1      33.385 -12.624 -22.158  0.00  0.00    +0.146 HD
ATOM     14  H   UNL     1      32.725 -11.882 -23.545  0.00  0.00    +0.146 HD
ENDROOT
BRANCH   2  15
ATOM     15  C   UNL     1      35.358 -17.362 -21.994  0.00  0.00    +0.076 C 
BRANCH  15  16
ATOM     16  C   UNL     1      34.410 -18.260 -21.196  0.00  0.00    +0.018 C 
BRANCH  16  17
ATOM     17  C   UNL     1      34.857 -19.724 -21.165  0.00  0.00    +0.008 C 
BRANCH  17  18
ATOM     18  C   UNL     1      34.019 -20.540 -20.184  0.00  0.00    +0.079 C 
BRANCH  18  21
ATOM     19  F   UNL     1      35.679 -21.087 -18.617  0.00  0.00    -0.191 F 
ATOM     20  F   UNL     1      35.519 -22.364 -20.378  0.00  0.00    -0.191 F 
ATOM     21  C   UNL     1      34.808 -21.627 -19.501  0.00  0.00    +0.354 C 
BRANCH  21  22
ATOM     22  P   UNL     1      34.034 -22.847 -18.511  0.00  0.00    +0.397 P 
ATOM     23  O   UNL     1      34.713 -23.116 -17.201  0.00  0.00    -0.253 OA
BRANCH  22  24
ATOM     24  O   UNL     1      33.920 -24.131 -19.488  0.00  0.00    -0.320 OA
ATOM     25  H   UNL     1      34.055 -23.850 -20.407  0.00  0.00    +0.220 HD
ENDBRANCH  22  24
BRANCH  22  26
ATOM     26  O   UNL     1      32.498 -22.355 -18.388  0.00  0.00    -0.320 OA
ATOM     27  H   UNL     1      32.374 -21.550 -18.916  0.00  0.00    +0.220 HD
ENDBRANCH  22  26
ENDBRANCH  21  22
ENDBRANCH  18  21
ENDBRANCH  17  18
ENDBRANCH  16  17
ENDBRANCH  15  16
ENDBRANCH   2  15
TORSDOF 8
ENDMDL
MODEL 2
REMARK VINA RESULT:      -9.1      9.400     11.234
REMARK  Name = 448999
REMARK  8 active torsions:
REMARK  status: ('A' for Active; 'I' for Inactive)
REMARK    1  A    between atoms: N_2  and  C_15
REMARK    2  A    between atoms: C_15  and  C_16
REMARK    3  A    between atoms: C_16  and  C_17
REMARK    4  A    between atoms: C_17  and  C_18
REMARK    5  A    between atoms: C_18  and  C_21
REMARK    6  A    between atoms: C_21  and  P_22
REMARK    7  A    between atoms: P_22  and  O_24
REMARK    8  A    between atoms: P_22  and  O_26
REMARK                            x       y       z     vdW  Elec       q    Type
REMARK                         _______ _______ _______ _____ _____    ______ ____
ROOT
ATOM      1  O   UNL     1      38.558 -23.521 -15.386  0.00  0.00    -0.208 OA
ATOM      2  N   UNL     1      34.092 -23.478 -14.798  0.00  0.00    -0.232 NA
ATOM      3  N   UNL     1      35.445 -23.451 -12.781  0.00  0.00    -0.279 N 
ATOM      4  N   UNL     1      35.750 -23.516 -16.286  0.00  0.00    -0.241 NA
ATOM      5  N   UNL     1      37.811 -23.476 -13.193  0.00  0.00    -0.301 NA
ATOM      6  N   UNL     1      36.928 -23.429 -11.008  0.00  0.00    -0.320 N 
ATOM      7  C   UNL     1      35.241 -23.473 -14.100  0.00  0.00    +0.189 C 
ATOM      8  C   UNL     1      34.439 -23.504 -16.121  0.00  0.00    +0.203 C 
ATOM      9  C   UNL     1      36.251 -23.497 -15.016  0.00  0.00    +0.183 C 
ATOM     10  C   UNL     1      37.635 -23.499 -14.582  0.00  0.00    +0.224 C 
ATOM     11  C   UNL     1      36.776 -23.454 -12.372  0.00  0.00    +0.245 C 
ATOM     12  H   UNL     1      34.700 -23.435 -12.136  0.00  0.00    +0.152 HD
ATOM     13  H   UNL     1      36.134 -23.413 -10.425  0.00  0.00    +0.146 HD
ATOM     14  H   UNL     1      37.829 -23.428 -10.612  0.00  0.00    +0.146 HD
ENDROOT
BRANCH   2  15
ATOM     15  C   UNL     1      32.732 -23.458 -14.271  0.00  0.00    +0.076 C 
BRANCH  15  16
ATOM     16  C   UNL     1      32.259 -24.807 -13.725  0.00  0.00    +0.018 C 
BRANCH  16  17
ATOM     17  C   UNL     1      30.761 -24.832 -13.409  0.00  0.00    +0.008 C 
BRANCH  17  18
ATOM     18  C   UNL     1      30.012 -23.749 -14.183  0.00  0.00    +0.079 C 
BRANCH  18  21
ATOM     19  F   UNL     1      28.313 -25.192 -14.916  0.00  0.00    -0.191 F 
ATOM     20  F   UNL     1      30.022 -24.921 -16.242  0.00  0.00    -0.191 F 
ATOM     21  C   UNL     1      29.229 -24.297 -15.348  0.00  0.00    +0.354 C 
BRANCH  21  22
ATOM     22  P   UNL     1      28.242 -23.265 -16.364  0.00  0.00    +0.397 P 
ATOM     23  O   UNL     1      27.126 -22.563 -15.648  0.00  0.00    -0.253 OA
BRANCH  22  24
ATOM     24  O   UNL     1      27.767 -24.237 -17.566  0.00  0.00    -0.320 OA
ATOM     25  H   UNL     1      28.248 -24.006 -18.377  0.00  0.00    +0.220 HD
ENDBRANCH  22  24
BRANCH  22  26
ATOM     26  O   UNL     1      29.301 -22.284 -17.095  0.00  0.00    -0.320 OA
ATOM     27  H   UNL     1      30.202 -22.603 -16.931  0.00  0.00    +0.220 HD
ENDBRANCH  22  26
ENDBRANCH  21  22
ENDBRANCH  18  21
ENDBRANCH  17  18
ENDBRANCH  16  17
ENDBRANCH  15  16
ENDBRANCH   2  15
TORSDOF 8
ENDMDL
MODEL 3
REMARK VINA RESULT:      -9.0      8.444     10.335
REMARK  Name = 448999
REMARK  8 active torsions:
REMARK  status: ('A' for Active; 'I' for Inactive)
REMARK    1  A    between atoms: N_2  and  C_15
REMARK    2  A    between atoms: C_15  and  C_16
REMARK    3  A    between atoms: C_16  and  C_17
REMARK    4  A    between atoms: C_17  and  C_18
REMARK    5  A    between atoms: C_18  and  C_21
REMARK    6  A    between atoms: C_21  and  P_22
REMARK    7  A    between atoms: P_22  and  O_24
REMARK    8  A    between atoms: P_22  and  O_26
REMARK                            x       y       z     vdW  Elec       q    Type
REMARK                         _______ _______ _______ _____ _____    ______ ____
ROOT
ATOM      1  O   UNL     1      29.411 -22.469 -17.117  0.00  0.00    -0.208 OA
ATOM      2  N   UNL     1      33.695 -23.578 -16.279  0.00  0.00    -0.232 NA
ATOM      3  N   UNL     1      32.079 -24.149 -14.559  0.00  0.00    -0.279 N 
ATOM      4  N   UNL     1      32.289 -22.641 -17.733  0.00  0.00    -0.241 NA
ATOM      5  N   UNL     1      29.823 -23.520 -15.093  0.00  0.00    -0.301 NA
ATOM      6  N   UNL     1      30.370 -24.596 -13.068  0.00  0.00    -0.320 N 
ATOM      7  C   UNL     1      32.470 -23.644 -15.732  0.00  0.00    +0.189 C 
ATOM      8  C   UNL     1      33.548 -22.964 -17.493  0.00  0.00    +0.203 C 
ATOM      9  C   UNL     1      31.614 -23.070 -16.625  0.00  0.00    +0.183 C 
ATOM     10  C   UNL     1      30.197 -22.981 -16.330  0.00  0.00    +0.224 C 
ATOM     11  C   UNL     1      30.716 -24.060 -14.283  0.00  0.00    +0.245 C 
ATOM     12  H   UNL     1      32.714 -24.560 -13.928  0.00  0.00    +0.152 HD
ATOM     13  H   UNL     1      31.062 -24.990 -12.488  0.00  0.00    +0.146 HD
ATOM     14  H   UNL     1      29.430 -24.585 -12.775  0.00  0.00    +0.146 HD
ENDROOT
BRANCH   2  15
ATOM     15  C   UNL     1      34.950 -24.060 -15.712  0.00  0.00    +0.076 C 
BRANCH  15  16
ATOM     16  C   UNL     1      35.627 -23.062 -14.769  0.00  0.00    +0.018 C 
BRANCH  16  17
ATOM     17  C   UNL     1      35.779 -23.597 -13.342  0.00  0.00    +0.008 C 
BRANCH  17  18
ATOM     18  C   UNL     1      37.244 -23.861 -13.001  0.00  0.00    +0.079 C 
BRANCH  18  21
ATOM     19  F   UNL     1      36.582 -26.060 -13.484  0.00  0.00    -0.191 F 
ATOM     20  F   UNL     1      38.383 -25.811 -12.281  0.00  0.00    -0.191 F 
ATOM     21  C   UNL     1      37.668 -25.278 -13.292  0.00  0.00    +0.354 C 
BRANCH  21  22
ATOM     22  P   UNL     1      38.630 -25.684 -14.699  0.00  0.00    +0.397 P 
ATOM     23  O   UNL     1      39.843 -26.517 -14.410  0.00  0.00    -0.253 OA
BRANCH  22  24
ATOM     24  O   UNL     1      38.941 -24.254 -15.387  0.00  0.00    -0.320 OA
ATOM     25  H   UNL     1      39.219 -24.391 -16.306  0.00  0.00    +0.220 HD
ENDBRANCH  22  24
BRANCH  22  26
ATOM     26  O   UNL     1      37.578 -26.354 -15.729  0.00  0.00    -0.320 OA
ATOM     27  H   UNL     1      37.580 -25.856 -16.562  0.00  0.00    +0.220 HD
ENDBRANCH  22  26
ENDBRANCH  21  22
ENDBRANCH  18  21
ENDBRANCH  17  18
ENDBRANCH  16  17
ENDBRANCH  15  16
ENDBRANCH   2  15
TORSDOF 8
ENDMDL
MODEL 4
REMARK VINA RESULT:      -9.0      6.005      8.318
REMARK  Name = 448999
REMARK  8 active torsions:
REMARK  status: ('A' for Active; 'I' for Inactive)
REMARK    1  A    between atoms: N_2  and  C_15
REMARK    2  A    between atoms: C_15  and  C_16
REMARK    3  A    between atoms: C_16  and  C_17
REMARK    4  A    between atoms: C_17  and  C_18
REMARK    5  A    between atoms: C_18  and  C_21
REMARK    6  A    between atoms: C_21  and  P_22
REMARK    7  A    between atoms: P_22  and  O_24
REMARK    8  A    between atoms: P_22  and  O_26
REMARK                            x       y       z     vdW  Elec       q    Type
REMARK                         _______ _______ _______ _____ _____    ______ ____
ROOT
ATOM      1  O   UNL     1      32.557 -20.837 -20.714  0.00  0.00    -0.208 OA
ATOM      2  N   UNL     1      34.854 -22.803 -17.375  0.00  0.00    -0.232 NA
ATOM      3  N   UNL     1      36.108 -21.288 -18.798  0.00  0.00    -0.279 N 
ATOM      4  N   UNL     1      32.872 -22.605 -18.376  0.00  0.00    -0.241 NA
ATOM      5  N   UNL     1      34.802 -20.287 -20.549  0.00  0.00    -0.301 NA
ATOM      6  N   UNL     1      37.094 -19.809 -20.276  0.00  0.00    -0.320 N 
ATOM      7  C   UNL     1      35.017 -21.941 -18.393  0.00  0.00    +0.189 C 
ATOM      8  C   UNL     1      33.541 -23.186 -17.394  0.00  0.00    +0.203 C 
ATOM      9  C   UNL     1      33.802 -21.824 -19.001  0.00  0.00    +0.183 C 
ATOM     10  C   UNL     1      33.638 -20.957 -20.151  0.00  0.00    +0.224 C 
ATOM     11  C   UNL     1      35.943 -20.456 -19.904  0.00  0.00    +0.245 C 
ATOM     12  H   UNL     1      36.977 -21.386 -18.344  0.00  0.00    +0.152 HD
ATOM     13  H   UNL     1      37.928 -19.958 -19.773  0.00  0.00    +0.146 HD
ATOM     14  H   UNL     1      37.087 -19.195 -21.046  0.00  0.00    +0.146 HD
ENDROOT
BRANCH   2  15
ATOM     15  C   UNL     1      35.862 -23.256 -16.423  0.00  0.00    +0.076 C 
BRANCH  15  16
ATOM     16  C   UNL     1      35.304 -24.137 -15.303  0.00  0.00    +0.018 C 
BRANCH  16  17
ATOM     17  C   UNL     1      36.287 -25.220 -14.848  0.00  0.00    +0.008 C 
BRANCH  17  18
ATOM     18  C   UNL     1      37.656 -24.625 -14.522  0.00  0.00    +0.079 C 
BRANCH  18  21
ATOM     19  F   UNL     1      38.318 -26.874 -14.624  0.00  0.00    -0.191 F 
ATOM     20  F   UNL     1      38.764 -25.794 -12.784  0.00  0.00    -0.191 F 
ATOM     21  C   UNL     1      38.668 -25.668 -14.123  0.00  0.00    +0.354 C 
BRANCH  21  22
ATOM     22  P   UNL     1      40.344 -25.566 -14.622  0.00  0.00    +0.397 P 
ATOM     23  O   UNL     1      41.032 -24.286 -14.250  0.00  0.00    -0.253 OA
BRANCH  22  24
ATOM     24  O   UNL     1      40.301 -25.874 -16.209  0.00  0.00    -0.320 OA
ATOM     25  H   UNL     1      41.197 -25.809 -16.575  0.00  0.00    +0.220 HD
ENDBRANCH  22  24
BRANCH  22  26
ATOM     26  O   UNL     1      41.028 -26.902 -14.018  0.00  0.00    -0.320 OA
ATOM     27  H   UNL     1      41.695 -27.233 -14.640  0.00  0.00    +0.220 HD
ENDBRANCH  22  26
ENDBRANCH  21  22
ENDBRANCH  18  21
ENDBRANCH  17  18
ENDBRANCH  16  17
ENDBRANCH  15  16
ENDBRANCH   2  15
TORSDOF 8
ENDMDL
MODEL 5
REMARK VINA RESULT:      -8.8      8.433     10.260
REMARK  Name = 448999
REMARK  8 active torsions:
REMARK  status: ('A' for Active; 'I' for Inactive)
REMARK    1  A    between atoms: N_2  and  C_15
REMARK    2  A    between atoms: C_15  and  C_16
REMARK    3  A    between atoms: C_16  and  C_17
REMARK    4  A    between atoms: C_17  and  C_18
REMARK    5  A    between atoms: C_18  and  C_21
REMARK    6  A    between atoms: C_21  and  P_22
REMARK    7  A    between atoms: P_22  and  O_24
REMARK    8  A    between atoms: P_22  and  O_26
REMARK                            x       y       z     vdW  Elec       q    Type
REMARK                         _______ _______ _______ _____ _____    ______ ____
ROOT
ATOM      1  O   UNL     1      29.167 -22.581 -17.049  0.00  0.00    -0.208 OA
ATOM      2  N   UNL     1      33.527 -23.455 -16.330  0.00  0.00    -0.232 NA
ATOM      3  N   UNL     1      31.991 -24.117 -14.569  0.00  0.00    -0.279 N 
ATOM      4  N   UNL     1      32.033 -22.595 -17.742  0.00  0.00    -0.241 NA
ATOM      5  N   UNL     1      29.690 -23.611 -15.041  0.00  0.00    -0.301 NA
ATOM      6  N   UNL     1      30.350 -24.658 -13.034  0.00  0.00    -0.320 N 
ATOM      7  C   UNL     1      32.322 -23.589 -15.750  0.00  0.00    +0.189 C 
ATOM      8  C   UNL     1      33.314 -22.848 -17.537  0.00  0.00    +0.203 C 
ATOM      9  C   UNL     1      31.412 -23.061 -16.618  0.00  0.00    +0.183 C 
ATOM     10  C   UNL     1      30.001 -23.050 -16.285  0.00  0.00    +0.224 C 
ATOM     11  C   UNL     1      30.633 -24.102 -14.256  0.00  0.00    +0.245 C 
ATOM     12  H   UNL     1      32.665 -24.493 -13.957  0.00  0.00    +0.152 HD
ATOM     13  H   UNL     1      31.078 -25.015 -12.475  0.00  0.00    +0.146 HD
ATOM     14  H   UNL     1      29.419 -24.700 -12.716  0.00  0.00    +0.146 HD
ENDROOT
BRANCH   2  15
ATOM     15  C   UNL     1      34.820 -23.868 -15.798  0.00  0.00    +0.076 C 
BRANCH  15  16
ATOM     16  C   UNL     1      35.941 -22.853 -16.037  0.00  0.00    +0.018 C 
BRANCH  16  17
ATOM     17  C   UNL     1      37.279 -23.287 -15.430  0.00  0.00    +0.008 C 
BRANCH  17  18
ATOM     18  C   UNL     1      37.100 -24.467 -14.478  0.00  0.00    +0.079 C 
BRANCH  18  21
ATOM     19  F   UNL     1      36.976 -22.779 -12.853  0.00  0.00    -0.191 F 
ATOM     20  F   UNL     1      38.541 -24.277 -12.606  0.00  0.00    -0.191 F 
ATOM     21  C   UNL     1      37.276 -24.085 -13.030  0.00  0.00    +0.354 C 
BRANCH  21  22
ATOM     22  P   UNL     1      36.327 -24.827 -11.758  0.00  0.00    +0.397 P 
ATOM     23  O   UNL     1      36.460 -24.174 -10.414  0.00  0.00    -0.253 OA
BRANCH  22  24
ATOM     24  O   UNL     1      36.765 -26.383 -11.798  0.00  0.00    -0.320 OA
ATOM     25  H   UNL     1      36.228 -26.853 -12.455  0.00  0.00    +0.220 HD
ENDBRANCH  22  24
BRANCH  22  26
ATOM     26  O   UNL     1      34.821 -24.865 -12.346  0.00  0.00    -0.320 OA
ATOM     27  H   UNL     1      34.518 -23.959 -12.516  0.00  0.00    +0.220 HD
ENDBRANCH  22  26
ENDBRANCH  21  22
ENDBRANCH  18  21
ENDBRANCH  17  18
ENDBRANCH  16  17
ENDBRANCH  15  16
ENDBRANCH   2  15
TORSDOF 8
ENDMDL
MODEL 6
REMARK VINA RESULT:      -8.8      9.672     11.682
REMARK  Name = 448999
REMARK  8 active torsions:
REMARK  status: ('A' for Active; 'I' for Inactive)
REMARK    1  A    between atoms: N_2  and  C_15
REMARK    2  A    between atoms: C_15  and  C_16
REMARK    3  A    between atoms: C_16  and  C_17
REMARK    4  A    between atoms: C_17  and  C_18
REMARK    5  A    between atoms: C_18  and  C_21
REMARK    6  A    between atoms: C_21  and  P_22
REMARK    7  A    between atoms: P_22  and  O_24
REMARK    8  A    between atoms: P_22  and  O_26
REMARK                            x       y       z     vdW  Elec       q    Type
REMARK                         _______ _______ _______ _____ _____    ______ ____
ROOT
ATOM      1  O   UNL     1      37.210 -26.473 -11.712  0.00  0.00    -0.208 OA
ATOM      2  N   UNL     1      35.379 -23.679 -14.735  0.00  0.00    -0.232 NA
ATOM      3  N   UNL     1      37.591 -24.533 -15.259  0.00  0.00    -0.279 N 
ATOM      4  N   UNL     1      35.099 -24.713 -12.780  0.00  0.00    -0.241 NA
ATOM      5  N   UNL     1      38.486 -26.013 -13.592  0.00  0.00    -0.301 NA
ATOM      6  N   UNL     1      39.685 -25.468 -15.546  0.00  0.00    -0.320 N 
ATOM      7  C   UNL     1      36.491 -24.401 -14.514  0.00  0.00    +0.189 C 
ATOM      8  C   UNL     1      34.556 -23.891 -13.663  0.00  0.00    +0.203 C 
ATOM      9  C   UNL     1      36.314 -25.031 -13.317  0.00  0.00    +0.183 C 
ATOM     10  C   UNL     1      37.346 -25.898 -12.785  0.00  0.00    +0.224 C 
ATOM     11  C   UNL     1      38.579 -25.368 -14.741  0.00  0.00    +0.245 C 
ATOM     12  H   UNL     1      37.699 -24.069 -16.121  0.00  0.00    +0.152 HD
ATOM     13  H   UNL     1      39.722 -24.973 -16.397  0.00  0.00    +0.146 HD
ATOM     14  H   UNL     1      40.443 -26.035 -15.274  0.00  0.00    +0.146 HD
ENDROOT
BRANCH   2  15
ATOM     15  C   UNL     1      35.083 -22.830 -15.883  0.00  0.00    +0.076 C 
BRANCH  15  16
ATOM     16  C   UNL     1      34.095 -23.451 -16.874  0.00  0.00    +0.018 C 
BRANCH  16  17
ATOM     17  C   UNL     1      32.723 -22.769 -16.855  0.00  0.00    +0.008 C 
BRANCH  17  18
ATOM     18  C   UNL     1      31.638 -23.721 -16.355  0.00  0.00    +0.079 C 
BRANCH  18  21
ATOM     19  F   UNL     1      29.834 -22.778 -15.186  0.00  0.00    -0.191 F 
ATOM     20  F   UNL     1      31.832 -22.387 -14.406  0.00  0.00    -0.191 F 
ATOM     21  C   UNL     1      31.067 -23.310 -15.022  0.00  0.00    +0.354 C 
BRANCH  21  22
ATOM     22  P   UNL     1      30.767 -24.474 -13.748  0.00  0.00    +0.397 P 
ATOM     23  O   UNL     1      30.594 -23.879 -12.382  0.00  0.00    -0.253 OA
BRANCH  22  24
ATOM     24  O   UNL     1      31.993 -25.521 -13.877  0.00  0.00    -0.320 OA
ATOM     25  H   UNL     1      32.834 -25.047 -13.779  0.00  0.00    +0.220 HD
ENDBRANCH  22  24
BRANCH  22  26
ATOM     26  O   UNL     1      29.504 -25.337 -14.276  0.00  0.00    -0.320 OA
ATOM     27  H   UNL     1      29.659 -26.278 -14.098  0.00  0.00    +0.220 HD
ENDBRANCH  22  26
ENDBRANCH  21  22
ENDBRANCH  18  21
ENDBRANCH  17  18
ENDBRANCH  16  17
ENDBRANCH  15  16
ENDBRANCH   2  15
TORSDOF 8
ENDMDL
MODEL 7
REMARK VINA RESULT:      -8.8      9.812     11.822
REMARK  Name = 448999
REMARK  8 active torsions:
REMARK  status: ('A' for Active; 'I' for Inactive)
REMARK    1  A    between atoms: N_2  and  C_15
REMARK    2  A    between atoms: C_15  and  C_16
REMARK    3  A    between atoms: C_16  and  C_17
REMARK    4  A    between atoms: C_17  and  C_18
REMARK    5  A    between atoms: C_18  and  C_21
REMARK    6  A    between atoms: C_21  and  P_22
REMARK    7  A    between atoms: P_22  and  O_24
REMARK    8  A    between atoms: P_22  and  O_26
REMARK                            x       y       z     vdW  Elec       q    Type
REMARK                         _______ _______ _______ _____ _____    ______ ____
ROOT
ATOM      1  O   UNL     1      36.956 -25.989 -11.416  0.00  0.00    -0.208 OA
ATOM      2  N   UNL     1      34.719 -23.679 -14.571  0.00  0.00    -0.232 NA
ATOM      3  N   UNL     1      37.008 -24.290 -15.104  0.00  0.00    -0.279 N 
ATOM      4  N   UNL     1      34.617 -24.588 -12.539  0.00  0.00    -0.241 NA
ATOM      5  N   UNL     1      38.120 -25.519 -13.364  0.00  0.00    -0.301 NA
ATOM      6  N   UNL     1      39.196 -24.979 -15.391  0.00  0.00    -0.320 N 
ATOM      7  C   UNL     1      35.917 -24.240 -14.335  0.00  0.00    +0.189 C 
ATOM      8  C   UNL     1      33.955 -23.910 -13.460  0.00  0.00    +0.203 C 
ATOM      9  C   UNL     1      35.849 -24.794 -13.091  0.00  0.00    +0.183 C 
ATOM     10  C   UNL     1      36.994 -25.485 -12.532  0.00  0.00    +0.224 C 
ATOM     11  C   UNL     1      38.105 -24.955 -14.559  0.00  0.00    +0.245 C 
ATOM     12  H   UNL     1      37.036 -23.883 -16.000  0.00  0.00    +0.152 HD
ATOM     13  H   UNL     1      39.150 -24.549 -16.276  0.00  0.00    +0.146 HD
ATOM     14  H   UNL     1      40.025 -25.426 -15.103  0.00  0.00    +0.146 HD
ENDROOT
BRANCH   2  15
ATOM     15  C   UNL     1      34.293 -22.962 -15.767  0.00  0.00    +0.076 C 
BRANCH  15  16
ATOM     16  C   UNL     1      33.089 -23.594 -16.472  0.00  0.00    +0.018 C 
BRANCH  16  17
ATOM     17  C   UNL     1      31.748 -23.096 -15.926  0.00  0.00    +0.008 C 
BRANCH  17  18
ATOM     18  C   UNL     1      30.749 -24.241 -15.778  0.00  0.00    +0.079 C 
BRANCH  18  21
ATOM     19  F   UNL     1      29.490 -22.658 -14.588  0.00  0.00    -0.191 F 
ATOM     20  F   UNL     1      28.743 -24.706 -14.604  0.00  0.00    -0.191 F 
ATOM     21  C   UNL     1      29.384 -23.776 -15.341  0.00  0.00    +0.354 C 
BRANCH  21  22
ATOM     22  P   UNL     1      28.160 -23.291 -16.497  0.00  0.00    +0.397 P 
ATOM     23  O   UNL     1      27.790 -24.345 -17.498  0.00  0.00    -0.253 OA
BRANCH  22  24
ATOM     24  O   UNL     1      28.745 -21.926 -17.138  0.00  0.00    -0.320 OA
ATOM     25  H   UNL     1      29.662 -21.801 -16.849  0.00  0.00    +0.220 HD
ENDBRANCH  22  24
BRANCH  22  26
ATOM     26  O   UNL     1      26.931 -22.761 -15.588  0.00  0.00    -0.320 OA
ATOM     27  H   UNL     1      27.239 -22.625 -14.677  0.00  0.00    +0.220 HD
ENDBRANCH  22  26
ENDBRANCH  21  22
ENDBRANCH  18  21
ENDBRANCH  17  18
ENDBRANCH  16  17
ENDBRANCH  15  16
ENDBRANCH   2  15
TORSDOF 8
ENDMDL
MODEL 8
REMARK VINA RESULT:      -8.7      9.860     11.143
REMARK  Name = 448999
REMARK  8 active torsions:
REMARK  status: ('A' for Active; 'I' for Inactive)
REMARK    1  A    between atoms: N_2  and  C_15
REMARK    2  A    between atoms: C_15  and  C_16
REMARK    3  A    between atoms: C_16  and  C_17
REMARK    4  A    between atoms: C_17  and  C_18
REMARK    5  A    between atoms: C_18  and  C_21
REMARK    6  A    between atoms: C_21  and  P_22
REMARK    7  A    between atoms: P_22  and  O_24
REMARK    8  A    between atoms: P_22  and  O_26
REMARK                            x       y       z     vdW  Elec       q    Type
REMARK                         _______ _______ _______ _____ _____    ______ ____
ROOT
ATOM      1  O   UNL     1      30.465 -24.488 -12.585  0.00  0.00    -0.208 OA
ATOM      2  N   UNL     1      34.258 -23.828 -14.923  0.00  0.00    -0.232 NA
ATOM      3  N   UNL     1      32.186 -23.236 -16.042  0.00  0.00    -0.279 N 
ATOM      4  N   UNL     1      33.384 -24.531 -12.997  0.00  0.00    -0.241 NA
ATOM      5  N   UNL     1      30.218 -23.622 -14.720  0.00  0.00    -0.301 NA
ATOM      6  N   UNL     1      30.099 -22.745 -16.905  0.00  0.00    -0.320 N 
ATOM      7  C   UNL     1      32.926 -23.691 -15.028  0.00  0.00    +0.189 C 
ATOM      8  C   UNL     1      34.501 -24.340 -13.678  0.00  0.00    +0.203 C 
ATOM      9  C   UNL     1      32.396 -24.122 -13.847  0.00  0.00    +0.183 C 
ATOM     10  C   UNL     1      30.962 -24.104 -13.636  0.00  0.00    +0.224 C 
ATOM     11  C   UNL     1      30.809 -23.223 -15.832  0.00  0.00    +0.245 C 
ATOM     12  H   UNL     1      32.589 -22.929 -16.887  0.00  0.00    +0.152 HD
ATOM     13  H   UNL     1      30.571 -22.455 -17.719  0.00  0.00    +0.146 HD
ATOM     14  H   UNL     1      29.116 -22.691 -16.861  0.00  0.00    +0.146 HD
ENDROOT
BRANCH   2  15
ATOM     15  C   UNL     1      35.267 -23.501 -15.924  0.00  0.00    +0.076 C 
BRANCH  15  16
ATOM     16  C   UNL     1      36.477 -22.750 -15.361  0.00  0.00    +0.018 C 
BRANCH  16  17
ATOM     17  C   UNL     1      37.762 -23.582 -15.389  0.00  0.00    +0.008 C 
BRANCH  17  18
ATOM     18  C   UNL     1      38.065 -24.183 -14.018  0.00  0.00    +0.079 C 
BRANCH  18  21
ATOM     19  F   UNL     1      38.072 -26.298 -15.033  0.00  0.00    -0.191 F 
ATOM     20  F   UNL     1      38.638 -26.208 -12.930  0.00  0.00    -0.191 F 
ATOM     21  C   UNL     1      38.701 -25.546 -14.102  0.00  0.00    +0.354 C 
BRANCH  21  22
ATOM     22  P   UNL     1      40.376 -25.755 -14.573  0.00  0.00    +0.397 P 
ATOM     23  O   UNL     1      41.089 -26.875 -13.874  0.00  0.00    -0.253 OA
BRANCH  22  24
ATOM     24  O   UNL     1      41.032 -24.294 -14.349  0.00  0.00    -0.320 OA
ATOM     25  H   UNL     1      40.839 -23.987 -13.449  0.00  0.00    +0.220 HD
ENDBRANCH  22  24
BRANCH  22  26
ATOM     26  O   UNL     1      40.331 -25.883 -16.185  0.00  0.00    -0.320 OA
ATOM     27  H   UNL     1      40.925 -25.224 -16.578  0.00  0.00    +0.220 HD
ENDBRANCH  22  26
ENDBRANCH  21  22
ENDBRANCH  18  21
ENDBRANCH  17  18
ENDBRANCH  16  17
ENDBRANCH  15  16
ENDBRANCH   2  15
TORSDOF 8
ENDMDL
MODEL 9
REMARK VINA RESULT:      -8.7      1.622      2.546
REMARK  Name = 448999
REMARK  8 active torsions:
REMARK  status: ('A' for Active; 'I' for Inactive)
REMARK    1  A    between atoms: N_2  and  C_15
REMARK    2  A    between atoms: C_15  and  C_16
REMARK    3  A    between atoms: C_16  and  C_17
REMARK    4  A    between atoms: C_17  and  C_18
REMARK    5  A    between atoms: C_18  and  C_21
REMARK    6  A    between atoms: C_21  and  P_22
REMARK    7  A    between atoms: P_22  and  O_24
REMARK    8  A    between atoms: P_22  and  O_26
REMARK                            x       y       z     vdW  Elec       q    Type
REMARK                         _______ _______ _______ _____ _____    ______ ____
ROOT
ATOM      1  O   UNL     1      32.090 -12.962 -22.070  0.00  0.00    -0.208 OA
ATOM      2  N   UNL     1      34.888 -16.491 -22.126  0.00  0.00    -0.232 NA
ATOM      3  N   UNL     1      34.090 -15.716 -24.284  0.00  0.00    -0.279 N 
ATOM      4  N   UNL     1      33.821 -15.011 -20.847  0.00  0.00    -0.241 NA
ATOM      5  N   UNL     1      32.605 -13.832 -24.156  0.00  0.00    -0.301 NA
ATOM      6  N   UNL     1      33.205 -14.806 -26.216  0.00  0.00    -0.320 N 
ATOM      7  C   UNL     1      34.188 -15.697 -22.953  0.00  0.00    +0.189 C 
ATOM      8  C   UNL     1      34.643 -16.047 -20.856  0.00  0.00    +0.203 C 
ATOM      9  C   UNL     1      33.538 -14.793 -22.165  0.00  0.00    +0.183 C 
ATOM     10  C   UNL     1      32.685 -13.782 -22.759  0.00  0.00    +0.224 C 
ATOM     11  C   UNL     1      33.268 -14.742 -24.847  0.00  0.00    +0.245 C 
ATOM     12  H   UNL     1      34.569 -16.378 -24.835  0.00  0.00    +0.152 HD
ATOM     13  H   UNL     1      33.713 -15.498 -26.701  0.00  0.00    +0.146 HD
ATOM     14  H   UNL     1      32.653 -14.162 -26.715  0.00  0.00    +0.146 HD
ENDROOT
BRANCH   2  15
ATOM     15  C   UNL     1      35.749 -17.612 -22.487  0.00  0.00    +0.076 C 
BRANCH  15  16
ATOM     16  C   UNL     1      35.778 -18.732 -21.444  0.00  0.00    +0.018 C 
BRANCH  16  17
ATOM     17  C   UNL     1      34.655 -19.756 -21.635  0.00  0.00    +0.008 C 
BRANCH  17  18
ATOM     18  C   UNL     1      34.062 -20.187 -20.295  0.00  0.00    +0.079 C 
BRANCH  18  21
ATOM     19  F   UNL     1      35.674 -20.996 -18.793  0.00  0.00    -0.191 F 
ATOM     20  F   UNL     1      35.399 -22.112 -20.645  0.00  0.00    -0.191 F 
ATOM     21  C   UNL     1      34.757 -21.388 -19.706  0.00  0.00    +0.354 C 
BRANCH  21  22
ATOM     22  P   UNL     1      33.884 -22.611 -18.807  0.00  0.00    +0.397 P 
ATOM     23  O   UNL     1      32.472 -22.244 -18.457  0.00  0.00    -0.253 OA
BRANCH  22  24
ATOM     24  O   UNL     1      34.836 -22.919 -17.536  0.00  0.00    -0.320 OA
ATOM     25  H   UNL     1      35.651 -22.398 -17.610  0.00  0.00    +0.220 HD
ENDBRANCH  22  24
BRANCH  22  26
ATOM     26  O   UNL     1      34.033 -23.953 -19.698  0.00  0.00    -0.320 OA
ATOM     27  H   UNL     1      34.358 -23.719 -20.582  0.00  0.00    +0.220 HD
ENDBRANCH  22  26
ENDBRANCH  21  22
ENDBRANCH  18  21
ENDBRANCH  17  18
ENDBRANCH  16  17
ENDBRANCH  15  16
ENDBRANCH   2  15
TORSDOF 8
ENDMDL
