MODEL 1
REMARK VINA RESULT:      -8.0      0.000      0.000
REMARK  Name = 4935
REMARK  11 active torsions:
REMARK  status: ('A' for Active; 'I' for Inactive)
REMARK    1  A    between atoms: C_1  and  C_11
REMARK    2  A    between atoms: C_2  and  O_21
REMARK    3  A    between atoms: C_3  and  N_7
REMARK    4  A    between atoms: C_11  and  O_12
REMARK    5  A    between atoms: O_12  and  C_13
REMARK    6  A    between atoms: C_13  and  C_14
REMARK    7  A    between atoms: C_14  and  N_15
REMARK    8  A    between atoms: N_15  and  C_17
REMARK    9  A    between atoms: N_15  and  C_19
REMARK   10  A    between atoms: O_21  and  C_22
REMARK   11  A    between atoms: C_22  and  C_23
REMARK                            x       y       z     vdW  Elec       q    Type
REMARK                         _______ _______ _______ _____ _____    ______ ____
ROOT
ATOM      1  C   UNL     1      33.952 -15.251 -21.573  0.00  0.00    +0.077 C 
ATOM      2  C   UNL     1      32.487 -12.935 -22.095  0.00  0.00    +0.151 C 
ATOM      3  C   UNL     1      33.445 -13.376 -23.008  0.00  0.00    +0.076 C 
ATOM      4  C   UNL     1      34.178 -14.533 -22.748  0.00  0.00    +0.024 C 
ATOM      5  C   UNL     1      32.994 -14.812 -20.660  0.00  0.00    +0.010 C 
ATOM      6  C   UNL     1      32.262 -13.654 -20.920  0.00  0.00    +0.038 C 
ENDROOT
BRANCH   3   7
ATOM      7  N   UNL     1      33.683 -12.657 -24.201  0.00  0.00    -0.355 N 
ATOM      8  H   UNL     1      34.507 -12.815 -24.715  0.00  0.00    +0.142 HD
ATOM      9  H   UNL     1      33.023 -11.998 -24.518  0.00  0.00    +0.142 HD
ENDBRANCH   3   7
BRANCH   1  11
ATOM     10  O   UNL     1      35.307 -16.688 -20.238  0.00  0.00    -0.245 OA
ATOM     11  C   UNL     1      34.732 -16.484 -21.295  0.00  0.00    +0.341 C 
BRANCH  11  12
ATOM     12  O   UNL     1      34.706 -17.325 -22.366  0.00  0.00    -0.448 OA
BRANCH  12  13
ATOM     13  C   UNL     1      35.748 -18.289 -22.430  0.00  0.00    +0.186 C 
BRANCH  13  14
ATOM     14  C   UNL     1      35.186 -19.643 -22.028  0.00  0.00    -0.029 C 
BRANCH  14  15
ATOM     15  N   UNL     1      35.218 -19.806 -20.575  0.00  0.00    +0.389 N 
ATOM     16  H   UNL     1      35.177 -18.881 -20.146  0.00  0.00    -0.080 HD
BRANCH  15  17
ATOM     17  C   UNL     1      34.061 -20.577 -20.123  0.00  0.00    -0.077 C 
ATOM     18  C   UNL     1      32.760 -19.926 -20.563  0.00  0.00    -0.025 C 
ENDBRANCH  15  17
BRANCH  15  19
ATOM     19  C   UNL     1      36.460 -20.455 -20.160  0.00  0.00    -0.077 C 
ATOM     20  C   UNL     1      36.211 -21.449 -19.037  0.00  0.00    -0.025 C 
ENDBRANCH  15  19
ENDBRANCH  14  15
ENDBRANCH  13  14
ENDBRANCH  12  13
ENDBRANCH  11  12
ENDBRANCH   1  11
BRANCH   2  21
ATOM     21  O   UNL     1      31.761 -11.807 -22.331  0.00  0.00    -0.474 OA
BRANCH  21  22
ATOM     22  C   UNL     1      30.846 -11.401 -21.315  0.00  0.00    +0.205 C 
BRANCH  22  23
ATOM     23  C   UNL     1      31.461 -10.255 -20.527  0.00  0.00    +0.047 C 
ATOM     24  C   UNL     1      31.519 -10.559 -19.041  0.00  0.00    +0.004 C 
ENDBRANCH  22  23
ENDBRANCH  21  22
ENDBRANCH   2  21
TORSDOF 11
ENDMDL
MODEL 2
REMARK VINA RESULT:      -8.0      4.631      7.281
REMARK  Name = 4935
REMARK  11 active torsions:
REMARK  status: ('A' for Active; 'I' for Inactive)
REMARK    1  A    between atoms: C_1  and  C_11
REMARK    2  A    between atoms: C_2  and  O_21
REMARK    3  A    between atoms: C_3  and  N_7
REMARK    4  A    between atoms: C_11  and  O_12
REMARK    5  A    between atoms: O_12  and  C_13
REMARK    6  A    between atoms: C_13  and  C_14
REMARK    7  A    between atoms: C_14  and  N_15
REMARK    8  A    between atoms: N_15  and  C_17
REMARK    9  A    between atoms: N_15  and  C_19
REMARK   10  A    between atoms: O_21  and  C_22
REMARK   11  A    between atoms: C_22  and  C_23
REMARK                            x       y       z     vdW  Elec       q    Type
REMARK                         _______ _______ _______ _____ _____    ______ ____
ROOT
ATOM      1  C   UNL     1      33.851 -21.375 -19.697  0.00  0.00    +0.077 C 
ATOM      2  C   UNL     1      34.607 -19.038 -21.020  0.00  0.00    +0.151 C 
ATOM      3  C   UNL     1      35.578 -19.871 -20.465  0.00  0.00    +0.076 C 
ATOM      4  C   UNL     1      35.201 -21.039 -19.804  0.00  0.00    +0.024 C 
ATOM      5  C   UNL     1      32.880 -20.543 -20.252  0.00  0.00    +0.010 C 
ATOM      6  C   UNL     1      33.257 -19.375 -20.913  0.00  0.00    +0.038 C 
ENDROOT
BRANCH   3   7
ATOM      7  N   UNL     1      36.948 -19.543 -20.567  0.00  0.00    -0.355 N 
ATOM      8  H   UNL     1      37.260 -18.646 -20.306  0.00  0.00    +0.142 HD
ATOM      9  H   UNL     1      37.591 -20.211 -20.898  0.00  0.00    +0.142 HD
ENDBRANCH   3   7
BRANCH   1  11
ATOM     10  O   UNL     1      34.031 -23.683 -19.128  0.00  0.00    -0.245 OA
ATOM     11  C   UNL     1      33.448 -22.619 -18.992  0.00  0.00    +0.341 C 
BRANCH  11  12
ATOM     12  O   UNL     1      32.366 -22.396 -18.197  0.00  0.00    -0.448 OA
BRANCH  12  13
ATOM     13  C   UNL     1      32.306 -23.153 -16.996  0.00  0.00    +0.186 C 
BRANCH  13  14
ATOM     14  C   UNL     1      30.947 -22.939 -16.350  0.00  0.00    -0.029 C 
BRANCH  14  15
ATOM     15  N   UNL     1      30.498 -24.156 -15.676  0.00  0.00    +0.389 N 
ATOM     16  H   UNL     1      31.074 -24.934 -15.996  0.00  0.00    -0.080 HD
BRANCH  15  17
ATOM     17  C   UNL     1      30.659 -24.027 -14.228  0.00  0.00    -0.077 C 
ATOM     18  C   UNL     1      31.670 -25.028 -13.696  0.00  0.00    -0.025 C 
ENDBRANCH  15  17
BRANCH  15  19
ATOM     19  C   UNL     1      29.104 -24.442 -16.012  0.00  0.00    -0.077 C 
ATOM     20  C   UNL     1      28.360 -23.174 -16.394  0.00  0.00    -0.025 C 
ENDBRANCH  15  19
ENDBRANCH  14  15
ENDBRANCH  13  14
ENDBRANCH  12  13
ENDBRANCH  11  12
ENDBRANCH   1  11
BRANCH   2  21
ATOM     21  O   UNL     1      34.955 -17.893 -21.670  0.00  0.00    -0.474 OA
BRANCH  21  22
ATOM     22  C   UNL     1      34.894 -16.679 -20.923  0.00  0.00    +0.205 C 
BRANCH  22  23
ATOM     23  C   UNL     1      33.935 -15.723 -21.615  0.00  0.00    +0.047 C 
ATOM     24  C   UNL     1      32.656 -15.532 -20.821  0.00  0.00    +0.004 C 
ENDBRANCH  22  23
ENDBRANCH  21  22
ENDBRANCH   2  21
TORSDOF 11
ENDMDL
MODEL 3
REMARK VINA RESULT:      -7.9      2.685      8.378
REMARK  Name = 4935
REMARK  11 active torsions:
REMARK  status: ('A' for Active; 'I' for Inactive)
REMARK    1  A    between atoms: C_1  and  C_11
REMARK    2  A    between atoms: C_2  and  O_21
REMARK    3  A    between atoms: C_3  and  N_7
REMARK    4  A    between atoms: C_11  and  O_12
REMARK    5  A    between atoms: O_12  and  C_13
REMARK    6  A    between atoms: C_13  and  C_14
REMARK    7  A    between atoms: C_14  and  N_15
REMARK    8  A    between atoms: N_15  and  C_17
REMARK    9  A    between atoms: N_15  and  C_19
REMARK   10  A    between atoms: O_21  and  C_22
REMARK   11  A    between atoms: C_22  and  C_23
REMARK                            x       y       z     vdW  Elec       q    Type
REMARK                         _______ _______ _______ _____ _____    ______ ____
ROOT
ATOM      1  C   UNL     1      34.650 -20.184 -20.756  0.00  0.00    +0.077 C 
ATOM      2  C   UNL     1      34.978 -22.000 -18.663  0.00  0.00    +0.151 C 
ATOM      3  C   UNL     1      33.698 -21.679 -19.114  0.00  0.00    +0.076 C 
ATOM      4  C   UNL     1      33.533 -20.771 -20.159  0.00  0.00    +0.024 C 
ATOM      5  C   UNL     1      35.930 -20.505 -20.305  0.00  0.00    +0.010 C 
ATOM      6  C   UNL     1      36.095 -21.412 -19.259  0.00  0.00    +0.038 C 
ENDROOT
BRANCH   3   7
ATOM      7  N   UNL     1      32.560 -22.266 -18.519  0.00  0.00    -0.355 N 
ATOM      8  H   UNL     1      31.669 -22.120 -18.910  0.00  0.00    +0.142 HD
ATOM      9  H   UNL     1      32.658 -22.823 -17.713  0.00  0.00    +0.142 HD
ENDBRANCH   3   7
BRANCH   1  11
ATOM     10  O   UNL     1      34.719 -19.488 -23.034  0.00  0.00    -0.245 OA
ATOM     11  C   UNL     1      34.475 -19.217 -21.869  0.00  0.00    +0.341 C 
BRANCH  11  12
ATOM     12  O   UNL     1      34.014 -18.023 -21.405  0.00  0.00    -0.448 OA
BRANCH  12  13
ATOM     13  C   UNL     1      34.983 -16.994 -21.258  0.00  0.00    +0.186 C 
BRANCH  13  14
ATOM     14  C   UNL     1      35.145 -16.280 -22.589  0.00  0.00    -0.029 C 
BRANCH  14  15
ATOM     15  N   UNL     1      33.891 -15.644 -22.991  0.00  0.00    +0.389 N 
ATOM     16  H   UNL     1      33.117 -16.222 -22.666  0.00  0.00    -0.080 HD
BRANCH  15  17
ATOM     17  C   UNL     1      33.771 -14.321 -22.378  0.00  0.00    -0.077 C 
ATOM     18  C   UNL     1      32.452 -14.179 -21.635  0.00  0.00    -0.025 C 
ENDBRANCH  15  17
BRANCH  15  19
ATOM     19  C   UNL     1      33.814 -15.541 -24.448  0.00  0.00    -0.077 C 
ATOM     20  C   UNL     1      34.471 -16.735 -25.118  0.00  0.00    -0.025 C 
ENDBRANCH  15  19
ENDBRANCH  14  15
ENDBRANCH  13  14
ENDBRANCH  12  13
ENDBRANCH  11  12
ENDBRANCH   1  11
BRANCH   2  21
ATOM     21  O   UNL     1      35.161 -22.884 -17.643  0.00  0.00    -0.474 OA
BRANCH  21  22
ATOM     22  C   UNL     1      36.010 -22.473 -16.573  0.00  0.00    +0.205 C 
BRANCH  22  23
ATOM     23  C   UNL     1      35.511 -23.099 -15.280  0.00  0.00    +0.047 C 
ATOM     24  C   UNL     1      33.997 -23.208 -15.253  0.00  0.00    +0.004 C 
ENDBRANCH  22  23
ENDBRANCH  21  22
ENDBRANCH   2  21
TORSDOF 11
ENDMDL
MODEL 4
REMARK VINA RESULT:      -7.9      4.449      6.968
REMARK  Name = 4935
REMARK  11 active torsions:
REMARK  status: ('A' for Active; 'I' for Inactive)
REMARK    1  A    between atoms: C_1  and  C_11
REMARK    2  A    between atoms: C_2  and  O_21
REMARK    3  A    between atoms: C_3  and  N_7
REMARK    4  A    between atoms: C_11  and  O_12
REMARK    5  A    between atoms: O_12  and  C_13
REMARK    6  A    between atoms: C_13  and  C_14
REMARK    7  A    between atoms: C_14  and  N_15
REMARK    8  A    between atoms: N_15  and  C_17
REMARK    9  A    between atoms: N_15  and  C_19
REMARK   10  A    between atoms: O_21  and  C_22
REMARK   11  A    between atoms: C_22  and  C_23
REMARK                            x       y       z     vdW  Elec       q    Type
REMARK                         _______ _______ _______ _____ _____    ______ ____
ROOT
ATOM      1  C   UNL     1      33.987 -21.387 -19.809  0.00  0.00    +0.077 C 
ATOM      2  C   UNL     1      34.762 -18.981 -20.990  0.00  0.00    +0.151 C 
ATOM      3  C   UNL     1      35.723 -19.834 -20.448  0.00  0.00    +0.076 C 
ATOM      4  C   UNL     1      35.336 -21.036 -19.856  0.00  0.00    +0.024 C 
ATOM      5  C   UNL     1      33.025 -20.535 -20.352  0.00  0.00    +0.010 C 
ATOM      6  C   UNL     1      33.412 -19.333 -20.942  0.00  0.00    +0.038 C 
ENDROOT
BRANCH   3   7
ATOM      7  N   UNL     1      37.092 -19.490 -20.490  0.00  0.00    -0.355 N 
ATOM      8  H   UNL     1      37.746 -20.006 -19.966  0.00  0.00    +0.142 HD
ATOM      9  H   UNL     1      37.393 -18.732 -21.043  0.00  0.00    +0.142 HD
ENDBRANCH   3   7
BRANCH   1  11
ATOM     10  O   UNL     1      34.035 -23.751 -19.504  0.00  0.00    -0.245 OA
ATOM     11  C   UNL     1      33.574 -22.668 -19.180  0.00  0.00    +0.341 C 
BRANCH  11  12
ATOM     12  O   UNL     1      32.637 -22.453 -18.216  0.00  0.00    -0.448 OA
BRANCH  12  13
ATOM     13  C   UNL     1      32.807 -23.177 -17.005  0.00  0.00    +0.186 C 
BRANCH  13  14
ATOM     14  C   UNL     1      31.438 -23.515 -16.440  0.00  0.00    -0.029 C 
BRANCH  14  15
ATOM     15  N   UNL     1      31.224 -22.836 -15.162  0.00  0.00    +0.389 N 
ATOM     16  H   UNL     1      31.624 -21.899 -15.223  0.00  0.00    -0.080 HD
BRANCH  15  17
ATOM     17  C   UNL     1      29.794 -22.712 -14.883  0.00  0.00    -0.077 C 
ATOM     18  C   UNL     1      28.979 -22.754 -16.165  0.00  0.00    -0.025 C 
ENDBRANCH  15  17
BRANCH  15  19
ATOM     19  C   UNL     1      31.895 -23.557 -14.082  0.00  0.00    -0.077 C 
ATOM     20  C   UNL     1      31.272 -24.925 -13.864  0.00  0.00    -0.025 C 
ENDBRANCH  15  19
ENDBRANCH  14  15
ENDBRANCH  13  14
ENDBRANCH  12  13
ENDBRANCH  11  12
ENDBRANCH   1  11
BRANCH   2  21
ATOM     21  O   UNL     1      35.119 -17.802 -21.572  0.00  0.00    -0.474 OA
BRANCH  21  22
ATOM     22  C   UNL     1      34.097 -16.818 -21.722  0.00  0.00    +0.205 C 
BRANCH  22  23
ATOM     23  C   UNL     1      34.340 -15.700 -20.720  0.00  0.00    +0.047 C 
ATOM     24  C   UNL     1      33.098 -14.852 -20.510  0.00  0.00    +0.004 C 
ENDBRANCH  22  23
ENDBRANCH  21  22
ENDBRANCH   2  21
TORSDOF 11
ENDMDL
MODEL 5
REMARK VINA RESULT:      -7.8      5.178      7.753
REMARK  Name = 4935
REMARK  11 active torsions:
REMARK  status: ('A' for Active; 'I' for Inactive)
REMARK    1  A    between atoms: C_1  and  C_11
REMARK    2  A    between atoms: C_2  and  O_21
REMARK    3  A    between atoms: C_3  and  N_7
REMARK    4  A    between atoms: C_11  and  O_12
REMARK    5  A    between atoms: O_12  and  C_13
REMARK    6  A    between atoms: C_13  and  C_14
REMARK    7  A    between atoms: C_14  and  N_15
REMARK    8  A    between atoms: N_15  and  C_17
REMARK    9  A    between atoms: N_15  and  C_19
REMARK   10  A    between atoms: O_21  and  C_22
REMARK   11  A    between atoms: C_22  and  C_23
REMARK                            x       y       z     vdW  Elec       q    Type
REMARK                         _______ _______ _______ _____ _____    ______ ____
ROOT
ATOM      1  C   UNL     1      33.810 -21.729 -19.065  0.00  0.00    +0.077 C 
ATOM      2  C   UNL     1      35.003 -19.984 -20.886  0.00  0.00    +0.151 C 
ATOM      3  C   UNL     1      35.794 -20.829 -20.107  0.00  0.00    +0.076 C 
ATOM      4  C   UNL     1      35.199 -21.700 -19.196  0.00  0.00    +0.024 C 
ATOM      5  C   UNL     1      33.019 -20.886 -19.843  0.00  0.00    +0.010 C 
ATOM      6  C   UNL     1      33.614 -20.013 -20.753  0.00  0.00    +0.038 C 
ENDROOT
BRANCH   3   7
ATOM      7  N   UNL     1      37.201 -20.810 -20.231  0.00  0.00    -0.355 N 
ATOM      8  H   UNL     1      37.742 -21.523 -19.822  0.00  0.00    +0.142 HD
ATOM      9  H   UNL     1      37.642 -20.081 -20.727  0.00  0.00    +0.142 HD
ENDBRANCH   3   7
BRANCH   1  11
ATOM     10  O   UNL     1      31.979 -22.653 -17.849  0.00  0.00    -0.245 OA
ATOM     11  C   UNL     1      33.175 -22.658 -18.095  0.00  0.00    +0.341 C 
BRANCH  11  12
ATOM     12  O   UNL     1      34.102 -23.489 -17.543  0.00  0.00    -0.448 OA
BRANCH  12  13
ATOM     13  C   UNL     1      34.004 -23.690 -16.139  0.00  0.00    +0.186 C 
BRANCH  13  14
ATOM     14  C   UNL     1      35.042 -22.823 -15.447  0.00  0.00    -0.029 C 
BRANCH  14  15
ATOM     15  N   UNL     1      36.059 -23.651 -14.800  0.00  0.00    +0.389 N 
ATOM     16  H   UNL     1      36.146 -23.355 -13.828  0.00  0.00    -0.080 HD
BRANCH  15  17
ATOM     17  C   UNL     1      35.661 -25.058 -14.822  0.00  0.00    -0.077 C 
ATOM     18  C   UNL     1      36.859 -25.964 -15.058  0.00  0.00    -0.025 C 
ENDBRANCH  15  17
BRANCH  15  19
ATOM     19  C   UNL     1      37.354 -23.476 -15.456  0.00  0.00    -0.077 C 
ATOM     20  C   UNL     1      37.406 -22.168 -16.227  0.00  0.00    -0.025 C 
ENDBRANCH  15  19
ENDBRANCH  14  15
ENDBRANCH  13  14
ENDBRANCH  12  13
ENDBRANCH  11  12
ENDBRANCH   1  11
BRANCH   2  21
ATOM     21  O   UNL     1      35.566 -19.125 -21.780  0.00  0.00    -0.474 OA
BRANCH  21  22
ATOM     22  C   UNL     1      34.679 -18.414 -22.641  0.00  0.00    +0.205 C 
BRANCH  22  23
ATOM     23  C   UNL     1      34.842 -18.940 -24.059  0.00  0.00    +0.047 C 
ATOM     24  C   UNL     1      34.552 -17.868 -25.095  0.00  0.00    +0.004 C 
ENDBRANCH  22  23
ENDBRANCH  21  22
ENDBRANCH   2  21
TORSDOF 11
ENDMDL
MODEL 6
REMARK VINA RESULT:      -7.8      2.461      8.453
REMARK  Name = 4935
REMARK  11 active torsions:
REMARK  status: ('A' for Active; 'I' for Inactive)
REMARK    1  A    between atoms: C_1  and  C_11
REMARK    2  A    between atoms: C_2  and  O_21
REMARK    3  A    between atoms: C_3  and  N_7
REMARK    4  A    between atoms: C_11  and  O_12
REMARK    5  A    between atoms: O_12  and  C_13
REMARK    6  A    between atoms: C_13  and  C_14
REMARK    7  A    between atoms: C_14  and  N_15
REMARK    8  A    between atoms: N_15  and  C_17
REMARK    9  A    between atoms: N_15  and  C_19
REMARK   10  A    between atoms: O_21  and  C_22
REMARK   11  A    between atoms: C_22  and  C_23
REMARK                            x       y       z     vdW  Elec       q    Type
REMARK                         _______ _______ _______ _____ _____    ______ ____
ROOT
ATOM      1  C   UNL     1      34.682 -19.830 -21.030  0.00  0.00    +0.077 C 
ATOM      2  C   UNL     1      35.141 -21.698 -19.009  0.00  0.00    +0.151 C 
ATOM      3  C   UNL     1      33.837 -21.417 -19.417  0.00  0.00    +0.076 C 
ATOM      4  C   UNL     1      33.607 -20.484 -20.426  0.00  0.00    +0.024 C 
ATOM      5  C   UNL     1      35.985 -20.110 -20.623  0.00  0.00    +0.010 C 
ATOM      6  C   UNL     1      36.216 -21.043 -19.613  0.00  0.00    +0.038 C 
ENDROOT
BRANCH   3   7
ATOM      7  N   UNL     1      32.740 -22.072 -18.814  0.00  0.00    -0.355 N 
ATOM      8  H   UNL     1      32.192 -22.699 -19.339  0.00  0.00    +0.142 HD
ATOM      9  H   UNL     1      32.524 -21.901 -17.868  0.00  0.00    +0.142 HD
ENDBRANCH   3   7
BRANCH   1  11
ATOM     10  O   UNL     1      34.478 -19.112 -23.294  0.00  0.00    -0.245 OA
ATOM     11  C   UNL     1      34.437 -18.836 -22.106  0.00  0.00    +0.341 C 
BRANCH  11  12
ATOM     12  O   UNL     1      34.168 -17.610 -21.579  0.00  0.00    -0.448 OA
BRANCH  12  13
ATOM     13  C   UNL     1      34.975 -16.537 -22.045  0.00  0.00    +0.186 C 
BRANCH  13  14
ATOM     14  C   UNL     1      34.095 -15.315 -22.251  0.00  0.00    -0.029 C 
BRANCH  14  15
ATOM     15  N   UNL     1      34.263 -14.779 -23.600  0.00  0.00    +0.389 N 
ATOM     16  H   UNL     1      35.240 -14.511 -23.723  0.00  0.00    -0.080 HD
BRANCH  15  17
ATOM     17  C   UNL     1      33.934 -15.796 -24.598  0.00  0.00    -0.077 C 
ATOM     18  C   UNL     1      33.317 -15.169 -25.838  0.00  0.00    -0.025 C 
ENDBRANCH  15  17
BRANCH  15  19
ATOM     19  C   UNL     1      33.430 -13.592 -23.787  0.00  0.00    -0.077 C 
ATOM     20  C   UNL     1      32.410 -13.456 -22.668  0.00  0.00    -0.025 C 
ENDBRANCH  15  19
ENDBRANCH  14  15
ENDBRANCH  13  14
ENDBRANCH  12  13
ENDBRANCH  11  12
ENDBRANCH   1  11
BRANCH   2  21
ATOM     21  O   UNL     1      35.387 -22.606 -18.024  0.00  0.00    -0.474 OA
BRANCH  21  22
ATOM     22  C   UNL     1      36.345 -22.243 -17.032  0.00  0.00    +0.205 C 
BRANCH  22  23
ATOM     23  C   UNL     1      36.060 -23.029 -15.761  0.00  0.00    +0.047 C 
ATOM     24  C   UNL     1      34.570 -23.159 -15.501  0.00  0.00    +0.004 C 
ENDBRANCH  22  23
ENDBRANCH  21  22
ENDBRANCH   2  21
TORSDOF 11
ENDMDL
MODEL 7
REMARK VINA RESULT:      -7.7      2.560      8.174
REMARK  Name = 4935
REMARK  11 active torsions:
REMARK  status: ('A' for Active; 'I' for Inactive)
REMARK    1  A    between atoms: C_1  and  C_11
REMARK    2  A    between atoms: C_2  and  O_21
REMARK    3  A    between atoms: C_3  and  N_7
REMARK    4  A    between atoms: C_11  and  O_12
REMARK    5  A    between atoms: O_12  and  C_13
REMARK    6  A    between atoms: C_13  and  C_14
REMARK    7  A    between atoms: C_14  and  N_15
REMARK    8  A    between atoms: N_15  and  C_17
REMARK    9  A    between atoms: N_15  and  C_19
REMARK   10  A    between atoms: O_21  and  C_22
REMARK   11  A    between atoms: C_22  and  C_23
REMARK                            x       y       z     vdW  Elec       q    Type
REMARK                         _______ _______ _______ _____ _____    ______ ____
ROOT
ATOM      1  C   UNL     1      34.399 -16.564 -23.893  0.00  0.00    +0.077 C 
ATOM      2  C   UNL     1      35.431 -18.069 -21.783  0.00  0.00    +0.151 C 
ATOM      3  C   UNL     1      34.881 -16.811 -21.539  0.00  0.00    +0.076 C 
ATOM      4  C   UNL     1      34.366 -16.058 -22.593  0.00  0.00    +0.024 C 
ATOM      5  C   UNL     1      34.949 -17.821 -24.137  0.00  0.00    +0.010 C 
ATOM      6  C   UNL     1      35.464 -18.574 -23.083  0.00  0.00    +0.038 C 
ENDROOT
BRANCH   3   7
ATOM      7  N   UNL     1      34.841 -16.288 -20.227  0.00  0.00    -0.355 N 
ATOM      8  H   UNL     1      34.090 -16.510 -19.631  0.00  0.00    +0.142 HD
ATOM      9  H   UNL     1      35.564 -15.700 -19.909  0.00  0.00    +0.142 HD
ENDBRANCH   3   7
BRANCH   1  11
ATOM     10  O   UNL     1      34.087 -16.004 -26.189  0.00  0.00    -0.245 OA
ATOM     11  C   UNL     1      33.850 -15.762 -25.016  0.00  0.00    +0.341 C 
BRANCH  11  12
ATOM     12  O   UNL     1      33.066 -14.750 -24.550  0.00  0.00    -0.448 OA
BRANCH  12  13
ATOM     13  C   UNL     1      33.419 -13.441 -24.974  0.00  0.00    +0.186 C 
BRANCH  13  14
ATOM     14  C   UNL     1      33.806 -12.619 -23.756  0.00  0.00    -0.029 C 
BRANCH  14  15
ATOM     15  N   UNL     1      34.175 -11.259 -24.145  0.00  0.00    +0.389 N 
ATOM     16  H   UNL     1      35.086 -11.042 -23.741  0.00  0.00    -0.080 HD
BRANCH  15  17
ATOM     17  C   UNL     1      34.278 -11.154 -25.600  0.00  0.00    -0.077 C 
ATOM     18  C   UNL     1      35.573 -10.474 -26.011  0.00  0.00    -0.025 C 
ENDBRANCH  15  17
BRANCH  15  19
ATOM     19  C   UNL     1      33.199 -10.298 -23.631  0.00  0.00    -0.077 C 
ATOM     20  C   UNL     1      33.807  -8.910 -23.512  0.00  0.00    -0.025 C 
ENDBRANCH  15  19
ENDBRANCH  14  15
ENDBRANCH  13  14
ENDBRANCH  12  13
ENDBRANCH  11  12
ENDBRANCH   1  11
BRANCH   2  21
ATOM     21  O   UNL     1      35.940 -18.820 -20.766  0.00  0.00    -0.474 OA
BRANCH  21  22
ATOM     22  C   UNL     1      35.345 -20.097 -20.544  0.00  0.00    +0.205 C 
BRANCH  22  23
ATOM     23  C   UNL     1      36.425 -21.073 -20.103  0.00  0.00    +0.047 C 
ATOM     24  C   UNL     1      36.220 -21.533 -18.671  0.00  0.00    +0.004 C 
ENDBRANCH  22  23
ENDBRANCH  21  22
ENDBRANCH   2  21
TORSDOF 11
ENDMDL
MODEL 8
REMARK VINA RESULT:      -7.6      2.357      8.164
REMARK  Name = 4935
REMARK  11 active torsions:
REMARK  status: ('A' for Active; 'I' for Inactive)
REMARK    1  A    between atoms: C_1  and  C_11
REMARK    2  A    between atoms: C_2  and  O_21
REMARK    3  A    between atoms: C_3  and  N_7
REMARK    4  A    between atoms: C_11  and  O_12
REMARK    5  A    between atoms: O_12  and  C_13
REMARK    6  A    between atoms: C_13  and  C_14
REMARK    7  A    between atoms: C_14  and  N_15
REMARK    8  A    between atoms: N_15  and  C_17
REMARK    9  A    between atoms: N_15  and  C_19
REMARK   10  A    between atoms: O_21  and  C_22
REMARK   11  A    between atoms: C_22  and  C_23
REMARK                            x       y       z     vdW  Elec       q    Type
REMARK                         _______ _______ _______ _____ _____    ______ ____
ROOT
ATOM      1  C   UNL     1      33.498 -14.372 -22.363  0.00  0.00    +0.077 C 
ATOM      2  C   UNL     1      35.065 -16.669 -22.137  0.00  0.00    +0.151 C 
ATOM      3  C   UNL     1      34.731 -16.173 -23.397  0.00  0.00    +0.076 C 
ATOM      4  C   UNL     1      33.947 -15.025 -23.511  0.00  0.00    +0.024 C 
ATOM      5  C   UNL     1      33.831 -14.867 -21.103  0.00  0.00    +0.010 C 
ATOM      6  C   UNL     1      34.614 -16.015 -20.989  0.00  0.00    +0.038 C 
ENDROOT
BRANCH   3   7
ATOM      7  N   UNL     1      35.180 -16.825 -24.566  0.00  0.00    -0.355 N 
ATOM      8  H   UNL     1      35.285 -16.318 -25.404  0.00  0.00    +0.142 HD
ATOM      9  H   UNL     1      35.389 -17.788 -24.544  0.00  0.00    +0.142 HD
ENDBRANCH   3   7
BRANCH   1  11
ATOM     10  O   UNL     1      31.914 -12.761 -21.601  0.00  0.00    -0.245 OA
ATOM     11  C   UNL     1      32.663 -13.149 -22.483  0.00  0.00    +0.341 C 
BRANCH  11  12
ATOM     12  O   UNL     1      32.858 -12.548 -23.689  0.00  0.00    -0.448 OA
BRANCH  12  13
ATOM     13  C   UNL     1      33.683 -11.391 -23.685  0.00  0.00    +0.186 C 
BRANCH  13  14
ATOM     14  C   UNL     1      32.801 -10.159 -23.804  0.00  0.00    -0.029 C 
BRANCH  14  15
ATOM     15  N   UNL     1      33.099  -9.204 -22.738  0.00  0.00    +0.389 N 
ATOM     16  H   UNL     1      33.953  -9.502 -22.266  0.00  0.00    -0.080 HD
BRANCH  15  17
ATOM     17  C   UNL     1      33.321  -7.870 -23.296  0.00  0.00    -0.077 C 
ATOM     18  C   UNL     1      34.805  -7.571 -23.431  0.00  0.00    -0.025 C 
ENDBRANCH  15  17
BRANCH  15  19
ATOM     19  C   UNL     1      32.014  -9.175 -21.759  0.00  0.00    -0.077 C 
ATOM     20  C   UNL     1      32.421  -8.407 -20.512  0.00  0.00    -0.025 C 
ENDBRANCH  15  19
ENDBRANCH  14  15
ENDBRANCH  13  14
ENDBRANCH  12  13
ENDBRANCH  11  12
ENDBRANCH   1  11
BRANCH   2  21
ATOM     21  O   UNL     1      35.829 -17.789 -22.005  0.00  0.00    -0.474 OA
BRANCH  21  22
ATOM     22  C   UNL     1      35.375 -18.778 -21.083  0.00  0.00    +0.205 C 
BRANCH  22  23
ATOM     23  C   UNL     1      34.196 -19.517 -21.696  0.00  0.00    +0.047 C 
ATOM     24  C   UNL     1      33.159 -19.890 -20.651  0.00  0.00    +0.004 C 
ENDBRANCH  22  23
ENDBRANCH  21  22
ENDBRANCH   2  21
TORSDOF 11
ENDMDL
MODEL 9
REMARK VINA RESULT:      -7.6      4.020      6.936
REMARK  Name = 4935
REMARK  11 active torsions:
REMARK  status: ('A' for Active; 'I' for Inactive)
REMARK    1  A    between atoms: C_1  and  C_11
REMARK    2  A    between atoms: C_2  and  O_21
REMARK    3  A    between atoms: C_3  and  N_7
REMARK    4  A    between atoms: C_11  and  O_12
REMARK    5  A    between atoms: O_12  and  C_13
REMARK    6  A    between atoms: C_13  and  C_14
REMARK    7  A    between atoms: C_14  and  N_15
REMARK    8  A    between atoms: N_15  and  C_17
REMARK    9  A    between atoms: N_15  and  C_19
REMARK   10  A    between atoms: O_21  and  C_22
REMARK   11  A    between atoms: C_22  and  C_23
REMARK                            x       y       z     vdW  Elec       q    Type
REMARK                         _______ _______ _______ _____ _____    ______ ____
ROOT
ATOM      1  C   UNL     1      34.412 -21.389 -19.681  0.00  0.00    +0.077 C 
ATOM      2  C   UNL     1      34.492 -19.006 -21.130  0.00  0.00    +0.151 C 
ATOM      3  C   UNL     1      35.679 -19.646 -20.773  0.00  0.00    +0.076 C 
ATOM      4  C   UNL     1      35.639 -20.837 -20.049  0.00  0.00    +0.024 C 
ATOM      5  C   UNL     1      33.225 -20.750 -20.038  0.00  0.00    +0.010 C 
ATOM      6  C   UNL     1      33.264 -19.559 -20.762  0.00  0.00    +0.038 C 
ENDROOT
BRANCH   3   7
ATOM      7  N   UNL     1      36.928 -19.098 -21.140  0.00  0.00    -0.355 N 
ATOM      8  H   UNL     1      37.034 -18.122 -21.215  0.00  0.00    +0.142 HD
ATOM      9  H   UNL     1      37.693 -19.692 -21.319  0.00  0.00    +0.142 HD
ENDBRANCH   3   7
BRANCH   1  11
ATOM     10  O   UNL     1      33.764 -23.649 -19.285  0.00  0.00    -0.245 OA
ATOM     11  C   UNL     1      34.369 -22.657 -18.910  0.00  0.00    +0.341 C 
BRANCH  11  12
ATOM     12  O   UNL     1      35.087 -22.547 -17.758  0.00  0.00    -0.448 OA
BRANCH  12  13
ATOM     13  C   UNL     1      34.505 -23.130 -16.600  0.00  0.00    +0.186 C 
BRANCH  13  14
ATOM     14  C   UNL     1      35.337 -22.745 -15.388  0.00  0.00    -0.029 C 
BRANCH  14  15
ATOM     15  N   UNL     1      35.534 -23.897 -14.509  0.00  0.00    +0.389 N 
ATOM     16  H   UNL     1      34.645 -24.389 -14.418  0.00  0.00    -0.080 HD
BRANCH  15  17
ATOM     17  C   UNL     1      36.515 -24.816 -15.084  0.00  0.00    -0.077 C 
ATOM     18  C   UNL     1      37.931 -24.302 -14.885  0.00  0.00    -0.025 C 
ENDBRANCH  15  17
BRANCH  15  19
ATOM     19  C   UNL     1      35.960 -23.460 -13.180  0.00  0.00    -0.077 C 
ATOM     20  C   UNL     1      35.378 -24.351 -12.096  0.00  0.00    -0.025 C 
ENDBRANCH  15  19
ENDBRANCH  14  15
ENDBRANCH  13  14
ENDBRANCH  12  13
ENDBRANCH  11  12
ENDBRANCH   1  11
BRANCH   2  21
ATOM     21  O   UNL     1      34.509 -17.842 -21.838  0.00  0.00    -0.474 OA
BRANCH  21  22
ATOM     22  C   UNL     1      34.531 -16.629 -21.088  0.00  0.00    +0.205 C 
BRANCH  22  23
ATOM     23  C   UNL     1      33.379 -15.747 -21.546  0.00  0.00    +0.047 C 
ATOM     24  C   UNL     1      32.913 -14.811 -20.445  0.00  0.00    +0.004 C 
ENDBRANCH  22  23
ENDBRANCH  21  22
ENDBRANCH   2  21
TORSDOF 11
ENDMDL
