MODEL 1
REMARK VINA RESULT:      -9.5      0.000      0.000
REMARK  Name = 11485425
REMARK  3 active torsions:
REMARK  status: ('A' for Active; 'I' for Inactive)
REMARK    1  A    between atoms: C_2  and  C_23
REMARK    2  A    between atoms: C_7  and  S_13
REMARK    3  A    between atoms: S_13  and  N_17
REMARK                            x       y       z     vdW  Elec       q    Type
REMARK                         _______ _______ _______ _____ _____    ______ ____
ROOT
ATOM      1  N   UNL     1      35.395 -22.273 -17.523  0.00  0.00    +0.390 N 
ATOM      2  C   UNL     1      34.179 -23.019 -17.867  0.00  0.00    -0.021 C 
ATOM      3  C   UNL     1      33.148 -22.063 -18.488  0.00  0.00    +0.007 C 
ATOM      4  C   UNL     1      33.739 -21.196 -19.572  0.00  0.00    -0.030 C 
ATOM      5  C   UNL     1      35.132 -21.025 -19.661  0.00  0.00    -0.046 C 
ATOM      6  C   UNL     1      36.056 -21.773 -18.734  0.00  0.00    -0.054 C 
ATOM      7  C   UNL     1      34.818 -19.529 -21.545  0.00  0.00    +0.122 C 
ATOM      8  C   UNL     1      35.663 -20.199 -20.660  0.00  0.00    +0.013 C 
ATOM      9  C   UNL     1      32.899 -20.510 -20.459  0.00  0.00    -0.003 C 
ATOM     10  C   UNL     1      33.438 -19.683 -21.442  0.00  0.00    +0.020 C 
ATOM     11  H   UNL     1      36.035 -22.889 -17.022  0.00  0.00    -0.084 HD
ATOM     12  H   UNL     1      35.138 -21.479 -16.937  0.00  0.00    -0.084 HD
ENDROOT
BRANCH   7  13
ATOM     13  S   UNL     1      35.491 -18.497 -22.783  0.00  0.00    +0.063 S 
ATOM     14  O   UNL     1      36.892 -18.255 -22.466  0.00  0.00    -0.153 OA
ATOM     15  O   UNL     1      35.126 -19.037 -24.084  0.00  0.00    -0.153 OA
BRANCH  13  17
ATOM     16  S   UNL     1      33.550 -14.113 -22.014  0.00  0.00    -0.137 S 
ATOM     17  N   UNL     1      34.607 -17.050 -22.519  0.00  0.00    -0.154 NA
ATOM     18  C   UNL     1      34.688 -16.048 -23.625  0.00  0.00    +0.107 C 
ATOM     19  C   UNL     1      34.793 -16.432 -21.171  0.00  0.00    +0.107 C 
ATOM     20  C   UNL     1      33.519 -15.077 -23.552  0.00  0.00    +0.077 C 
ATOM     21  C   UNL     1      33.634 -15.501 -20.846  0.00  0.00    +0.077 C 
ENDBRANCH  13  17
ENDBRANCH   7  13
BRANCH   2  23
ATOM     22  F   UNL     1      32.375 -23.171 -16.392  0.00  0.00    -0.237 F 
ATOM     23  C   UNL     1      33.611 -23.678 -16.611  0.00  0.00    +0.172 C 
ENDBRANCH   2  23
TORSDOF 3
ENDMDL
MODEL 2
REMARK VINA RESULT:      -8.7      3.469      7.395
REMARK  Name = 11485425
REMARK  3 active torsions:
REMARK  status: ('A' for Active; 'I' for Inactive)
REMARK    1  A    between atoms: C_2  and  C_23
REMARK    2  A    between atoms: C_7  and  S_13
REMARK    3  A    between atoms: S_13  and  N_17
REMARK                            x       y       z     vdW  Elec       q    Type
REMARK                         _______ _______ _______ _____ _____    ______ ____
ROOT
ATOM      1  N   UNL     1      31.938 -13.363 -23.351  0.00  0.00    +0.390 N 
ATOM      2  C   UNL     1      32.445 -12.545 -22.242  0.00  0.00    -0.021 C 
ATOM      3  C   UNL     1      32.672 -13.434 -21.009  0.00  0.00    +0.007 C 
ATOM      4  C   UNL     1      33.445 -14.689 -21.332  0.00  0.00    -0.030 C 
ATOM      5  C   UNL     1      33.542 -15.138 -22.660  0.00  0.00    -0.046 C 
ATOM      6  C   UNL     1      32.954 -14.329 -23.787  0.00  0.00    -0.054 C 
ATOM      7  C   UNL     1      34.824 -17.055 -21.907  0.00  0.00    +0.122 C 
ATOM      8  C   UNL     1      34.246 -16.317 -22.940  0.00  0.00    +0.013 C 
ATOM      9  C   UNL     1      34.020 -15.443 -20.301  0.00  0.00    -0.003 C 
ATOM     10  C   UNL     1      34.709 -16.620 -20.589  0.00  0.00    +0.020 C 
ATOM     11  H   UNL     1      31.696 -12.756 -24.132  0.00  0.00    -0.084 HD
ATOM     12  H   UNL     1      31.116 -13.874 -23.032  0.00  0.00    -0.084 HD
ENDROOT
BRANCH   7  13
ATOM     13  S   UNL     1      35.693 -18.527 -22.266  0.00  0.00    +0.063 S 
ATOM     14  O   UNL     1      35.266 -19.004 -23.575  0.00  0.00    -0.153 OA
ATOM     15  O   UNL     1      37.108 -18.304 -22.004  0.00  0.00    -0.153 OA
BRANCH  13  17
ATOM     16  S   UNL     1      33.905 -21.943 -19.315  0.00  0.00    -0.137 S 
ATOM     17  N   UNL     1      35.068 -19.579 -21.063  0.00  0.00    -0.154 NA
ATOM     18  C   UNL     1      35.964 -20.714 -20.688  0.00  0.00    +0.107 C 
ATOM     19  C   UNL     1      33.653 -20.010 -21.274  0.00  0.00    +0.107 C 
ATOM     20  C   UNL     1      35.588 -21.262 -19.319  0.00  0.00    +0.077 C 
ATOM     21  C   UNL     1      33.039 -20.484 -19.964  0.00  0.00    +0.077 C 
ENDBRANCH  13  17
ENDBRANCH   7  13
BRANCH   2  23
ATOM     22  F   UNL     1      31.050 -11.577 -20.640  0.00  0.00    -0.237 F 
ATOM     23  C   UNL     1      31.443 -11.435 -21.927  0.00  0.00    +0.172 C 
ENDBRANCH   2  23
TORSDOF 3
ENDMDL
MODEL 3
REMARK VINA RESULT:      -8.5      3.939      5.699
REMARK  Name = 11485425
REMARK  3 active torsions:
REMARK  status: ('A' for Active; 'I' for Inactive)
REMARK    1  A    between atoms: C_2  and  C_23
REMARK    2  A    between atoms: C_7  and  S_13
REMARK    3  A    between atoms: S_13  and  N_17
REMARK                            x       y       z     vdW  Elec       q    Type
REMARK                         _______ _______ _______ _____ _____    ______ ____
ROOT
ATOM      1  N   UNL     1      35.333 -24.707 -13.071  0.00  0.00    +0.390 N 
ATOM      2  C   UNL     1      36.204 -23.590 -12.686  0.00  0.00    -0.021 C 
ATOM      3  C   UNL     1      37.055 -23.162 -13.893  0.00  0.00    +0.007 C 
ATOM      4  C   UNL     1      36.236 -22.979 -15.146  0.00  0.00    -0.030 C 
ATOM      5  C   UNL     1      34.954 -23.550 -15.244  0.00  0.00    -0.046 C 
ATOM      6  C   UNL     1      34.347 -24.274 -14.069  0.00  0.00    -0.054 C 
ATOM      7  C   UNL     1      34.754 -22.690 -17.503  0.00  0.00    +0.122 C 
ATOM      8  C   UNL     1      34.215 -23.388 -16.423  0.00  0.00    +0.013 C 
ATOM      9  C   UNL     1      36.772 -22.289 -16.240  0.00  0.00    -0.003 C 
ATOM     10  C   UNL     1      36.032 -22.144 -17.413  0.00  0.00    +0.020 C 
ATOM     11  H   UNL     1      34.844 -25.051 -12.245  0.00  0.00    -0.084 HD
ATOM     12  H   UNL     1      35.907 -25.446 -13.477  0.00  0.00    -0.084 HD
ENDROOT
BRANCH   7  13
ATOM     13  S   UNL     1      33.827 -22.501 -18.971  0.00  0.00    +0.063 S 
ATOM     14  O   UNL     1      34.087 -23.649 -19.830  0.00  0.00    -0.153 OA
ATOM     15  O   UNL     1      32.457 -22.163 -18.612  0.00  0.00    -0.153 OA
BRANCH  13  17
ATOM     16  S   UNL     1      35.910 -18.890 -21.460  0.00  0.00    -0.137 S 
ATOM     17  N   UNL     1      34.575 -21.117 -19.656  0.00  0.00    -0.154 NA
ATOM     18  C   UNL     1      33.718 -20.335 -20.598  0.00  0.00    +0.107 C 
ATOM     19  C   UNL     1      35.954 -21.341 -20.186  0.00  0.00    +0.107 C 
ATOM     20  C   UNL     1      34.242 -18.914 -20.742  0.00  0.00    +0.077 C 
ATOM     21  C   UNL     1      36.708 -20.023 -20.286  0.00  0.00    +0.077 C 
ENDBRANCH  13  17
ENDBRANCH   7  13
BRANCH   2  23
ATOM     22  F   UNL     1      38.350 -24.204 -12.002  0.00  0.00    -0.237 F 
ATOM     23  C   UNL     1      37.098 -24.017 -11.523  0.00  0.00    +0.172 C 
ENDBRANCH   2  23
TORSDOF 3
ENDMDL
MODEL 4
REMARK VINA RESULT:      -8.5      1.543      2.331
REMARK  Name = 11485425
REMARK  3 active torsions:
REMARK  status: ('A' for Active; 'I' for Inactive)
REMARK    1  A    between atoms: C_2  and  C_23
REMARK    2  A    between atoms: C_7  and  S_13
REMARK    3  A    between atoms: S_13  and  N_17
REMARK                            x       y       z     vdW  Elec       q    Type
REMARK                         _______ _______ _______ _____ _____    ______ ____
ROOT
ATOM      1  N   UNL     1      32.979 -21.815 -19.873  0.00  0.00    +0.390 N 
ATOM      2  C   UNL     1      34.026 -21.678 -18.854  0.00  0.00    -0.021 C 
ATOM      3  C   UNL     1      35.352 -21.293 -19.530  0.00  0.00    +0.007 C 
ATOM      4  C   UNL     1      35.200 -20.149 -20.501  0.00  0.00    -0.030 C 
ATOM      5  C   UNL     1      33.930 -19.808 -20.999  0.00  0.00    -0.046 C 
ATOM      6  C   UNL     1      32.697 -20.520 -20.503  0.00  0.00    -0.054 C 
ATOM      7  C   UNL     1      34.940 -18.068 -22.355  0.00  0.00    +0.122 C 
ATOM      8  C   UNL     1      33.808 -18.756 -21.916  0.00  0.00    +0.013 C 
ATOM      9  C   UNL     1      36.331 -19.458 -20.955  0.00  0.00    -0.003 C 
ATOM     10  C   UNL     1      36.199 -18.421 -21.877  0.00  0.00    +0.020 C 
ATOM     11  H   UNL     1      32.128 -22.165 -19.433  0.00  0.00    -0.084 HD
ATOM     12  H   UNL     1      33.301 -22.465 -20.589  0.00  0.00    -0.084 HD
ENDROOT
BRANCH   7  13
ATOM     13  S   UNL     1      34.777 -16.763 -23.505  0.00  0.00    +0.063 S 
ATOM     14  O   UNL     1      36.082 -16.140 -23.679  0.00  0.00    -0.153 OA
ATOM     15  O   UNL     1      34.050 -17.258 -24.665  0.00  0.00    -0.153 OA
BRANCH  13  17
ATOM     16  S   UNL     1      32.425 -13.376 -20.940  0.00  0.00    -0.137 S 
ATOM     17  N   UNL     1      33.761 -15.686 -22.636  0.00  0.00    -0.154 NA
ATOM     18  C   UNL     1      33.602 -14.334 -23.250  0.00  0.00    +0.107 C 
ATOM     19  C   UNL     1      34.019 -15.622 -21.166  0.00  0.00    +0.107 C 
ATOM     20  C   UNL     1      32.341 -13.657 -22.732  0.00  0.00    +0.077 C 
ATOM     21  C   UNL     1      32.800 -15.080 -20.434  0.00  0.00    +0.077 C 
ENDBRANCH  13  17
ENDBRANCH   7  13
BRANCH   2  23
ATOM     22  F   UNL     1      33.025 -23.216 -17.412  0.00  0.00    -0.237 F 
ATOM     23  C   UNL     1      34.174 -22.993 -18.092  0.00  0.00    +0.172 C 
ENDBRANCH   2  23
TORSDOF 3
ENDMDL
MODEL 5
REMARK VINA RESULT:      -8.4      4.096      7.004
REMARK  Name = 11485425
REMARK  3 active torsions:
REMARK  status: ('A' for Active; 'I' for Inactive)
REMARK    1  A    between atoms: C_2  and  C_23
REMARK    2  A    between atoms: C_7  and  S_13
REMARK    3  A    between atoms: S_13  and  N_17
REMARK                            x       y       z     vdW  Elec       q    Type
REMARK                         _______ _______ _______ _____ _____    ______ ____
ROOT
ATOM      1  N   UNL     1      36.227 -18.130 -22.506  0.00  0.00    +0.390 N 
ATOM      2  C   UNL     1      35.284 -17.066 -22.143  0.00  0.00    -0.021 C 
ATOM      3  C   UNL     1      33.870 -17.656 -22.013  0.00  0.00    +0.007 C 
ATOM      4  C   UNL     1      33.837 -18.906 -21.170  0.00  0.00    -0.030 C 
ATOM      5  C   UNL     1      35.020 -19.625 -20.923  0.00  0.00    -0.046 C 
ATOM      6  C   UNL     1      36.347 -19.109 -21.420  0.00  0.00    -0.054 C 
ATOM      7  C   UNL     1      33.751 -21.262 -19.661  0.00  0.00    +0.122 C 
ATOM      8  C   UNL     1      34.969 -20.796 -20.155  0.00  0.00    +0.013 C 
ATOM      9  C   UNL     1      32.618 -19.389 -20.678  0.00  0.00    -0.003 C 
ATOM     10  C   UNL     1      32.577 -20.561 -19.925  0.00  0.00    +0.020 C 
ATOM     11  H   UNL     1      37.142 -17.718 -22.688  0.00  0.00    -0.084 HD
ATOM     12  H   UNL     1      35.881 -18.605 -23.340  0.00  0.00    -0.084 HD
ENDROOT
BRANCH   7  13
ATOM     13  S   UNL     1      33.697 -22.727 -18.711  0.00  0.00    +0.063 S 
ATOM     14  O   UNL     1      32.404 -22.795 -18.045  0.00  0.00    -0.153 OA
ATOM     15  O   UNL     1      34.141 -23.835 -19.545  0.00  0.00    -0.153 OA
BRANCH  13  17
ATOM     16  S   UNL     1      37.375 -22.355 -15.563  0.00  0.00    -0.137 S 
ATOM     17  N   UNL     1      34.907 -22.401 -17.538  0.00  0.00    -0.154 NA
ATOM     18  C   UNL     1      36.273 -22.157 -18.089  0.00  0.00    +0.107 C 
ATOM     19  C   UNL     1      34.918 -23.330 -16.367  0.00  0.00    +0.107 C 
ATOM     20  C   UNL     1      37.126 -21.396 -17.084  0.00  0.00    +0.077 C 
ATOM     21  C   UNL     1      35.630 -22.688 -15.185  0.00  0.00    +0.077 C 
ENDBRANCH  13  17
ENDBRANCH   7  13
BRANCH   2  23
ATOM     22  F   UNL     1      34.179 -16.067 -23.940  0.00  0.00    -0.237 F 
ATOM     23  C   UNL     1      35.313 -15.971 -23.208  0.00  0.00    +0.172 C 
ENDBRANCH   2  23
TORSDOF 3
ENDMDL
MODEL 6
REMARK VINA RESULT:      -8.4      4.445      7.656
REMARK  Name = 11485425
REMARK  3 active torsions:
REMARK  status: ('A' for Active; 'I' for Inactive)
REMARK    1  A    between atoms: C_2  and  C_23
REMARK    2  A    between atoms: C_7  and  S_13
REMARK    3  A    between atoms: S_13  and  N_17
REMARK                            x       y       z     vdW  Elec       q    Type
REMARK                         _______ _______ _______ _____ _____    ______ ____
ROOT
ATOM      1  N   UNL     1      33.723 -17.928 -21.512  0.00  0.00    +0.390 N 
ATOM      2  C   UNL     1      34.891 -18.269 -22.332  0.00  0.00    -0.021 C 
ATOM      3  C   UNL     1      35.958 -18.941 -21.453  0.00  0.00    +0.007 C 
ATOM      4  C   UNL     1      35.392 -20.042 -20.592  0.00  0.00    -0.030 C 
ATOM      5  C   UNL     1      34.009 -20.111 -20.349  0.00  0.00    -0.046 C 
ATOM      6  C   UNL     1      33.066 -19.143 -21.016  0.00  0.00    -0.054 C 
ATOM      7  C   UNL     1      34.363 -22.050 -18.935  0.00  0.00    +0.122 C 
ATOM      8  C   UNL     1      33.502 -21.128 -19.529  0.00  0.00    +0.013 C 
ATOM      9  C   UNL     1      36.250 -20.967 -19.982  0.00  0.00    -0.003 C 
ATOM     10  C   UNL     1      35.735 -21.968 -19.159  0.00  0.00    +0.020 C 
ATOM     11  H   UNL     1      33.062 -17.395 -22.076  0.00  0.00    -0.084 HD
ATOM     12  H   UNL     1      34.034 -17.374 -20.714  0.00  0.00    -0.084 HD
ENDROOT
BRANCH   7  13
ATOM     13  S   UNL     1      33.721 -23.309 -17.909  0.00  0.00    +0.063 S 
ATOM     14  O   UNL     1      32.549 -22.786 -17.220  0.00  0.00    -0.153 OA
ATOM     15  O   UNL     1      33.615 -24.533 -18.690  0.00  0.00    -0.153 OA
BRANCH  13  17
ATOM     16  S   UNL     1      36.952 -23.514 -14.290  0.00  0.00    -0.137 S 
ATOM     17  N   UNL     1      34.995 -23.489 -16.774  0.00  0.00    -0.154 NA
ATOM     18  C   UNL     1      34.692 -24.387 -15.619  0.00  0.00    +0.107 C 
ATOM     19  C   UNL     1      35.650 -22.214 -16.352  0.00  0.00    +0.107 C 
ATOM     20  C   UNL     1      35.979 -24.885 -14.977  0.00  0.00    +0.077 C 
ATOM     21  C   UNL     1      37.037 -22.488 -15.786  0.00  0.00    +0.077 C 
ENDBRANCH  13  17
ENDBRANCH   7  13
BRANCH   2  23
ATOM     22  F   UNL     1      35.115 -15.949 -22.199  0.00  0.00    -0.237 F 
ATOM     23  C   UNL     1      35.449 -17.003 -22.980  0.00  0.00    +0.172 C 
ENDBRANCH   2  23
TORSDOF 3
ENDMDL
MODEL 7
REMARK VINA RESULT:      -8.2      5.806      7.930
REMARK  Name = 11485425
REMARK  3 active torsions:
REMARK  status: ('A' for Active; 'I' for Inactive)
REMARK    1  A    between atoms: C_2  and  C_23
REMARK    2  A    between atoms: C_7  and  S_13
REMARK    3  A    between atoms: S_13  and  N_17
REMARK                            x       y       z     vdW  Elec       q    Type
REMARK                         _______ _______ _______ _____ _____    ______ ____
ROOT
ATOM      1  N   UNL     1      34.077 -17.106 -21.607  0.00  0.00    +0.390 N 
ATOM      2  C   UNL     1      35.032 -16.698 -22.644  0.00  0.00    -0.021 C 
ATOM      3  C   UNL     1      34.356 -15.703 -23.602  0.00  0.00    +0.007 C 
ATOM      4  C   UNL     1      33.633 -14.597 -22.876  0.00  0.00    -0.030 C 
ATOM      5  C   UNL     1      33.294 -14.743 -21.520  0.00  0.00    -0.046 C 
ATOM      6  C   UNL     1      33.725 -15.967 -20.751  0.00  0.00    -0.054 C 
ATOM      7  C   UNL     1      32.231 -12.563 -21.560  0.00  0.00    +0.122 C 
ATOM      8  C   UNL     1      32.604 -13.714 -20.865  0.00  0.00    +0.013 C 
ATOM      9  C   UNL     1      33.245 -13.441 -23.567  0.00  0.00    -0.003 C 
ATOM     10  C   UNL     1      32.549 -12.429 -22.909  0.00  0.00    +0.020 C 
ATOM     11  H   UNL     1      34.496 -17.837 -21.035  0.00  0.00    -0.084 HD
ATOM     12  H   UNL     1      33.230 -17.451 -22.058  0.00  0.00    -0.084 HD
ENDROOT
BRANCH   7  13
ATOM     13  S   UNL     1      31.364 -11.290 -20.736  0.00  0.00    +0.063 S 
ATOM     14  O   UNL     1      29.948 -11.419 -21.053  0.00  0.00    -0.153 OA
ATOM     15  O   UNL     1      31.795 -11.262 -19.346  0.00  0.00    -0.153 OA
BRANCH  13  17
ATOM     16  S   UNL     1      32.585  -7.077 -22.820  0.00  0.00    -0.137 S 
ATOM     17  N   UNL     1      31.985  -9.902 -21.533  0.00  0.00    -0.154 NA
ATOM     18  C   UNL     1      32.309  -8.751 -20.638  0.00  0.00    +0.107 C 
ATOM     19  C   UNL     1      31.231  -9.486 -22.754  0.00  0.00    +0.107 C 
ATOM     20  C   UNL     1      33.293  -7.808 -21.316  0.00  0.00    +0.077 C 
ATOM     21  C   UNL     1      32.106  -8.620 -23.651  0.00  0.00    +0.077 C 
ENDBRANCH  13  17
ENDBRANCH   7  13
BRANCH   2  23
ATOM     22  F   UNL     1      34.481 -18.794 -23.512  0.00  0.00    -0.237 F 
ATOM     23  C   UNL     1      35.518 -17.931 -23.405  0.00  0.00    +0.172 C 
ENDBRANCH   2  23
TORSDOF 3
ENDMDL
MODEL 8
REMARK VINA RESULT:      -8.1      5.683      8.819
REMARK  Name = 11485425
REMARK  3 active torsions:
REMARK  status: ('A' for Active; 'I' for Inactive)
REMARK    1  A    between atoms: C_2  and  C_23
REMARK    2  A    between atoms: C_7  and  S_13
REMARK    3  A    between atoms: S_13  and  N_17
REMARK                            x       y       z     vdW  Elec       q    Type
REMARK                         _______ _______ _______ _____ _____    ______ ____
ROOT
ATOM      1  N   UNL     1      33.865 -20.599 -20.247  0.00  0.00    +0.390 N 
ATOM      2  C   UNL     1      35.237 -20.615 -20.766  0.00  0.00    -0.021 C 
ATOM      3  C   UNL     1      36.231 -20.543 -19.596  0.00  0.00    +0.007 C 
ATOM      4  C   UNL     1      35.911 -21.529 -18.500  0.00  0.00    -0.030 C 
ATOM      5  C   UNL     1      34.631 -22.104 -18.417  0.00  0.00    -0.046 C 
ATOM      6  C   UNL     1      33.591 -21.813 -19.470  0.00  0.00    -0.054 C 
ATOM      7  C   UNL     1      35.310 -23.305 -16.422  0.00  0.00    +0.122 C 
ATOM      8  C   UNL     1      34.343 -23.003 -17.381  0.00  0.00    +0.013 C 
ATOM      9  C   UNL     1      36.871 -21.832 -17.526  0.00  0.00    -0.003 C 
ATOM     10  C   UNL     1      36.571 -22.718 -16.493  0.00  0.00    +0.020 C 
ATOM     11  H   UNL     1      33.211 -20.546 -21.028  0.00  0.00    -0.084 HD
ATOM     12  H   UNL     1      33.754 -19.788 -19.638  0.00  0.00    -0.084 HD
ENDROOT
BRANCH   7  13
ATOM     13  S   UNL     1      34.939 -24.421 -15.130  0.00  0.00    +0.063 S 
ATOM     14  O   UNL     1      33.727 -23.964 -14.463  0.00  0.00    -0.153 OA
ATOM     15  O   UNL     1      35.008 -25.776 -15.657  0.00  0.00    -0.153 OA
BRANCH  13  17
ATOM     16  S   UNL     1      38.467 -24.152 -11.805  0.00  0.00    -0.137 S 
ATOM     17  N   UNL     1      36.275 -24.167 -14.084  0.00  0.00    -0.154 NA
ATOM     18  C   UNL     1      37.228 -25.313 -13.985  0.00  0.00    +0.107 C 
ATOM     19  C   UNL     1      35.932 -23.590 -12.749  0.00  0.00    +0.107 C 
ATOM     20  C   UNL     1      38.584 -24.838 -13.482  0.00  0.00    +0.077 C 
ATOM     21  C   UNL     1      37.154 -22.937 -12.119  0.00  0.00    +0.077 C 
ENDBRANCH  13  17
ENDBRANCH   7  13
BRANCH   2  23
ATOM     22  F   UNL     1      34.221 -18.929 -22.021  0.00  0.00    -0.237 F 
ATOM     23  C   UNL     1      35.438 -19.435 -21.715  0.00  0.00    +0.172 C 
ENDBRANCH   2  23
TORSDOF 3
ENDMDL
MODEL 9
REMARK VINA RESULT:      -8.0      8.287      9.974
REMARK  Name = 11485425
REMARK  3 active torsions:
REMARK  status: ('A' for Active; 'I' for Inactive)
REMARK    1  A    between atoms: C_2  and  C_23
REMARK    2  A    between atoms: C_7  and  S_13
REMARK    3  A    between atoms: S_13  and  N_17
REMARK                            x       y       z     vdW  Elec       q    Type
REMARK                         _______ _______ _______ _____ _____    ______ ____
ROOT
ATOM      1  N   UNL     1      29.534 -23.806 -14.559  0.00  0.00    +0.390 N 
ATOM      2  C   UNL     1      29.835 -24.018 -15.979  0.00  0.00    -0.021 C 
ATOM      3  C   UNL     1      31.118 -23.259 -16.352  0.00  0.00    +0.007 C 
ATOM      4  C   UNL     1      32.243 -23.505 -15.378  0.00  0.00    -0.030 C 
ATOM      5  C   UNL     1      31.972 -24.020 -14.098  0.00  0.00    -0.046 C 
ATOM      6  C   UNL     1      30.568 -24.413 -13.714  0.00  0.00    -0.054 C 
ATOM      7  C   UNL     1      34.333 -23.893 -13.557  0.00  0.00    +0.122 C 
ATOM      8  C   UNL     1      33.026 -24.223 -13.198  0.00  0.00    +0.013 C 
ATOM      9  C   UNL     1      33.558 -23.168 -15.725  0.00  0.00    -0.003 C 
ATOM     10  C   UNL     1      34.598 -23.364 -14.818  0.00  0.00    +0.020 C 
ATOM     11  H   UNL     1      28.632 -24.228 -14.340  0.00  0.00    -0.084 HD
ATOM     12  H   UNL     1      29.509 -22.803 -14.376  0.00  0.00    -0.084 HD
ENDROOT
BRANCH   7  13
ATOM     13  S   UNL     1      35.639 -24.144 -12.424  0.00  0.00    +0.063 S 
ATOM     14  O   UNL     1      36.113 -22.842 -11.975  0.00  0.00    -0.153 OA
ATOM     15  O   UNL     1      35.218 -25.138 -11.447  0.00  0.00    -0.153 OA
BRANCH  13  17
ATOM     16  S   UNL     1      39.375 -26.136 -14.801  0.00  0.00    -0.137 S 
ATOM     17  N   UNL     1      36.828 -24.843 -13.445  0.00  0.00    -0.154 NA
ATOM     18  C   UNL     1      37.180 -26.260 -13.128  0.00  0.00    +0.107 C 
ATOM     19  C   UNL     1      38.033 -23.994 -13.685  0.00  0.00    +0.107 C 
ATOM     20  C   UNL     1      37.813 -26.936 -14.336  0.00  0.00    +0.077 C 
ATOM     21  C   UNL     1      38.754 -24.436 -14.951  0.00  0.00    +0.077 C 
ENDBRANCH  13  17
ENDBRANCH   7  13
BRANCH   2  23
ATOM     22  F   UNL     1      27.981 -24.625 -17.261  0.00  0.00    -0.237 F 
ATOM     23  C   UNL     1      28.660 -23.537 -16.829  0.00  0.00    +0.172 C 
ENDBRANCH   2  23
TORSDOF 3
ENDMDL
