MODEL 1
REMARK VINA RESULT:     -10.0      0.000      0.000
REMARK  Name = 46239015
REMARK  3 active torsions:
REMARK  status: ('A' for Active; 'I' for Inactive)
REMARK    1  A    between atoms: C_5  and  C_12
REMARK    2  A    between atoms: C_8  and  N_25
REMARK    3  A    between atoms: C_9  and  C_21
REMARK                            x       y       z     vdW  Elec       q    Type
REMARK                         _______ _______ _______ _____ _____    ______ ____
ROOT
ATOM      1 BR   UNL     1      36.466 -23.961 -15.268  0.00  0.00    -0.044 Br
ATOM      2  N   UNL     1      32.476 -23.436 -16.363  0.00  0.00    -0.393 NA
ATOM      3  N   UNL     1      32.512 -24.158 -14.071  0.00  0.00    -0.152 N 
ATOM      4  N   UNL     1      31.643 -24.435 -13.056  0.00  0.00    -0.173 NA
ATOM      5  C   UNL     1      33.776 -23.501 -16.346  0.00  0.00    +0.116 C 
ATOM      6  C   UNL     1      34.605 -23.911 -15.156  0.00  0.00    +0.089 C 
ATOM      7  C   UNL     1      31.825 -23.766 -15.219  0.00  0.00    +0.193 C 
ATOM      8  C   UNL     1      33.915 -24.229 -14.041  0.00  0.00    +0.128 C 
ATOM      9  C   UNL     1      30.485 -23.803 -14.908  0.00  0.00    +0.137 C 
ATOM     10  C   UNL     1      30.436 -24.220 -13.574  0.00  0.00    +0.105 C 
ENDROOT
BRANCH   5  12
ATOM     11  N   UNL     1      34.095 -22.099 -19.843  0.00  0.00    +0.384 N 
ATOM     12  C   UNL     1      34.474 -23.130 -17.619  0.00  0.00    +0.032 C 
ATOM     13  C   UNL     1      35.595 -22.133 -17.327  0.00  0.00    +0.003 C 
ATOM     14  C   UNL     1      33.456 -22.545 -18.602  0.00  0.00    -0.075 C 
ATOM     15  C   UNL     1      36.200 -21.613 -18.629  0.00  0.00    -0.023 C 
ATOM     16  C   UNL     1      35.118 -21.087 -19.571  0.00  0.00    -0.082 C 
ATOM     17  H   UNL     1      33.386 -21.700 -20.458  0.00  0.00    -0.085 HD
ATOM     18  H   UNL     1      34.541 -22.902 -20.286  0.00  0.00    -0.085 HD
ENDBRANCH   5  12
BRANCH   9  21
ATOM     19  N   UNL     1      27.623 -22.571 -16.716  0.00  0.00    -0.209 N 
ATOM     20  N   UNL     1      27.751 -23.746 -17.355  0.00  0.00    -0.177 NA
ATOM     21  C   UNL     1      29.348 -23.491 -15.740  0.00  0.00    +0.028 C 
ATOM     22  C   UNL     1      28.555 -22.369 -15.740  0.00  0.00    +0.082 C 
ATOM     23  C   UNL     1      28.807 -24.304 -16.755  0.00  0.00    +0.116 C 
ATOM     24  C   UNL     1      26.565 -21.663 -17.091  0.00  0.00    +0.140 C 
ENDBRANCH   9  21
BRANCH   8  25
ATOM     25  N   UNL     1      34.477 -24.627 -12.858  0.00  0.00    -0.344 N 
ATOM     26  H   UNL     1      35.398 -24.359 -12.636  0.00  0.00    +0.144 HD
ATOM     27  H   UNL     1      33.959 -25.181 -12.229  0.00  0.00    +0.144 HD
ENDBRANCH   8  25
TORSDOF 3
ENDMDL
MODEL 2
REMARK VINA RESULT:      -8.8      2.358      6.052
REMARK  Name = 46239015
REMARK  3 active torsions:
REMARK  status: ('A' for Active; 'I' for Inactive)
REMARK    1  A    between atoms: C_5  and  C_12
REMARK    2  A    between atoms: C_8  and  N_25
REMARK    3  A    between atoms: C_9  and  C_21
REMARK                            x       y       z     vdW  Elec       q    Type
REMARK                         _______ _______ _______ _____ _____    ______ ____
ROOT
ATOM      1 BR   UNL     1      34.938 -24.466 -11.657  0.00  0.00    -0.044 Br
ATOM      2  N   UNL     1      34.473 -22.948 -15.513  0.00  0.00    -0.393 NA
ATOM      3  N   UNL     1      36.830 -23.081 -15.064  0.00  0.00    -0.152 N 
ATOM      4  N   UNL     1      38.020 -22.818 -15.677  0.00  0.00    -0.173 NA
ATOM      5  C   UNL     1      34.274 -23.424 -14.318  0.00  0.00    +0.116 C 
ATOM      6  C   UNL     1      35.363 -23.791 -13.342  0.00  0.00    +0.089 C 
ATOM      7  C   UNL     1      35.761 -22.769 -15.902  0.00  0.00    +0.193 C 
ATOM      8  C   UNL     1      36.626 -23.597 -13.772  0.00  0.00    +0.128 C 
ATOM      9  C   UNL     1      36.304 -22.295 -17.074  0.00  0.00    +0.137 C 
ATOM     10  C   UNL     1      37.688 -22.347 -16.876  0.00  0.00    +0.105 C 
ENDROOT
BRANCH   5  12
ATOM     11  N   UNL     1      30.537 -22.856 -14.412  0.00  0.00    +0.384 N 
ATOM     12  C   UNL     1      32.845 -23.615 -13.911  0.00  0.00    +0.032 C 
ATOM     13  C   UNL     1      32.432 -25.071 -14.126  0.00  0.00    +0.003 C 
ATOM     14  C   UNL     1      31.957 -22.665 -14.719  0.00  0.00    -0.075 C 
ATOM     15  C   UNL     1      30.934 -25.244 -13.882  0.00  0.00    -0.023 C 
ATOM     16  C   UNL     1      30.123 -24.233 -14.689  0.00  0.00    -0.082 C 
ATOM     17  H   UNL     1      29.984 -22.218 -14.984  0.00  0.00    -0.085 HD
ATOM     18  H   UNL     1      30.390 -22.665 -13.421  0.00  0.00    -0.085 HD
ENDBRANCH   5  12
BRANCH   9  21
ATOM     19  N   UNL     1      35.070 -20.859 -20.138  0.00  0.00    -0.209 N 
ATOM     20  N   UNL     1      33.999 -21.618 -19.847  0.00  0.00    -0.177 NA
ATOM     21  C   UNL     1      35.635 -21.835 -18.267  0.00  0.00    +0.028 C 
ATOM     22  C   UNL     1      36.078 -20.953 -19.223  0.00  0.00    +0.082 C 
ATOM     23  C   UNL     1      34.350 -22.211 -18.703  0.00  0.00    +0.116 C 
ATOM     24  C   UNL     1      35.069 -20.046 -21.331  0.00  0.00    +0.140 C 
ENDBRANCH   9  21
BRANCH   8  25
ATOM     25  N   UNL     1      37.753 -23.865 -13.042  0.00  0.00    -0.344 N 
ATOM     26  H   UNL     1      37.789 -24.662 -12.467  0.00  0.00    +0.144 HD
ATOM     27  H   UNL     1      38.528 -23.258 -13.093  0.00  0.00    +0.144 HD
ENDBRANCH   8  25
TORSDOF 3
ENDMDL
MODEL 3
REMARK VINA RESULT:      -8.6     11.554     14.121
REMARK  Name = 46239015
REMARK  3 active torsions:
REMARK  status: ('A' for Active; 'I' for Inactive)
REMARK    1  A    between atoms: C_5  and  C_12
REMARK    2  A    between atoms: C_8  and  N_25
REMARK    3  A    between atoms: C_9  and  C_21
REMARK                            x       y       z     vdW  Elec       q    Type
REMARK                         _______ _______ _______ _____ _____    ______ ____
ROOT
ATOM      1 BR   UNL     1      33.629 -15.683 -22.647  0.00  0.00    -0.044 Br
ATOM      2  N   UNL     1      32.767 -11.621 -23.030  0.00  0.00    -0.393 NA
ATOM      3  N   UNL     1      32.119 -12.296 -20.817  0.00  0.00    -0.152 N 
ATOM      4  N   UNL     1      31.573 -11.761 -19.687  0.00  0.00    -0.173 NA
ATOM      5  C   UNL     1      33.145 -12.850 -23.235  0.00  0.00    +0.116 C 
ATOM      6  C   UNL     1      33.048 -13.963 -22.223  0.00  0.00    +0.089 C 
ATOM      7  C   UNL     1      32.246 -11.328 -21.812  0.00  0.00    +0.193 C 
ATOM      8  C   UNL     1      32.525 -13.625 -21.026  0.00  0.00    +0.128 C 
ATOM      9  C   UNL     1      31.761 -10.154 -21.284  0.00  0.00    +0.137 C 
ATOM     10  C   UNL     1      31.364 -10.481 -19.983  0.00  0.00    +0.105 C 
ENDROOT
BRANCH   5  12
ATOM     11  N   UNL     1      33.289 -14.429 -26.667  0.00  0.00    +0.384 N 
ATOM     12  C   UNL     1      33.719 -13.150 -24.585  0.00  0.00    +0.032 C 
ATOM     13  C   UNL     1      33.866 -11.858 -25.389  0.00  0.00    +0.003 C 
ATOM     14  C   UNL     1      32.813 -14.149 -25.309  0.00  0.00    -0.075 C 
ATOM     15  C   UNL     1      34.284 -12.164 -26.825  0.00  0.00    -0.023 C 
ATOM     16  C   UNL     1      33.358 -13.200 -27.461  0.00  0.00    -0.082 C 
ATOM     17  H   UNL     1      32.648 -15.082 -27.117  0.00  0.00    -0.085 HD
ATOM     18  H   UNL     1      34.224 -14.831 -26.608  0.00  0.00    -0.085 HD
ENDBRANCH   5  12
BRANCH   9  21
ATOM     19  N   UNL     1      31.360  -7.160 -23.246  0.00  0.00    -0.209 N 
ATOM     20  N   UNL     1      31.774  -6.578 -22.107  0.00  0.00    -0.177 NA
ATOM     21  C   UNL     1      31.665  -8.851 -21.897  0.00  0.00    +0.028 C 
ATOM     22  C   UNL     1      31.278  -8.520 -23.173  0.00  0.00    +0.082 C 
ATOM     23  C   UNL     1      31.958  -7.617 -21.286  0.00  0.00    +0.116 C 
ATOM     24  C   UNL     1      31.054  -6.344 -24.397  0.00  0.00    +0.140 C 
ENDBRANCH   9  21
BRANCH   8  25
ATOM     25  N   UNL     1      32.351 -14.486 -19.976  0.00  0.00    -0.344 N 
ATOM     26  H   UNL     1      33.020 -15.184 -19.795  0.00  0.00    +0.144 HD
ATOM     27  H   UNL     1      31.554 -14.405 -19.402  0.00  0.00    +0.144 HD
ENDBRANCH   8  25
TORSDOF 3
ENDMDL
MODEL 4
REMARK VINA RESULT:      -8.5     16.655     19.700
REMARK  Name = 46239015
REMARK  3 active torsions:
REMARK  status: ('A' for Active; 'I' for Inactive)
REMARK    1  A    between atoms: C_5  and  C_12
REMARK    2  A    between atoms: C_8  and  N_25
REMARK    3  A    between atoms: C_9  and  C_21
REMARK                            x       y       z     vdW  Elec       q    Type
REMARK                         _______ _______ _______ _____ _____    ______ ____
ROOT
ATOM      1 BR   UNL     1      32.015  -7.977 -20.575  0.00  0.00    -0.044 Br
ATOM      2  N   UNL     1      32.908  -6.422 -24.340  0.00  0.00    -0.393 NA
ATOM      3  N   UNL     1      31.499  -4.834 -23.213  0.00  0.00    -0.152 N 
ATOM      4  N   UNL     1      30.926  -3.616 -23.432  0.00  0.00    -0.173 NA
ATOM      5  C   UNL     1      32.825  -7.167 -23.276  0.00  0.00    +0.116 C 
ATOM      6  C   UNL     1      32.049  -6.815 -22.032  0.00  0.00    +0.089 C 
ATOM      7  C   UNL     1      32.241  -5.240 -24.321  0.00  0.00    +0.193 C 
ATOM      8  C   UNL     1      31.404  -5.631 -22.059  0.00  0.00    +0.128 C 
ATOM      9  C   UNL     1      32.124  -4.242 -25.261  0.00  0.00    +0.137 C 
ATOM     10  C   UNL     1      31.308  -3.277 -24.661  0.00  0.00    +0.105 C 
ENDROOT
BRANCH   5  12
ATOM     11  N   UNL     1      33.267 -10.897 -23.712  0.00  0.00    +0.384 N 
ATOM     12  C   UNL     1      33.570  -8.466 -23.318  0.00  0.00    +0.032 C 
ATOM     13  C   UNL     1      34.657  -8.410 -24.391  0.00  0.00    +0.003 C 
ATOM     14  C   UNL     1      32.584  -9.606 -23.591  0.00  0.00    -0.075 C 
ATOM     15  C   UNL     1      35.308  -9.780 -24.567  0.00  0.00    -0.023 C 
ATOM     16  C   UNL     1      34.257 -10.866 -24.791  0.00  0.00    -0.082 C 
ATOM     17  H   UNL     1      32.578 -11.621 -23.912  0.00  0.00    -0.085 HD
ATOM     18  H   UNL     1      33.748 -11.094 -22.835  0.00  0.00    -0.085 HD
ENDBRANCH   5  12
BRANCH   9  21
ATOM     19  N   UNL     1      33.987  -4.259 -28.344  0.00  0.00    -0.209 N 
ATOM     20  N   UNL     1      32.850  -3.723 -28.820  0.00  0.00    -0.177 NA
ATOM     21  C   UNL     1      32.697  -4.164 -26.582  0.00  0.00    +0.028 C 
ATOM     22  C   UNL     1      33.948  -4.541 -27.009  0.00  0.00    +0.082 C 
ATOM     23  C   UNL     1      32.066  -3.667 -27.739  0.00  0.00    +0.116 C 
ATOM     24  C   UNL     1      35.102  -4.480 -29.233  0.00  0.00    +0.140 C 
ENDBRANCH   9  21
BRANCH   8  25
ATOM     25  N   UNL     1      30.646  -5.127 -21.035  0.00  0.00    -0.344 N 
ATOM     26  H   UNL     1      31.031  -4.466 -20.417  0.00  0.00    +0.144 HD
ATOM     27  H   UNL     1      29.716  -5.429 -20.918  0.00  0.00    +0.144 HD
ENDBRANCH   8  25
TORSDOF 3
ENDMDL
MODEL 5
REMARK VINA RESULT:      -8.3     11.751     14.579
REMARK  Name = 46239015
REMARK  3 active torsions:
REMARK  status: ('A' for Active; 'I' for Inactive)
REMARK    1  A    between atoms: C_5  and  C_12
REMARK    2  A    between atoms: C_8  and  N_25
REMARK    3  A    between atoms: C_9  and  C_21
REMARK                            x       y       z     vdW  Elec       q    Type
REMARK                         _______ _______ _______ _____ _____    ______ ____
ROOT
ATOM      1 BR   UNL     1      31.789  -7.642 -20.959  0.00  0.00    -0.044 Br
ATOM      2  N   UNL     1      32.727 -11.055 -23.163  0.00  0.00    -0.393 NA
ATOM      3  N   UNL     1      32.103 -11.765 -20.954  0.00  0.00    -0.152 N 
ATOM      4  N   UNL     1      31.967 -12.916 -20.233  0.00  0.00    -0.173 NA
ATOM      5  C   UNL     1      32.514  -9.833 -22.771  0.00  0.00    +0.116 C 
ATOM      6  C   UNL     1      32.058  -9.436 -21.390  0.00  0.00    +0.089 C 
ATOM      7  C   UNL     1      32.523 -12.042 -22.254  0.00  0.00    +0.193 C 
ATOM      8  C   UNL     1      31.868 -10.449 -20.520  0.00  0.00    +0.128 C 
ATOM      9  C   UNL     1      32.656 -13.408 -22.343  0.00  0.00    +0.137 C 
ATOM     10  C   UNL     1      32.303 -13.888 -21.077  0.00  0.00    +0.105 C 
ENDROOT
BRANCH   5  12
ATOM     11  N   UNL     1      31.730  -6.710 -24.753  0.00  0.00    +0.384 N 
ATOM     12  C   UNL     1      32.743  -8.760 -23.791  0.00  0.00    +0.032 C 
ATOM     13  C   UNL     1      34.025  -7.995 -23.465  0.00  0.00    +0.003 C 
ATOM     14  C   UNL     1      31.533  -7.822 -23.820  0.00  0.00    -0.075 C 
ATOM     15  C   UNL     1      34.180  -6.791 -24.391  0.00  0.00    -0.023 C 
ATOM     16  C   UNL     1      32.917  -5.931 -24.396  0.00  0.00    -0.082 C 
ATOM     17  H   UNL     1      30.911  -6.103 -24.726  0.00  0.00    -0.085 HD
ATOM     18  H   UNL     1      31.860  -7.091 -25.690  0.00  0.00    -0.085 HD
ENDBRANCH   5  12
BRANCH   9  21
ATOM     19  N   UNL     1      33.908 -15.727 -24.799  0.00  0.00    -0.209 N 
ATOM     20  N   UNL     1      33.289 -14.883 -25.642  0.00  0.00    -0.177 NA
ATOM     21  C   UNL     1      33.064 -14.212 -23.470  0.00  0.00    +0.028 C 
ATOM     22  C   UNL     1      33.803 -15.370 -23.486  0.00  0.00    +0.082 C 
ATOM     23  C   UNL     1      32.775 -13.960 -24.825  0.00  0.00    +0.116 C 
ATOM     24  C   UNL     1      34.600 -16.882 -25.320  0.00  0.00    +0.140 C 
ENDBRANCH   9  21
BRANCH   8  25
ATOM     25  N   UNL     1      31.458 -10.302 -19.222  0.00  0.00    -0.344 N 
ATOM     26  H   UNL     1      30.806  -9.604 -18.988  0.00  0.00    +0.144 HD
ATOM     27  H   UNL     1      31.818 -10.896 -18.523  0.00  0.00    +0.144 HD
ENDBRANCH   8  25
TORSDOF 3
ENDMDL
MODEL 6
REMARK VINA RESULT:      -8.3      7.327     10.826
REMARK  Name = 46239015
REMARK  3 active torsions:
REMARK  status: ('A' for Active; 'I' for Inactive)
REMARK    1  A    between atoms: C_5  and  C_12
REMARK    2  A    between atoms: C_8  and  N_25
REMARK    3  A    between atoms: C_9  and  C_21
REMARK                            x       y       z     vdW  Elec       q    Type
REMARK                         _______ _______ _______ _____ _____    ______ ____
ROOT
ATOM      1 BR   UNL     1      35.455 -19.417 -23.988  0.00  0.00    -0.044 Br
ATOM      2  N   UNL     1      33.814 -16.183 -21.929  0.00  0.00    -0.393 NA
ATOM      3  N   UNL     1      33.748 -15.661 -24.273  0.00  0.00    -0.152 N 
ATOM      4  N   UNL     1      33.344 -14.654 -25.102  0.00  0.00    -0.173 NA
ATOM      5  C   UNL     1      34.361 -17.318 -22.253  0.00  0.00    +0.116 C 
ATOM      6  C   UNL     1      34.667 -17.758 -23.662  0.00  0.00    +0.089 C 
ATOM      7  C   UNL     1      33.500 -15.336 -22.941  0.00  0.00    +0.193 C 
ATOM      8  C   UNL     1      34.337 -16.884 -24.635  0.00  0.00    +0.128 C 
ATOM      9  C   UNL     1      32.924 -14.085 -22.941  0.00  0.00    +0.137 C 
ATOM     10  C   UNL     1      32.856 -13.721 -24.290  0.00  0.00    +0.105 C 
ENDROOT
BRANCH   5  12
ATOM     11  N   UNL     1      34.072 -20.409 -20.095  0.00  0.00    +0.384 N 
ATOM     12  C   UNL     1      34.698 -18.238 -21.120  0.00  0.00    +0.032 C 
ATOM     13  C   UNL     1      36.154 -18.691 -21.231  0.00  0.00    +0.003 C 
ATOM     14  C   UNL     1      33.745 -19.437 -21.142  0.00  0.00    -0.075 C 
ATOM     15  C   UNL     1      36.463 -19.762 -20.188  0.00  0.00    -0.023 C 
ATOM     16  C   UNL     1      35.443 -20.899 -20.245  0.00  0.00    -0.082 C 
ATOM     17  H   UNL     1      33.427 -21.196 -20.158  0.00  0.00    -0.085 HD
ATOM     18  H   UNL     1      33.987 -19.951 -19.188  0.00  0.00    -0.085 HD
ENDBRANCH   5  12
BRANCH   9  21
ATOM     19  N   UNL     1      31.656 -11.743 -20.516  0.00  0.00    -0.209 N 
ATOM     20  N   UNL     1      32.061 -12.695 -19.657  0.00  0.00    -0.177 NA
ATOM     21  C   UNL     1      32.476 -13.289 -21.824  0.00  0.00    +0.028 C 
ATOM     22  C   UNL     1      31.882 -12.050 -21.826  0.00  0.00    +0.082 C 
ATOM     23  C   UNL     1      32.561 -13.637 -20.463  0.00  0.00    +0.116 C 
ATOM     24  C   UNL     1      31.049 -10.535 -20.011  0.00  0.00    +0.140 C 
ENDBRANCH   9  21
BRANCH   8  25
ATOM     25  N   UNL     1      34.532 -17.091 -25.974  0.00  0.00    -0.344 N 
ATOM     26  H   UNL     1      33.760 -17.136 -26.583  0.00  0.00    +0.144 HD
ATOM     27  H   UNL     1      35.446 -17.196 -26.327  0.00  0.00    +0.144 HD
ENDBRANCH   8  25
TORSDOF 3
ENDMDL
MODEL 7
REMARK VINA RESULT:      -8.2      9.875     13.102
REMARK  Name = 46239015
REMARK  3 active torsions:
REMARK  status: ('A' for Active; 'I' for Inactive)
REMARK    1  A    between atoms: C_5  and  C_12
REMARK    2  A    between atoms: C_8  and  N_25
REMARK    3  A    between atoms: C_9  and  C_21
REMARK                            x       y       z     vdW  Elec       q    Type
REMARK                         _______ _______ _______ _____ _____    ______ ____
ROOT
ATOM      1 BR   UNL     1      31.546  -9.279 -22.906  0.00  0.00    -0.044 Br
ATOM      2  N   UNL     1      33.527 -12.939 -23.166  0.00  0.00    -0.393 NA
ATOM      3  N   UNL     1      32.194 -12.974 -21.167  0.00  0.00    -0.152 N 
ATOM      4  N   UNL     1      31.903 -13.810 -20.128  0.00  0.00    -0.173 NA
ATOM      5  C   UNL     1      33.077 -11.736 -23.378  0.00  0.00    +0.116 C 
ATOM      6  C   UNL     1      32.111 -11.005 -22.483  0.00  0.00    +0.089 C 
ATOM      7  C   UNL     1      33.088 -13.576 -22.051  0.00  0.00    +0.193 C 
ATOM      8  C   UNL     1      31.702 -11.677 -21.387  0.00  0.00    +0.128 C 
ATOM      9  C   UNL     1      33.363 -14.826 -21.544  0.00  0.00    +0.137 C 
ATOM     10  C   UNL     1      32.611 -14.910 -20.368  0.00  0.00    +0.105 C 
ENDROOT
BRANCH   5  12
ATOM     11  N   UNL     1      35.274  -9.440 -25.427  0.00  0.00    +0.384 N 
ATOM     12  C   UNL     1      33.573 -11.054 -24.616  0.00  0.00    +0.032 C 
ATOM     13  C   UNL     1      34.050 -12.093 -25.630  0.00  0.00    +0.003 C 
ATOM     14  C   UNL     1      34.702 -10.088 -24.244  0.00  0.00    -0.075 C 
ATOM     15  C   UNL     1      34.718 -11.412 -26.822  0.00  0.00    -0.023 C 
ATOM     16  C   UNL     1      35.800 -10.434 -26.365  0.00  0.00    -0.082 C 
ATOM     17  H   UNL     1      36.032  -8.823 -25.136  0.00  0.00    -0.085 HD
ATOM     18  H   UNL     1      34.540  -8.908 -25.894  0.00  0.00    -0.085 HD
ENDBRANCH   5  12
BRANCH   9  21
ATOM     19  N   UNL     1      35.616 -17.516 -22.360  0.00  0.00    -0.209 N 
ATOM     20  N   UNL     1      35.323 -17.134 -23.615  0.00  0.00    -0.177 NA
ATOM     21  C   UNL     1      34.227 -15.853 -22.073  0.00  0.00    +0.028 C 
ATOM     22  C   UNL     1      34.985 -16.780 -21.399  0.00  0.00    +0.082 C 
ATOM     23  C   UNL     1      34.475 -16.118 -23.433  0.00  0.00    +0.116 C 
ATOM     24  C   UNL     1      36.526 -18.613 -22.138  0.00  0.00    +0.140 C 
ENDBRANCH   9  21
BRANCH   8  25
ATOM     25  N   UNL     1      30.830 -11.191 -20.449  0.00  0.00    -0.344 N 
ATOM     26  H   UNL     1      30.931 -10.272 -20.113  0.00  0.00    +0.144 HD
ATOM     27  H   UNL     1      30.102 -11.763 -20.113  0.00  0.00    +0.144 HD
ENDBRANCH   8  25
TORSDOF 3
ENDMDL
MODEL 8
REMARK VINA RESULT:      -8.2      1.963      6.205
REMARK  Name = 46239015
REMARK  3 active torsions:
REMARK  status: ('A' for Active; 'I' for Inactive)
REMARK    1  A    between atoms: C_5  and  C_12
REMARK    2  A    between atoms: C_8  and  N_25
REMARK    3  A    between atoms: C_9  and  C_21
REMARK                            x       y       z     vdW  Elec       q    Type
REMARK                         _______ _______ _______ _____ _____    ______ ____
ROOT
ATOM      1 BR   UNL     1      31.499 -24.968 -13.371  0.00  0.00    -0.044 Br
ATOM      2  N   UNL     1      33.306 -22.996 -16.570  0.00  0.00    -0.393 NA
ATOM      3  N   UNL     1      35.047 -23.688 -15.066  0.00  0.00    -0.152 N 
ATOM      4  N   UNL     1      36.406 -23.630 -14.954  0.00  0.00    -0.173 NA
ATOM      5  C   UNL     1      32.455 -23.538 -15.747  0.00  0.00    +0.116 C 
ATOM      6  C   UNL     1      32.821 -24.233 -14.460  0.00  0.00    +0.089 C 
ATOM      7  C   UNL     1      34.619 -23.065 -16.237  0.00  0.00    +0.193 C 
ATOM      8  C   UNL     1      34.138 -24.277 -14.171  0.00  0.00    +0.128 C 
ATOM      9  C   UNL     1      35.749 -22.603 -16.873  0.00  0.00    +0.137 C 
ATOM     10  C   UNL     1      36.809 -22.977 -16.040  0.00  0.00    +0.105 C 
ENDROOT
BRANCH   5  12
ATOM     11  N   UNL     1      28.938 -24.803 -16.317  0.00  0.00    +0.384 N 
ATOM     12  C   UNL     1      31.011 -23.452 -16.136  0.00  0.00    +0.032 C 
ATOM     13  C   UNL     1      30.292 -22.435 -15.251  0.00  0.00    +0.003 C 
ATOM     14  C   UNL     1      30.372 -24.838 -16.015  0.00  0.00    -0.075 C 
ATOM     15  C   UNL     1      28.788 -22.462 -15.516  0.00  0.00    -0.023 C 
ATOM     16  C   UNL     1      28.236 -23.884 -15.418  0.00  0.00    -0.082 C 
ATOM     17  H   UNL     1      28.551 -25.740 -16.206  0.00  0.00    -0.085 HD
ATOM     18  H   UNL     1      28.816 -24.478 -17.276  0.00  0.00    -0.085 HD
ENDBRANCH   5  12
BRANCH   9  21
ATOM     19  N   UNL     1      36.473 -20.604 -19.781  0.00  0.00    -0.209 N 
ATOM     20  N   UNL     1      35.347 -21.184 -20.232  0.00  0.00    -0.177 NA
ATOM     21  C   UNL     1      35.863 -21.887 -18.120  0.00  0.00    +0.028 C 
ATOM     22  C   UNL     1      36.826 -20.992 -18.521  0.00  0.00    +0.082 C 
ATOM     23  C   UNL     1      34.979 -21.966 -19.213  0.00  0.00    +0.116 C 
ATOM     24  C   UNL     1      37.182 -19.667 -20.619  0.00  0.00    +0.140 C 
ENDBRANCH   9  21
BRANCH   8  25
ATOM     25  N   UNL     1      34.676 -24.859 -13.054  0.00  0.00    -0.344 N 
ATOM     26  H   UNL     1      35.364 -24.384 -12.536  0.00  0.00    +0.144 HD
ATOM     27  H   UNL     1      34.373 -25.753 -12.772  0.00  0.00    +0.144 HD
ENDBRANCH   8  25
TORSDOF 3
ENDMDL
MODEL 9
REMARK VINA RESULT:      -8.0      2.686      6.705
REMARK  Name = 46239015
REMARK  3 active torsions:
REMARK  status: ('A' for Active; 'I' for Inactive)
REMARK    1  A    between atoms: C_5  and  C_12
REMARK    2  A    between atoms: C_8  and  N_25
REMARK    3  A    between atoms: C_9  and  C_21
REMARK                            x       y       z     vdW  Elec       q    Type
REMARK                         _______ _______ _______ _____ _____    ______ ____
ROOT
ATOM      1 BR   UNL     1      33.050 -22.102 -19.407  0.00  0.00    -0.044 Br
ATOM      2  N   UNL     1      34.203 -23.574 -15.679  0.00  0.00    -0.393 NA
ATOM      3  N   UNL     1      36.142 -22.592 -16.704  0.00  0.00    -0.152 N 
ATOM      4  N   UNL     1      37.462 -22.379 -16.435  0.00  0.00    -0.173 NA
ATOM      5  C   UNL     1      33.537 -23.240 -16.746  0.00  0.00    +0.116 C 
ATOM      6  C   UNL     1      34.119 -22.524 -17.939  0.00  0.00    +0.089 C 
ATOM      7  C   UNL     1      35.521 -23.253 -15.646  0.00  0.00    +0.193 C 
ATOM      8  C   UNL     1      35.432 -22.225 -17.860  0.00  0.00    +0.128 C 
ATOM      9  C   UNL     1      36.487 -23.460 -14.688  0.00  0.00    +0.137 C 
ATOM     10  C   UNL     1      37.653 -22.905 -15.228  0.00  0.00    +0.105 C 
ENDROOT
BRANCH   5  12
ATOM     11  N   UNL     1      30.353 -24.849 -15.495  0.00  0.00    +0.384 N 
ATOM     12  C   UNL     1      32.084 -23.602 -16.761  0.00  0.00    +0.032 C 
ATOM     13  C   UNL     1      31.230 -22.335 -16.714  0.00  0.00    +0.003 C 
ATOM     14  C   UNL     1      31.778 -24.517 -15.571  0.00  0.00    -0.075 C 
ATOM     15  C   UNL     1      29.753 -22.690 -16.552  0.00  0.00    -0.023 C 
ATOM     16  C   UNL     1      29.539 -23.638 -15.374  0.00  0.00    -0.082 C 
ATOM     17  H   UNL     1      30.193 -25.443 -14.680  0.00  0.00    -0.085 HD
ATOM     18  H   UNL     1      30.086 -25.338 -16.349  0.00  0.00    -0.085 HD
ENDBRANCH   5  12
BRANCH   9  21
ATOM     19  N   UNL     1      35.940 -24.624 -11.323  0.00  0.00    -0.209 N 
ATOM     20  N   UNL     1      36.607 -25.697 -11.783  0.00  0.00    -0.177 NA
ATOM     21  C   UNL     1      36.372 -24.100 -13.401  0.00  0.00    +0.028 C 
ATOM     22  C   UNL     1      35.773 -23.639 -12.253  0.00  0.00    +0.082 C 
ATOM     23  C   UNL     1      36.868 -25.371 -13.052  0.00  0.00    +0.116 C 
ATOM     24  C   UNL     1      35.479 -24.598  -9.956  0.00  0.00    +0.140 C 
ENDBRANCH   9  21
BRANCH   8  25
ATOM     25  N   UNL     1      36.149 -21.580 -18.833  0.00  0.00    -0.344 N 
ATOM     26  H   UNL     1      36.169 -20.597 -18.860  0.00  0.00    +0.144 HD
ATOM     27  H   UNL     1      36.645 -22.103 -19.505  0.00  0.00    +0.144 HD
ENDBRANCH   8  25
TORSDOF 3
ENDMDL
