MODEL 1
REMARK VINA RESULT:     -12.9      0.000      0.000
REMARK  Name = 46911863
REMARK  3 active torsions:
REMARK  status: ('A' for Active; 'I' for Inactive)
REMARK    1  A    between atoms: C_5  and  C_18
REMARK    2  A    between atoms: C_7  and  C_12
REMARK    3  A    between atoms: C_18  and  C_20
REMARK                            x       y       z     vdW  Elec       q    Type
REMARK                         _______ _______ _______ _____ _____    ______ ____
ROOT
ATOM      1  N   UNL     1      34.326 -16.537 -24.051  0.00  0.00    -0.190 N 
ATOM      2  N   UNL     1      34.043 -15.383 -23.397  0.00  0.00    -0.162 NA
ATOM      3  N   UNL     1      35.061 -18.557 -24.475  0.00  0.00    -0.126 NA
ATOM      4  N   UNL     1      34.480 -18.061 -25.624  0.00  0.00    -0.127 NA
ATOM      5  C   UNL     1      34.959 -17.634 -23.546  0.00  0.00    +0.228 A 
ATOM      6  C   UNL     1      34.041 -16.848 -25.361  0.00  0.00    +0.187 A 
ATOM      7  C   UNL     1      33.435 -14.496 -24.132  0.00  0.00    +0.104 C 
ATOM      8  C   UNL     1      33.369 -15.876 -26.127  0.00  0.00    +0.042 C 
ATOM      9  C   UNL     1      33.047 -14.704 -25.565  0.00  0.00    +0.024 C 
ENDROOT
BRANCH   7  12
ATOM     10  N   UNL     1      32.905 -11.043 -23.142  0.00  0.00    -0.208 N 
ATOM     11  N   UNL     1      32.183 -11.597 -22.152  0.00  0.00    -0.176 NA
ATOM     12  C   UNL     1      33.075 -13.185 -23.530  0.00  0.00    +0.056 C 
ATOM     13  C   UNL     1      33.460 -11.951 -23.994  0.00  0.00    +0.087 C 
ATOM     14  C   UNL     1      32.292 -12.906 -22.394  0.00  0.00    +0.121 C 
ATOM     15  C   UNL     1      33.027  -9.607 -23.222  0.00  0.00    +0.140 C 
ENDBRANCH   7  12
BRANCH   5  18
ATOM     16  F   UNL     1      35.327 -16.487 -21.495  0.00  0.00    -0.191 F 
ATOM     17  F   UNL     1      36.828 -17.902 -22.099  0.00  0.00    -0.191 F 
ATOM     18  C   UNL     1      35.457 -17.721 -22.103  0.00  0.00    +0.335 C 
BRANCH  18  20
ATOM     19  N   UNL     1      32.768 -21.768 -19.202  0.00  0.00    -0.244 NA
ATOM     20  C   UNL     1      34.758 -18.791 -21.336  0.00  0.00    +0.045 C 
ATOM     21  C   UNL     1      35.492 -19.728 -20.614  0.00  0.00    +0.003 C 
ATOM     22  C   UNL     1      34.836 -20.738 -19.888  0.00  0.00    +0.018 C 
ATOM     23  C   UNL     1      33.371 -18.859 -21.338  0.00  0.00    +0.003 C 
ATOM     24  C   UNL     1      33.428 -20.813 -19.886  0.00  0.00    +0.081 C 
ATOM     25  C   UNL     1      32.720 -19.864 -20.617  0.00  0.00    +0.019 C 
ATOM     26  C   UNL     1      35.550 -21.693 -19.152  0.00  0.00    +0.003 C 
ATOM     27  C   UNL     1      34.873 -22.677 -18.446  0.00  0.00    +0.021 C 
ATOM     28  C   UNL     1      33.494 -22.671 -18.503  0.00  0.00    +0.099 C 
ENDBRANCH  18  20
ENDBRANCH   5  18
TORSDOF 3
ENDMDL
MODEL 2
REMARK VINA RESULT:     -12.5      1.389      2.084
REMARK  Name = 46911863
REMARK  3 active torsions:
REMARK  status: ('A' for Active; 'I' for Inactive)
REMARK    1  A    between atoms: C_5  and  C_18
REMARK    2  A    between atoms: C_7  and  C_12
REMARK    3  A    between atoms: C_18  and  C_20
REMARK                            x       y       z     vdW  Elec       q    Type
REMARK                         _______ _______ _______ _____ _____    ______ ____
ROOT
ATOM      1  N   UNL     1      33.903 -15.275 -24.070  0.00  0.00    -0.190 N 
ATOM      2  N   UNL     1      33.817 -14.016 -23.573  0.00  0.00    -0.162 NA
ATOM      3  N   UNL     1      34.161 -17.448 -24.188  0.00  0.00    -0.126 NA
ATOM      4  N   UNL     1      33.925 -16.973 -25.462  0.00  0.00    -0.127 NA
ATOM      5  C   UNL     1      34.143 -16.420 -23.370  0.00  0.00    +0.228 A 
ATOM      6  C   UNL     1      33.771 -15.668 -25.382  0.00  0.00    +0.187 A 
ATOM      7  C   UNL     1      33.586 -13.107 -24.478  0.00  0.00    +0.104 C 
ATOM      8  C   UNL     1      33.506 -14.666 -26.336  0.00  0.00    +0.042 C 
ATOM      9  C   UNL     1      33.402 -13.392 -25.938  0.00  0.00    +0.024 C 
ENDROOT
BRANCH   7  12
ATOM     10  N   UNL     1      32.847  -9.845 -23.064  0.00  0.00    -0.208 N 
ATOM     11  N   UNL     1      33.830  -9.436 -23.886  0.00  0.00    -0.176 NA
ATOM     12  C   UNL     1      33.476 -11.685 -24.059  0.00  0.00    +0.056 C 
ATOM     13  C   UNL     1      32.596 -11.183 -23.130  0.00  0.00    +0.087 C 
ATOM     14  C   UNL     1      34.209 -10.564 -24.491  0.00  0.00    +0.121 C 
ATOM     15  C   UNL     1      32.173  -8.887 -22.222  0.00  0.00    +0.140 C 
ENDBRANCH   7  12
BRANCH   5  18
ATOM     16  F   UNL     1      33.219 -15.977 -21.223  0.00  0.00    -0.191 F 
ATOM     17  F   UNL     1      35.294 -15.491 -21.507  0.00  0.00    -0.191 F 
ATOM     18  C   UNL     1      34.355 -16.445 -21.856  0.00  0.00    +0.335 C 
BRANCH  18  20
ATOM     19  N   UNL     1      35.851 -21.584 -20.019  0.00  0.00    -0.244 NA
ATOM     20  C   UNL     1      34.739 -17.801 -21.370  0.00  0.00    +0.045 C 
ATOM     21  C   UNL     1      33.768 -18.671 -20.883  0.00  0.00    +0.003 C 
ATOM     22  C   UNL     1      34.126 -19.951 -20.425  0.00  0.00    +0.018 C 
ATOM     23  C   UNL     1      36.069 -18.203 -21.399  0.00  0.00    +0.003 C 
ATOM     24  C   UNL     1      35.474 -20.365 -20.452  0.00  0.00    +0.081 C 
ATOM     25  C   UNL     1      36.424 -19.474 -20.942  0.00  0.00    +0.019 C 
ATOM     26  C   UNL     1      33.169 -20.847 -19.931  0.00  0.00    +0.003 C 
ATOM     27  C   UNL     1      33.555 -22.103 -19.485  0.00  0.00    +0.021 C 
ATOM     28  C   UNL     1      34.897 -22.420 -19.550  0.00  0.00    +0.099 C 
ENDBRANCH  18  20
ENDBRANCH   5  18
TORSDOF 3
ENDMDL
MODEL 3
REMARK VINA RESULT:     -12.3      3.111      9.742
REMARK  Name = 46911863
REMARK  3 active torsions:
REMARK  status: ('A' for Active; 'I' for Inactive)
REMARK    1  A    between atoms: C_5  and  C_18
REMARK    2  A    between atoms: C_7  and  C_12
REMARK    3  A    between atoms: C_18  and  C_20
REMARK                            x       y       z     vdW  Elec       q    Type
REMARK                         _______ _______ _______ _____ _____    ______ ____
ROOT
ATOM      1  N   UNL     1      34.477 -22.048 -18.458  0.00  0.00    -0.190 N 
ATOM      2  N   UNL     1      35.555 -22.406 -17.717  0.00  0.00    -0.162 NA
ATOM      3  N   UNL     1      33.245 -21.152 -20.034  0.00  0.00    -0.126 NA
ATOM      4  N   UNL     1      32.410 -21.820 -19.162  0.00  0.00    -0.127 NA
ATOM      5  C   UNL     1      34.476 -21.300 -19.599  0.00  0.00    +0.228 A 
ATOM      6  C   UNL     1      33.157 -22.354 -18.219  0.00  0.00    +0.187 A 
ATOM      7  C   UNL     1      35.259 -23.119 -16.667  0.00  0.00    +0.104 C 
ATOM      8  C   UNL     1      32.869 -23.140 -17.086  0.00  0.00    +0.042 C 
ATOM      9  C   UNL     1      33.870 -23.543 -16.294  0.00  0.00    +0.024 C 
ENDROOT
BRANCH   7  12
ATOM     10  N   UNL     1      37.522 -24.681 -14.296  0.00  0.00    -0.208 N 
ATOM     11  N   UNL     1      38.364 -23.712 -14.694  0.00  0.00    -0.176 NA
ATOM     12  C   UNL     1      36.355 -23.570 -15.770  0.00  0.00    +0.056 C 
ATOM     13  C   UNL     1      36.305 -24.640 -14.910  0.00  0.00    +0.087 C 
ATOM     14  C   UNL     1      37.646 -23.036 -15.594  0.00  0.00    +0.121 C 
ATOM     15  C   UNL     1      37.948 -25.639 -13.304  0.00  0.00    +0.140 C 
ENDBRANCH   7  12
BRANCH   5  18
ATOM     16  F   UNL     1      36.410 -21.748 -20.910  0.00  0.00    -0.191 F 
ATOM     17  F   UNL     1      36.656 -20.418 -19.238  0.00  0.00    -0.191 F 
ATOM     18  C   UNL     1      35.750 -20.740 -20.232  0.00  0.00    +0.335 C 
BRANCH  18  20
ATOM     19  N   UNL     1      34.677 -16.291 -23.560  0.00  0.00    -0.244 NA
ATOM     20  C   UNL     1      35.466 -19.574 -21.117  0.00  0.00    +0.045 C 
ATOM     21  C   UNL     1      35.117 -19.775 -22.449  0.00  0.00    +0.003 C 
ATOM     22  C   UNL     1      34.848 -18.679 -23.286  0.00  0.00    +0.018 C 
ATOM     23  C   UNL     1      35.547 -18.281 -20.617  0.00  0.00    +0.003 C 
ATOM     24  C   UNL     1      34.928 -17.363 -22.785  0.00  0.00    +0.081 C 
ATOM     25  C   UNL     1      35.280 -17.192 -21.449  0.00  0.00    +0.019 C 
ATOM     26  C   UNL     1      34.494 -18.852 -24.631  0.00  0.00    +0.003 C 
ATOM     27  C   UNL     1      34.234 -17.749 -25.432  0.00  0.00    +0.021 C 
ATOM     28  C   UNL     1      34.338 -16.501 -24.853  0.00  0.00    +0.099 C 
ENDBRANCH  18  20
ENDBRANCH   5  18
TORSDOF 3
ENDMDL
MODEL 4
REMARK VINA RESULT:     -11.8      1.989      8.604
REMARK  Name = 46911863
REMARK  3 active torsions:
REMARK  status: ('A' for Active; 'I' for Inactive)
REMARK    1  A    between atoms: C_5  and  C_18
REMARK    2  A    between atoms: C_7  and  C_12
REMARK    3  A    between atoms: C_18  and  C_20
REMARK                            x       y       z     vdW  Elec       q    Type
REMARK                         _______ _______ _______ _____ _____    ______ ____
ROOT
ATOM      1  N   UNL     1      33.805 -15.710 -23.792  0.00  0.00    -0.190 N 
ATOM      2  N   UNL     1      34.162 -16.477 -22.732  0.00  0.00    -0.162 NA
ATOM      3  N   UNL     1      33.038 -14.035 -24.979  0.00  0.00    -0.126 NA
ATOM      4  N   UNL     1      33.452 -15.025 -25.848  0.00  0.00    -0.127 NA
ATOM      5  C   UNL     1      33.257 -14.462 -23.756  0.00  0.00    +0.228 A 
ATOM      6  C   UNL     1      33.911 -16.027 -25.127  0.00  0.00    +0.187 A 
ATOM      7  C   UNL     1      34.655 -17.637 -23.062  0.00  0.00    +0.104 C 
ATOM      8  C   UNL     1      34.462 -17.280 -25.455  0.00  0.00    +0.042 C 
ATOM      9  C   UNL     1      34.846 -18.106 -24.473  0.00  0.00    +0.024 C 
ENDROOT
BRANCH   7  12
ATOM     10  N   UNL     1      35.105 -20.175 -20.504  0.00  0.00    -0.208 N 
ATOM     11  N   UNL     1      36.326 -19.625 -20.390  0.00  0.00    -0.176 NA
ATOM     12  C   UNL     1      35.081 -18.572 -21.987  0.00  0.00    +0.056 C 
ATOM     13  C   UNL     1      34.320 -19.580 -21.448  0.00  0.00    +0.087 C 
ATOM     14  C   UNL     1      36.305 -18.646 -21.298  0.00  0.00    +0.121 C 
ATOM     15  C   UNL     1      34.740 -21.292 -19.667  0.00  0.00    +0.140 C 
ENDBRANCH   7  12
BRANCH   5  18
ATOM     16  F   UNL     1      33.967 -13.968 -21.540  0.00  0.00    -0.191 F 
ATOM     17  F   UNL     1      31.861 -14.284 -21.838  0.00  0.00    -0.191 F 
ATOM     18  C   UNL     1      32.961 -13.716 -22.454  0.00  0.00    +0.335 C 
BRANCH  18  20
ATOM     19  N   UNL     1      32.214  -8.171 -23.295  0.00  0.00    -0.244 NA
ATOM     20  C   UNL     1      32.774 -12.255 -22.680  0.00  0.00    +0.045 C 
ATOM     21  C   UNL     1      33.774 -11.508 -23.295  0.00  0.00    +0.003 C 
ATOM     22  C   UNL     1      33.601 -10.129 -23.510  0.00  0.00    +0.018 C 
ATOM     23  C   UNL     1      31.600 -11.630 -22.278  0.00  0.00    +0.003 C 
ATOM     24  C   UNL     1      32.412  -9.489 -23.105  0.00  0.00    +0.081 C 
ATOM     25  C   UNL     1      31.429 -10.261 -22.492  0.00  0.00    +0.019 C 
ATOM     26  C   UNL     1      34.592  -9.353 -24.127  0.00  0.00    +0.003 C 
ATOM     27  C   UNL     1      34.391  -7.995 -24.325  0.00  0.00    +0.021 C 
ATOM     28  C   UNL     1      33.195  -7.457 -23.895  0.00  0.00    +0.099 C 
ENDBRANCH  18  20
ENDBRANCH   5  18
TORSDOF 3
ENDMDL
MODEL 5
REMARK VINA RESULT:     -11.8      4.068     10.686
REMARK  Name = 46911863
REMARK  3 active torsions:
REMARK  status: ('A' for Active; 'I' for Inactive)
REMARK    1  A    between atoms: C_5  and  C_18
REMARK    2  A    between atoms: C_7  and  C_12
REMARK    3  A    between atoms: C_18  and  C_20
REMARK                            x       y       z     vdW  Elec       q    Type
REMARK                         _______ _______ _______ _____ _____    ______ ____
ROOT
ATOM      1  N   UNL     1      33.660 -23.279 -16.694  0.00  0.00    -0.190 N 
ATOM      2  N   UNL     1      34.853 -23.698 -16.207  0.00  0.00    -0.162 NA
ATOM      3  N   UNL     1      32.142 -22.442 -18.036  0.00  0.00    -0.126 NA
ATOM      4  N   UNL     1      31.521 -22.808 -16.859  0.00  0.00    -0.127 NA
ATOM      5  C   UNL     1      33.419 -22.731 -17.920  0.00  0.00    +0.228 A 
ATOM      6  C   UNL     1      32.439 -23.310 -16.060  0.00  0.00    +0.187 A 
ATOM      7  C   UNL     1      34.791 -24.175 -14.996  0.00  0.00    +0.104 C 
ATOM      8  C   UNL     1      32.398 -23.845 -14.758  0.00  0.00    +0.042 C 
ATOM      9  C   UNL     1      33.529 -24.287 -14.194  0.00  0.00    +0.024 C 
ENDROOT
BRANCH   7  12
ATOM     10  N   UNL     1      38.101 -25.280 -13.994  0.00  0.00    -0.208 N 
ATOM     11  N   UNL     1      37.515 -25.450 -12.796  0.00  0.00    -0.176 NA
ATOM     12  C   UNL     1      36.036 -24.663 -14.348  0.00  0.00    +0.056 C 
ATOM     13  C   UNL     1      37.259 -24.810 -14.958  0.00  0.00    +0.087 C 
ATOM     14  C   UNL     1      36.253 -25.072 -13.019  0.00  0.00    +0.121 C 
ATOM     15  C   UNL     1      39.501 -25.589 -14.157  0.00  0.00    +0.140 C 
ENDBRANCH   7  12
BRANCH   5  18
ATOM     16  F   UNL     1      34.584 -23.606 -19.799  0.00  0.00    -0.191 F 
ATOM     17  F   UNL     1      35.750 -22.530 -18.348  0.00  0.00    -0.191 F 
ATOM     18  C   UNL     1      34.512 -22.507 -18.964  0.00  0.00    +0.335 C 
BRANCH  18  20
ATOM     19  N   UNL     1      33.670 -17.722 -21.866  0.00  0.00    -0.244 NA
ATOM     20  C   UNL     1      34.301 -21.245 -19.730  0.00  0.00    +0.045 C 
ATOM     21  C   UNL     1      35.386 -20.573 -20.285  0.00  0.00    +0.003 C 
ATOM     22  C   UNL     1      35.190 -19.384 -21.008  0.00  0.00    +0.018 C 
ATOM     23  C   UNL     1      33.019 -20.734 -19.894  0.00  0.00    +0.003 C 
ATOM     24  C   UNL     1      33.893 -18.859 -21.179  0.00  0.00    +0.081 C 
ATOM     25  C   UNL     1      32.826 -19.552 -20.613  0.00  0.00    +0.019 C 
ATOM     26  C   UNL     1      36.265 -18.687 -21.578  0.00  0.00    +0.003 C 
ATOM     27  C   UNL     1      36.039 -17.516 -22.286  0.00  0.00    +0.021 C 
ATOM     28  C   UNL     1      34.734 -17.080 -22.400  0.00  0.00    +0.099 C 
ENDBRANCH  18  20
ENDBRANCH   5  18
TORSDOF 3
ENDMDL
MODEL 6
REMARK VINA RESULT:     -11.1      2.091      8.397
REMARK  Name = 46911863
REMARK  3 active torsions:
REMARK  status: ('A' for Active; 'I' for Inactive)
REMARK    1  A    between atoms: C_5  and  C_18
REMARK    2  A    between atoms: C_7  and  C_12
REMARK    3  A    between atoms: C_18  and  C_20
REMARK                            x       y       z     vdW  Elec       q    Type
REMARK                         _______ _______ _______ _____ _____    ______ ____
ROOT
ATOM      1  N   UNL     1      34.214 -16.871 -21.990  0.00  0.00    -0.190 N 
ATOM      2  N   UNL     1      33.806 -17.845 -21.139  0.00  0.00    -0.162 NA
ATOM      3  N   UNL     1      34.403 -14.928 -22.985  0.00  0.00    -0.126 NA
ATOM      4  N   UNL     1      35.254 -15.816 -23.610  0.00  0.00    -0.127 NA
ATOM      5  C   UNL     1      33.791 -15.575 -22.019  0.00  0.00    +0.228 A 
ATOM      6  C   UNL     1      35.134 -16.980 -23.007  0.00  0.00    +0.187 A 
ATOM      7  C   UNL     1      34.374 -18.999 -21.346  0.00  0.00    +0.104 C 
ATOM      8  C   UNL     1      35.744 -18.235 -23.198  0.00  0.00    +0.042 C 
ATOM      9  C   UNL     1      35.405 -19.258 -22.404  0.00  0.00    +0.024 C 
ENDROOT
BRANCH   7  12
ATOM     10  N   UNL     1      34.111 -21.861 -19.127  0.00  0.00    -0.208 N 
ATOM     11  N   UNL     1      32.794 -21.729 -19.363  0.00  0.00    -0.176 NA
ATOM     12  C   UNL     1      34.006 -20.150 -20.481  0.00  0.00    +0.056 C 
ATOM     13  C   UNL     1      34.881 -20.939 -19.773  0.00  0.00    +0.087 C 
ATOM     14  C   UNL     1      32.737 -20.683 -20.191  0.00  0.00    +0.121 C 
ATOM     15  C   UNL     1      34.582 -22.909 -18.254  0.00  0.00    +0.140 C 
ENDBRANCH   7  12
BRANCH   5  18
ATOM     16  F   UNL     1      33.165 -15.244 -19.748  0.00  0.00    -0.191 F 
ATOM     17  F   UNL     1      31.596 -15.766 -21.122  0.00  0.00    -0.191 F 
ATOM     18  C   UNL     1      32.753 -15.013 -21.047  0.00  0.00    +0.335 C 
BRANCH  18  20
ATOM     19  N   UNL     1      31.745  -9.530 -22.017  0.00  0.00    -0.244 NA
ATOM     20  C   UNL     1      32.487 -13.567 -21.292  0.00  0.00    +0.045 C 
ATOM     21  C   UNL     1      32.342 -12.690 -20.221  0.00  0.00    +0.003 C 
ATOM     22  C   UNL     1      32.091 -11.326 -20.448  0.00  0.00    +0.018 C 
ATOM     23  C   UNL     1      32.383 -13.086 -22.591  0.00  0.00    +0.003 C 
ATOM     24  C   UNL     1      31.985 -10.831 -21.764  0.00  0.00    +0.081 C 
ATOM     25  C   UNL     1      32.133 -11.730 -22.816  0.00  0.00    +0.019 C 
ATOM     26  C   UNL     1      31.941 -10.421 -19.388  0.00  0.00    +0.003 C 
ATOM     27  C   UNL     1      31.695  -9.080 -19.645  0.00  0.00    +0.021 C 
ATOM     28  C   UNL     1      31.607  -8.689 -20.966  0.00  0.00    +0.099 C 
ENDBRANCH  18  20
ENDBRANCH   5  18
TORSDOF 3
ENDMDL
MODEL 7
REMARK VINA RESULT:     -11.0      4.260      8.035
REMARK  Name = 46911863
REMARK  3 active torsions:
REMARK  status: ('A' for Active; 'I' for Inactive)
REMARK    1  A    between atoms: C_5  and  C_18
REMARK    2  A    between atoms: C_7  and  C_12
REMARK    3  A    between atoms: C_18  and  C_20
REMARK                            x       y       z     vdW  Elec       q    Type
REMARK                         _______ _______ _______ _____ _____    ______ ____
ROOT
ATOM      1  N   UNL     1      31.875  -8.920 -21.054  0.00  0.00    -0.190 N 
ATOM      2  N   UNL     1      31.771  -8.305 -22.258  0.00  0.00    -0.162 NA
ATOM      3  N   UNL     1      31.787 -10.453 -19.490  0.00  0.00    -0.126 NA
ATOM      4  N   UNL     1      32.262  -9.288 -18.924  0.00  0.00    -0.127 NA
ATOM      5  C   UNL     1      31.562 -10.215 -20.763  0.00  0.00    +0.228 A 
ATOM      6  C   UNL     1      32.313  -8.373 -19.869  0.00  0.00    +0.187 A 
ATOM      7  C   UNL     1      32.135  -7.053 -22.244  0.00  0.00    +0.104 C 
ATOM      8  C   UNL     1      32.715  -7.024 -19.887  0.00  0.00    +0.042 C 
ATOM      9  C   UNL     1      32.648  -6.334 -21.033  0.00  0.00    +0.024 C 
ENDROOT
BRANCH   7  12
ATOM     10  N   UNL     1      32.540  -5.379 -25.440  0.00  0.00    -0.208 N 
ATOM     11  N   UNL     1      31.321  -4.885 -25.163  0.00  0.00    -0.176 NA
ATOM     12  C   UNL     1      32.061  -6.267 -23.503  0.00  0.00    +0.056 C 
ATOM     13  C   UNL     1      33.029  -6.212 -24.477  0.00  0.00    +0.087 C 
ATOM     14  C   UNL     1      31.034  -5.431 -23.978  0.00  0.00    +0.121 C 
ATOM     15  C   UNL     1      33.201  -5.009 -26.669  0.00  0.00    +0.140 C 
ENDBRANCH   7  12
BRANCH   5  18
ATOM     16  F   UNL     1      30.601 -10.505 -22.920  0.00  0.00    -0.191 F 
ATOM     17  F   UNL     1      29.852 -11.762 -21.345  0.00  0.00    -0.191 F 
ATOM     18  C   UNL     1      31.028 -11.200 -21.804  0.00  0.00    +0.335 C 
BRANCH  18  20
ATOM     19  N   UNL     1      34.867 -15.128 -23.165  0.00  0.00    -0.244 NA
ATOM     20  C   UNL     1      32.037 -12.240 -22.154  0.00  0.00    +0.045 C 
ATOM     21  C   UNL     1      32.161 -13.386 -21.374  0.00  0.00    +0.003 C 
ATOM     22  C   UNL     1      33.110 -14.369 -21.701  0.00  0.00    +0.018 C 
ATOM     23  C   UNL     1      32.859 -12.072 -23.261  0.00  0.00    +0.003 C 
ATOM     24  C   UNL     1      33.947 -14.205 -22.824  0.00  0.00    +0.081 C 
ATOM     25  C   UNL     1      33.802 -13.049 -23.586  0.00  0.00    +0.019 C 
ATOM     26  C   UNL     1      33.256 -15.532 -20.933  0.00  0.00    +0.003 C 
ATOM     27  C   UNL     1      34.202 -16.485 -21.283  0.00  0.00    +0.021 C 
ATOM     28  C   UNL     1      34.976 -16.237 -22.399  0.00  0.00    +0.099 C 
ENDBRANCH  18  20
ENDBRANCH   5  18
TORSDOF 3
ENDMDL
MODEL 8
REMARK VINA RESULT:     -10.9      3.827     10.142
REMARK  Name = 46911863
REMARK  3 active torsions:
REMARK  status: ('A' for Active; 'I' for Inactive)
REMARK    1  A    between atoms: C_5  and  C_18
REMARK    2  A    between atoms: C_7  and  C_12
REMARK    3  A    between atoms: C_18  and  C_20
REMARK                            x       y       z     vdW  Elec       q    Type
REMARK                         _______ _______ _______ _____ _____    ______ ____
ROOT
ATOM      1  N   UNL     1      34.975 -22.765 -16.878  0.00  0.00    -0.190 N 
ATOM      2  N   UNL     1      33.777 -23.253 -16.471  0.00  0.00    -0.162 NA
ATOM      3  N   UNL     1      36.565 -21.960 -18.154  0.00  0.00    -0.126 NA
ATOM      4  N   UNL     1      37.062 -22.083 -16.872  0.00  0.00    -0.127 NA
ATOM      5  C   UNL     1      35.317 -22.371 -18.138  0.00  0.00    +0.228 A 
ATOM      6  C   UNL     1      36.102 -22.567 -16.113  0.00  0.00    +0.187 A 
ATOM      7  C   UNL     1      33.735 -23.559 -15.205  0.00  0.00    +0.104 C 
ATOM      8  C   UNL     1      36.022 -22.891 -14.745  0.00  0.00    +0.042 C 
ATOM      9  C   UNL     1      34.877 -23.379 -14.251  0.00  0.00    +0.024 C 
ENDROOT
BRANCH   7  12
ATOM     10  N   UNL     1      30.403 -24.752 -14.394  0.00  0.00    -0.208 N 
ATOM     11  N   UNL     1      30.966 -25.059 -13.212  0.00  0.00    -0.176 NA
ATOM     12  C   UNL     1      32.476 -24.109 -14.638  0.00  0.00    +0.056 C 
ATOM     13  C   UNL     1      31.264 -24.180 -15.283  0.00  0.00    +0.087 C 
ATOM     14  C   UNL     1      32.232 -24.663 -13.368  0.00  0.00    +0.121 C 
ATOM     15  C   UNL     1      29.005 -25.036 -14.617  0.00  0.00    +0.140 C 
ENDBRANCH   7  12
BRANCH   5  18
ATOM     16  F   UNL     1      33.135 -22.931 -18.901  0.00  0.00    -0.191 F 
ATOM     17  F   UNL     1      34.772 -23.387 -20.218  0.00  0.00    -0.191 F 
ATOM     18  C   UNL     1      34.350 -22.423 -19.321  0.00  0.00    +0.335 C 
BRANCH  18  20
ATOM     19  N   UNL     1      33.728 -17.370 -21.790  0.00  0.00    -0.244 NA
ATOM     20  C   UNL     1      34.196 -21.092 -19.974  0.00  0.00    +0.045 C 
ATOM     21  C   UNL     1      35.289 -20.480 -20.582  0.00  0.00    +0.003 C 
ATOM     22  C   UNL     1      35.148 -19.225 -21.199  0.00  0.00    +0.018 C 
ATOM     23  C   UNL     1      32.962 -20.454 -19.979  0.00  0.00    +0.003 C 
ATOM     24  C   UNL     1      33.898 -18.573 -21.208  0.00  0.00    +0.081 C 
ATOM     25  C   UNL     1      32.823 -19.207 -20.592  0.00  0.00    +0.019 C 
ATOM     26  C   UNL     1      36.230 -18.587 -21.819  0.00  0.00    +0.003 C 
ATOM     27  C   UNL     1      36.058 -17.348 -22.420  0.00  0.00    +0.021 C 
ATOM     28  C   UNL     1      34.798 -16.787 -22.378  0.00  0.00    +0.099 C 
ENDBRANCH  18  20
ENDBRANCH   5  18
TORSDOF 3
ENDMDL
MODEL 9
REMARK VINA RESULT:     -10.9      2.644      9.132
REMARK  Name = 46911863
REMARK  3 active torsions:
REMARK  status: ('A' for Active; 'I' for Inactive)
REMARK    1  A    between atoms: C_5  and  C_18
REMARK    2  A    between atoms: C_7  and  C_12
REMARK    3  A    between atoms: C_18  and  C_20
REMARK                            x       y       z     vdW  Elec       q    Type
REMARK                         _______ _______ _______ _____ _____    ______ ____
ROOT
ATOM      1  N   UNL     1      34.414 -21.174 -19.416  0.00  0.00    -0.190 N 
ATOM      2  N   UNL     1      35.510 -21.438 -18.663  0.00  0.00    -0.162 NA
ATOM      3  N   UNL     1      33.111 -20.336 -20.966  0.00  0.00    -0.126 NA
ATOM      4  N   UNL     1      32.355 -21.180 -20.179  0.00  0.00    -0.127 NA
ATOM      5  C   UNL     1      34.339 -20.346 -20.496  0.00  0.00    +0.228 A 
ATOM      6  C   UNL     1      33.144 -21.679 -19.251  0.00  0.00    +0.187 A 
ATOM      7  C   UNL     1      35.289 -22.266 -17.681  0.00  0.00    +0.104 C 
ATOM      8  C   UNL     1      32.938 -22.584 -18.192  0.00  0.00    +0.042 C 
ATOM      9  C   UNL     1      33.964 -22.906 -17.394  0.00  0.00    +0.024 C 
ENDROOT
BRANCH   7  12
ATOM     10  N   UNL     1      37.607 -23.552 -15.199  0.00  0.00    -0.208 N 
ATOM     11  N   UNL     1      38.475 -22.721 -15.802  0.00  0.00    -0.176 NA
ATOM     12  C   UNL     1      36.413 -22.631 -16.779  0.00  0.00    +0.056 C 
ATOM     13  C   UNL     1      36.358 -23.536 -15.746  0.00  0.00    +0.087 C 
ATOM     14  C   UNL     1      37.739 -22.160 -16.765  0.00  0.00    +0.121 C 
ATOM     15  C   UNL     1      38.041 -24.355 -14.081  0.00  0.00    +0.140 C 
ENDBRANCH   7  12
BRANCH   5  18
ATOM     16  F   UNL     1      36.588 -20.435 -21.264  0.00  0.00    -0.191 F 
ATOM     17  F   UNL     1      36.045 -18.753 -20.040  0.00  0.00    -0.191 F 
ATOM     18  C   UNL     1      35.538 -19.566 -21.037  0.00  0.00    +0.335 C 
BRANCH  18  20
ATOM     19  N   UNL     1      34.227 -16.646 -25.703  0.00  0.00    -0.244 NA
ATOM     20  C   UNL     1      35.191 -18.788 -22.260  0.00  0.00    +0.045 C 
ATOM     21  C   UNL     1      34.867 -17.438 -22.163  0.00  0.00    +0.003 C 
ATOM     22  C   UNL     1      34.540 -16.701 -23.314  0.00  0.00    +0.018 C 
ATOM     23  C   UNL     1      35.188 -19.407 -23.504  0.00  0.00    +0.003 C 
ATOM     24  C   UNL     1      34.536 -17.323 -24.580  0.00  0.00    +0.081 C 
ATOM     25  C   UNL     1      34.862 -18.674 -24.647  0.00  0.00    +0.019 C 
ATOM     26  C   UNL     1      34.211 -15.341 -23.245  0.00  0.00    +0.003 C 
ATOM     27  C   UNL     1      33.892 -14.641 -24.400  0.00  0.00    +0.021 C 
ATOM     28  C   UNL     1      33.915 -15.334 -25.593  0.00  0.00    +0.099 C 
ENDBRANCH  18  20
ENDBRANCH   5  18
TORSDOF 3
ENDMDL
