MODEL 1
REMARK VINA RESULT:      -8.6      0.000      0.000
REMARK  Name = 736259
REMARK  3 active torsions:
REMARK  status: ('A' for Active; 'I' for Inactive)
REMARK    1  A    between atoms: C_2  and  C_8
REMARK    2  A    between atoms: C_4  and  C_15
REMARK    3  A    between atoms: C_15  and  O_16
REMARK                            x       y       z     vdW  Elec       q    Type
REMARK                         _______ _______ _______ _____ _____    ______ ____
ROOT
ATOM      1  O   UNL     1      34.199 -20.164 -20.555  0.00  0.00    -0.447 OA
ATOM      2  C   UNL     1      35.304 -19.471 -20.920  0.00  0.00    +0.146 C 
ATOM      3  C   UNL     1      36.443 -20.085 -20.479  0.00  0.00    +0.041 C 
ATOM      4  C   UNL     1      34.642 -21.246 -19.863  0.00  0.00    +0.220 C 
ATOM      5  C   UNL     1      36.014 -21.243 -19.788  0.00  0.00    +0.047 C 
ENDROOT
BRANCH   2   8
ATOM      6 CL   UNL     1      35.092 -19.741 -23.984  0.00  0.00    -0.082 Cl
ATOM      7 CL   UNL     1      34.494 -14.398 -20.816  0.00  0.00    -0.082 Cl
ATOM      8  C   UNL     1      35.046 -18.266 -21.677  0.00  0.00    +0.046 C 
ATOM      9  C   UNL     1      34.932 -18.282 -23.068  0.00  0.00    +0.061 C 
ATOM     10  C   UNL     1      34.909 -17.065 -20.980  0.00  0.00    +0.015 C 
ATOM     11  C   UNL     1      34.662 -15.880 -21.674  0.00  0.00    +0.058 C 
ATOM     12  C   UNL     1      34.684 -17.097 -23.761  0.00  0.00    +0.012 C 
ATOM     13  C   UNL     1      34.549 -15.897 -23.064  0.00  0.00    +0.012 C 
ENDBRANCH   2   8
BRANCH   4  15
ATOM     14  O   UNL     1      32.568 -21.858 -18.837  0.00  0.00    -0.242 OA
ATOM     15  C   UNL     1      33.670 -22.154 -19.356  0.00  0.00    +0.373 C 
BRANCH  15  16
ATOM     16  O   UNL     1      34.033 -23.474 -19.477  0.00  0.00    -0.475 OA
ATOM     17  H   UNL     1      34.515 -23.893 -18.791  0.00  0.00    +0.296 HD
ENDBRANCH  15  16
ENDBRANCH   4  15
TORSDOF 3
ENDMDL
MODEL 2
REMARK VINA RESULT:      -8.0      6.998      8.508
REMARK  Name = 736259
REMARK  3 active torsions:
REMARK  status: ('A' for Active; 'I' for Inactive)
REMARK    1  A    between atoms: C_2  and  C_8
REMARK    2  A    between atoms: C_4  and  C_15
REMARK    3  A    between atoms: C_15  and  O_16
REMARK                            x       y       z     vdW  Elec       q    Type
REMARK                         _______ _______ _______ _____ _____    ______ ____
ROOT
ATOM      1  O   UNL     1      35.474 -25.236 -15.426  0.00  0.00    -0.447 OA
ATOM      2  C   UNL     1      35.098 -23.948 -15.242  0.00  0.00    +0.146 C 
ATOM      3  C   UNL     1      36.157 -23.172 -14.860  0.00  0.00    +0.041 C 
ATOM      4  C   UNL     1      36.804 -25.286 -15.154  0.00  0.00    +0.220 C 
ATOM      5  C   UNL     1      37.272 -24.042 -14.800  0.00  0.00    +0.047 C 
ENDROOT
BRANCH   2   8
ATOM      6 CL   UNL     1      34.337 -22.748 -17.978  0.00  0.00    -0.082 Cl
ATOM      7 CL   UNL     1      30.297 -24.101 -13.420  0.00  0.00    -0.082 Cl
ATOM      8  C   UNL     1      33.698 -23.680 -15.484  0.00  0.00    +0.046 C 
ATOM      9  C   UNL     1      33.250 -23.138 -16.690  0.00  0.00    +0.061 C 
ATOM     10  C   UNL     1      32.784 -23.979 -14.473  0.00  0.00    +0.015 C 
ATOM     11  C   UNL     1      31.424 -23.734 -14.666  0.00  0.00    +0.058 C 
ATOM     12  C   UNL     1      31.891 -22.894 -16.883  0.00  0.00    +0.012 C 
ATOM     13  C   UNL     1      30.978 -23.191 -15.871  0.00  0.00    +0.012 C 
ENDBRANCH   2   8
BRANCH   4  15
ATOM     14  O   UNL     1      38.410 -26.959 -14.568  0.00  0.00    -0.242 OA
ATOM     15  C   UNL     1      37.460 -26.543 -15.272  0.00  0.00    +0.373 C 
BRANCH  15  16
ATOM     16  O   UNL     1      36.956 -27.337 -16.273  0.00  0.00    -0.475 OA
ATOM     17  H   UNL     1      36.028 -27.414 -16.388  0.00  0.00    +0.296 HD
ENDBRANCH  15  16
ENDBRANCH   4  15
TORSDOF 3
ENDMDL
MODEL 3
REMARK VINA RESULT:      -8.0      5.182      7.710
REMARK  Name = 736259
REMARK  3 active torsions:
REMARK  status: ('A' for Active; 'I' for Inactive)
REMARK    1  A    between atoms: C_2  and  C_8
REMARK    2  A    between atoms: C_4  and  C_15
REMARK    3  A    between atoms: C_15  and  O_16
REMARK                            x       y       z     vdW  Elec       q    Type
REMARK                         _______ _______ _______ _____ _____    ______ ____
ROOT
ATOM      1  O   UNL     1      34.071 -13.177 -23.926  0.00  0.00    -0.447 OA
ATOM      2  C   UNL     1      33.465 -14.215 -23.302  0.00  0.00    +0.146 C 
ATOM      3  C   UNL     1      32.417 -13.789 -22.533  0.00  0.00    +0.041 C 
ATOM      4  C   UNL     1      33.397 -12.060 -23.546  0.00  0.00    +0.220 C 
ATOM      5  C   UNL     1      32.371 -12.383 -22.689  0.00  0.00    +0.047 C 
ENDROOT
BRANCH   2   8
ATOM      6 CL   UNL     1      33.196 -15.301 -26.175  0.00  0.00    -0.082 Cl
ATOM      7 CL   UNL     1      36.024 -18.279 -21.478  0.00  0.00    -0.082 Cl
ATOM      8  C   UNL     1      34.039 -15.513 -23.579  0.00  0.00    +0.046 C 
ATOM      9  C   UNL     1      33.972 -16.092 -24.847  0.00  0.00    +0.061 C 
ATOM     10  C   UNL     1      34.675 -16.189 -22.537  0.00  0.00    +0.015 C 
ATOM     11  C   UNL     1      35.241 -17.444 -22.762  0.00  0.00    +0.058 C 
ATOM     12  C   UNL     1      34.538 -17.347 -25.072  0.00  0.00    +0.012 C 
ATOM     13  C   UNL     1      35.172 -18.022 -24.030  0.00  0.00    +0.012 C 
ENDBRANCH   2   8
BRANCH   4  15
ATOM     14  O   UNL     1      33.283  -9.697 -23.901  0.00  0.00    -0.242 OA
ATOM     15  C   UNL     1      33.835 -10.810 -24.065  0.00  0.00    +0.373 C 
BRANCH  15  16
ATOM     16  O   UNL     1      34.986 -10.895 -24.810  0.00  0.00    -0.475 OA
ATOM     17  H   UNL     1      34.936 -10.982 -25.742  0.00  0.00    +0.296 HD
ENDBRANCH  15  16
ENDBRANCH   4  15
TORSDOF 3
ENDMDL
MODEL 4
REMARK VINA RESULT:      -7.9      3.027      5.706
REMARK  Name = 736259
REMARK  3 active torsions:
REMARK  status: ('A' for Active; 'I' for Inactive)
REMARK    1  A    between atoms: C_2  and  C_8
REMARK    2  A    between atoms: C_4  and  C_15
REMARK    3  A    between atoms: C_15  and  O_16
REMARK                            x       y       z     vdW  Elec       q    Type
REMARK                         _______ _______ _______ _____ _____    ______ ____
ROOT
ATOM      1  O   UNL     1      34.733 -18.097 -23.281  0.00  0.00    -0.447 OA
ATOM      2  C   UNL     1      34.884 -17.877 -21.953  0.00  0.00    +0.146 C 
ATOM      3  C   UNL     1      34.811 -16.543 -21.659  0.00  0.00    +0.041 C 
ATOM      4  C   UNL     1      34.560 -16.876 -23.850  0.00  0.00    +0.220 C 
ATOM      5  C   UNL     1      34.601 -15.887 -22.896  0.00  0.00    +0.047 C 
ENDROOT
BRANCH   2   8
ATOM      6 CL   UNL     1      37.778 -18.876 -21.597  0.00  0.00    -0.082 Cl
ATOM      7 CL   UNL     1      32.729 -21.599 -19.143  0.00  0.00    -0.082 Cl
ATOM      8  C   UNL     1      35.083 -19.067 -21.155  0.00  0.00    +0.046 C 
ATOM      9  C   UNL     1      36.354 -19.600 -20.934  0.00  0.00    +0.061 C 
ATOM     10  C   UNL     1      33.962 -19.685 -20.601  0.00  0.00    +0.015 C 
ATOM     11  C   UNL     1      34.110 -20.836 -19.827  0.00  0.00    +0.058 C 
ATOM     12  C   UNL     1      36.502 -20.750 -20.160  0.00  0.00    +0.012 C 
ATOM     13  C   UNL     1      35.381 -21.368 -19.606  0.00  0.00    +0.012 C 
ENDBRANCH   2   8
BRANCH   4  15
ATOM     14  O   UNL     1      34.044 -15.815 -25.932  0.00  0.00    -0.242 OA
ATOM     15  C   UNL     1      34.377 -16.820 -25.260  0.00  0.00    +0.373 C 
BRANCH  15  16
ATOM     16  O   UNL     1      34.604 -18.017 -25.894  0.00  0.00    -0.475 OA
ATOM     17  H   UNL     1      35.304 -18.095 -26.512  0.00  0.00    +0.296 HD
ENDBRANCH  15  16
ENDBRANCH   4  15
TORSDOF 3
ENDMDL
MODEL 5
REMARK VINA RESULT:      -7.9      1.475      1.903
REMARK  Name = 736259
REMARK  3 active torsions:
REMARK  status: ('A' for Active; 'I' for Inactive)
REMARK    1  A    between atoms: C_2  and  C_8
REMARK    2  A    between atoms: C_4  and  C_15
REMARK    3  A    between atoms: C_15  and  O_16
REMARK                            x       y       z     vdW  Elec       q    Type
REMARK                         _______ _______ _______ _____ _____    ______ ____
ROOT
ATOM      1  O   UNL     1      33.848 -18.733 -21.072  0.00  0.00    -0.447 OA
ATOM      2  C   UNL     1      34.777 -17.892 -21.585  0.00  0.00    +0.146 C 
ATOM      3  C   UNL     1      36.036 -18.414 -21.473  0.00  0.00    +0.041 C 
ATOM      4  C   UNL     1      34.529 -19.819 -20.620  0.00  0.00    +0.220 C 
ATOM      5  C   UNL     1      35.877 -19.671 -20.843  0.00  0.00    +0.047 C 
ENDROOT
BRANCH   2   8
ATOM      6 CL   UNL     1      35.003 -17.470 -24.631  0.00  0.00    -0.082 Cl
ATOM      7 CL   UNL     1      32.452 -13.409 -20.640  0.00  0.00    -0.082 Cl
ATOM      8  C   UNL     1      34.250 -16.658 -22.127  0.00  0.00    +0.046 C 
ATOM      9  C   UNL     1      34.304 -16.372 -23.492  0.00  0.00    +0.061 C 
ATOM     10  C   UNL     1      33.677 -15.742 -21.245  0.00  0.00    +0.015 C 
ATOM     11  C   UNL     1      33.159 -14.540 -21.726  0.00  0.00    +0.058 C 
ATOM     12  C   UNL     1      33.785 -15.170 -23.973  0.00  0.00    +0.012 C 
ATOM     13  C   UNL     1      33.213 -14.254 -23.091  0.00  0.00    +0.012 C 
ENDBRANCH   2   8
BRANCH   4  15
ATOM     14  O   UNL     1      32.532 -20.991 -20.015  0.00  0.00    -0.242 OA
ATOM     15  C   UNL     1      33.780 -20.872 -20.023  0.00  0.00    +0.373 C 
BRANCH  15  16
ATOM     16  O   UNL     1      34.559 -21.824 -19.412  0.00  0.00    -0.475 OA
ATOM     17  H   UNL     1      34.490 -22.723 -19.670  0.00  0.00    +0.296 HD
ENDBRANCH  15  16
ENDBRANCH   4  15
TORSDOF 3
ENDMDL
MODEL 6
REMARK VINA RESULT:      -7.8      1.879      3.172
REMARK  Name = 736259
REMARK  3 active torsions:
REMARK  status: ('A' for Active; 'I' for Inactive)
REMARK    1  A    between atoms: C_2  and  C_8
REMARK    2  A    between atoms: C_4  and  C_15
REMARK    3  A    between atoms: C_15  and  O_16
REMARK                            x       y       z     vdW  Elec       q    Type
REMARK                         _______ _______ _______ _____ _____    ______ ____
ROOT
ATOM      1  O   UNL     1      33.972 -18.421 -21.418  0.00  0.00    -0.447 OA
ATOM      2  C   UNL     1      34.942 -17.684 -22.011  0.00  0.00    +0.146 C 
ATOM      3  C   UNL     1      36.164 -18.287 -21.894  0.00  0.00    +0.041 C 
ATOM      4  C   UNL     1      34.588 -19.519 -20.909  0.00  0.00    +0.220 C 
ATOM      5  C   UNL     1      35.936 -19.484 -21.175  0.00  0.00    +0.047 C 
ENDROOT
BRANCH   2   8
ATOM      6 CL   UNL     1      34.728 -15.196 -20.203  0.00  0.00    -0.082 Cl
ATOM      7 CL   UNL     1      33.345 -15.325 -26.287  0.00  0.00    -0.082 Cl
ATOM      8  C   UNL     1      34.487 -16.455 -22.623  0.00  0.00    +0.046 C 
ATOM      9  C   UNL     1      34.356 -15.274 -21.891  0.00  0.00    +0.061 C 
ATOM     10  C   UNL     1      34.175 -16.471 -23.983  0.00  0.00    +0.015 C 
ATOM     11  C   UNL     1      33.731 -15.307 -24.610  0.00  0.00    +0.058 C 
ATOM     12  C   UNL     1      33.913 -14.110 -22.519  0.00  0.00    +0.012 C 
ATOM     13  C   UNL     1      33.600 -14.126 -23.878  0.00  0.00    +0.012 C 
ENDBRANCH   2   8
BRANCH   4  15
ATOM     14  O   UNL     1      34.193 -21.407 -19.493  0.00  0.00    -0.242 OA
ATOM     15  C   UNL     1      33.785 -20.474 -20.223  0.00  0.00    +0.373 C 
BRANCH  15  16
ATOM     16  O   UNL     1      32.436 -20.301 -20.417  0.00  0.00    -0.475 OA
ATOM     17  H   UNL     1      31.881 -20.088 -19.692  0.00  0.00    +0.296 HD
ENDBRANCH  15  16
ENDBRANCH   4  15
TORSDOF 3
ENDMDL
MODEL 7
REMARK VINA RESULT:      -7.8      4.821      7.087
REMARK  Name = 736259
REMARK  3 active torsions:
REMARK  status: ('A' for Active; 'I' for Inactive)
REMARK    1  A    between atoms: C_2  and  C_8
REMARK    2  A    between atoms: C_4  and  C_15
REMARK    3  A    between atoms: C_15  and  O_16
REMARK                            x       y       z     vdW  Elec       q    Type
REMARK                         _______ _______ _______ _____ _____    ______ ____
ROOT
ATOM      1  O   UNL     1      32.812 -13.872 -22.441  0.00  0.00    -0.447 OA
ATOM      2  C   UNL     1      33.616 -14.020 -23.521  0.00  0.00    +0.146 C 
ATOM      3  C   UNL     1      33.810 -12.828 -24.162  0.00  0.00    +0.041 C 
ATOM      4  C   UNL     1      32.482 -12.555 -22.391  0.00  0.00    +0.220 C 
ATOM      5  C   UNL     1      33.070 -11.870 -23.428  0.00  0.00    +0.047 C 
ENDROOT
BRANCH   2   8
ATOM      6 CL   UNL     1      33.094 -15.240 -26.303  0.00  0.00    -0.082 Cl
ATOM      7 CL   UNL     1      36.009 -18.148 -21.614  0.00  0.00    -0.082 Cl
ATOM      8  C   UNL     1      34.084 -15.368 -23.753  0.00  0.00    +0.046 C 
ATOM      9  C   UNL     1      33.898 -16.011 -24.978  0.00  0.00    +0.061 C 
ATOM     10  C   UNL     1      34.738 -16.029 -22.713  0.00  0.00    +0.015 C 
ATOM     11  C   UNL     1      35.203 -17.331 -22.896  0.00  0.00    +0.058 C 
ATOM     12  C   UNL     1      34.363 -17.312 -25.162  0.00  0.00    +0.012 C 
ATOM     13  C   UNL     1      35.016 -17.973 -24.121  0.00  0.00    +0.012 C 
ENDBRANCH   2   8
BRANCH   4  15
ATOM     14  O   UNL     1      31.862 -12.204 -20.107  0.00  0.00    -0.242 OA
ATOM     15  C   UNL     1      31.630 -12.123 -21.336  0.00  0.00    +0.373 C 
BRANCH  15  16
ATOM     16  O   UNL     1      30.452 -11.568 -21.772  0.00  0.00    -0.475 OA
ATOM     17  H   UNL     1      29.633 -11.954 -21.527  0.00  0.00    +0.296 HD
ENDBRANCH  15  16
ENDBRANCH   4  15
TORSDOF 3
ENDMDL
MODEL 8
REMARK VINA RESULT:      -7.7      7.614      9.594
REMARK  Name = 736259
REMARK  3 active torsions:
REMARK  status: ('A' for Active; 'I' for Inactive)
REMARK    1  A    between atoms: C_2  and  C_8
REMARK    2  A    between atoms: C_4  and  C_15
REMARK    3  A    between atoms: C_15  and  O_16
REMARK                            x       y       z     vdW  Elec       q    Type
REMARK                         _______ _______ _______ _____ _____    ______ ____
ROOT
ATOM      1  O   UNL     1      34.578 -24.014 -12.631  0.00  0.00    -0.447 OA
ATOM      2  C   UNL     1      34.626 -24.417 -13.924  0.00  0.00    +0.146 C 
ATOM      3  C   UNL     1      35.810 -25.042 -14.205  0.00  0.00    +0.041 C 
ATOM      4  C   UNL     1      35.759 -24.388 -12.074  0.00  0.00    +0.220 C 
ATOM      5  C   UNL     1      36.552 -25.023 -13.000  0.00  0.00    +0.047 C 
ENDROOT
BRANCH   2   8
ATOM      6 CL   UNL     1      35.029 -22.831 -16.536  0.00  0.00    -0.082 Cl
ATOM      7 CL   UNL     1      29.522 -24.804 -14.365  0.00  0.00    -0.082 Cl
ATOM      8  C   UNL     1      33.447 -24.109 -14.703  0.00  0.00    +0.046 C 
ATOM      9  C   UNL     1      33.523 -23.396 -15.900  0.00  0.00    +0.061 C 
ATOM     10  C   UNL     1      32.210 -24.546 -14.229  0.00  0.00    +0.015 C 
ATOM     11  C   UNL     1      31.049 -24.268 -14.949  0.00  0.00    +0.058 C 
ATOM     12  C   UNL     1      32.362 -23.120 -16.621  0.00  0.00    +0.012 C 
ATOM     13  C   UNL     1      31.125 -23.555 -16.146  0.00  0.00    +0.012 C 
ENDBRANCH   2   8
BRANCH   4  15
ATOM     14  O   UNL     1      35.343 -24.545  -9.723  0.00  0.00    -0.242 OA
ATOM     15  C   UNL     1      35.974 -24.080 -10.701  0.00  0.00    +0.373 C 
BRANCH  15  16
ATOM     16  O   UNL     1      36.988 -23.178 -10.491  0.00  0.00    -0.475 OA
ATOM     17  H   UNL     1      37.009 -22.670  -9.702  0.00  0.00    +0.296 HD
ENDBRANCH  15  16
ENDBRANCH   4  15
TORSDOF 3
ENDMDL
MODEL 9
REMARK VINA RESULT:      -7.7      4.411      7.510
REMARK  Name = 736259
REMARK  3 active torsions:
REMARK  status: ('A' for Active; 'I' for Inactive)
REMARK    1  A    between atoms: C_2  and  C_8
REMARK    2  A    between atoms: C_4  and  C_15
REMARK    3  A    between atoms: C_15  and  O_16
REMARK                            x       y       z     vdW  Elec       q    Type
REMARK                         _______ _______ _______ _____ _____    ______ ____
ROOT
ATOM      1  O   UNL     1      34.237 -14.011 -23.783  0.00  0.00    -0.447 OA
ATOM      2  C   UNL     1      33.615 -14.787 -22.864  0.00  0.00    +0.146 C 
ATOM      3  C   UNL     1      32.528 -14.151 -22.331  0.00  0.00    +0.041 C 
ATOM      4  C   UNL     1      33.533 -12.851 -23.838  0.00  0.00    +0.220 C 
ATOM      5  C   UNL     1      32.473 -12.887 -22.963  0.00  0.00    +0.047 C 
ENDROOT
BRANCH   2   8
ATOM      6 CL   UNL     1      34.767 -15.377 -20.066  0.00  0.00    -0.082 Cl
ATOM      7 CL   UNL     1      34.843 -19.354 -24.874  0.00  0.00    -0.082 Cl
ATOM      8  C   UNL     1      34.217 -16.085 -22.653  0.00  0.00    +0.046 C 
ATOM      9  C   UNL     1      34.767 -16.450 -21.423  0.00  0.00    +0.061 C 
ATOM     10  C   UNL     1      34.240 -16.984 -23.720  0.00  0.00    +0.015 C 
ATOM     11  C   UNL     1      34.814 -18.245 -23.559  0.00  0.00    +0.058 C 
ATOM     12  C   UNL     1      35.339 -17.711 -21.262  0.00  0.00    +0.012 C 
ATOM     13  C   UNL     1      35.363 -18.609 -22.329  0.00  0.00    +0.012 C 
ENDBRANCH   2   8
BRANCH   4  15
ATOM     14  O   UNL     1      33.789 -11.808 -25.976  0.00  0.00    -0.242 OA
ATOM     15  C   UNL     1      33.981 -11.843 -24.738  0.00  0.00    +0.373 C 
BRANCH  15  16
ATOM     16  O   UNL     1      34.686 -10.834 -24.130  0.00  0.00    -0.475 OA
ATOM     17  H   UNL     1      35.237 -10.273 -24.641  0.00  0.00    +0.296 HD
ENDBRANCH  15  16
ENDBRANCH   4  15
TORSDOF 3
ENDMDL
