MODEL 1
REMARK VINA RESULT:      -9.7      0.000      0.000
REMARK  Name = 102697
REMARK  3 active torsions:
REMARK  status: ('A' for Active; 'I' for Inactive)
REMARK    1  A    between atoms: C_6  and  C_15
REMARK    2  A    between atoms: C_8  and  O_21
REMARK    3  A    between atoms: O_21  and  C_23
REMARK                            x       y       z     vdW  Elec       q    Type
REMARK                         _______ _______ _______ _____ _____    ______ ____
ROOT
ATOM      1 CL   UNL     1      34.110 -21.814 -20.408  0.00  0.00    -0.082 Cl
ATOM      2  O   UNL     1      37.823 -23.397 -13.411  0.00  0.00    -0.269 OA
ATOM      3  N   UNL     1      37.160 -22.396 -15.353  0.00  0.00    -0.279 N 
ATOM      4  N   UNL     1      35.000 -24.401 -14.724  0.00  0.00    -0.224 NA
ATOM      5  C   UNL     1      35.114 -22.898 -16.678  0.00  0.00    +0.032 C 
ATOM      6  C   UNL     1      34.423 -23.605 -15.557  0.00  0.00    +0.081 C 
ATOM      7  C   UNL     1      36.358 -22.271 -16.505  0.00  0.00    +0.052 C 
ATOM      8  C   UNL     1      36.415 -24.692 -14.875  0.00  0.00    +0.352 C 
ATOM      9  C   UNL     1      37.170 -23.443 -14.454  0.00  0.00    +0.292 C 
ATOM     10  C   UNL     1      34.433 -22.766 -17.899  0.00  0.00    +0.014 C 
ATOM     11  C   UNL     1      36.849 -21.438 -17.522  0.00  0.00    +0.016 C 
ATOM     12  C   UNL     1      34.958 -21.975 -18.919  0.00  0.00    +0.058 C 
ATOM     13  C   UNL     1      36.157 -21.296 -18.725  0.00  0.00    +0.013 C 
ATOM     14  H   UNL     1      37.781 -21.655 -15.168  0.00  0.00    +0.155 HD
ENDROOT
BRANCH   6  15
ATOM     15  C   UNL     1      32.968 -23.359 -15.346  0.00  0.00    +0.017 C 
ATOM     16  C   UNL     1      32.128 -23.222 -16.444  0.00  0.00    +0.001 C 
ATOM     17  C   UNL     1      32.468 -23.272 -14.053  0.00  0.00    +0.001 C 
ATOM     18  C   UNL     1      30.766 -22.992 -16.245  0.00  0.00    +0.000 C 
ATOM     19  C   UNL     1      31.107 -23.043 -13.854  0.00  0.00    +0.000 C 
ATOM     20  C   UNL     1      30.256 -22.904 -14.950  0.00  0.00    +0.000 C 
ENDBRANCH   6  15
BRANCH   8  21
ATOM     21  O   UNL     1      36.893 -25.764 -14.064  0.00  0.00    -0.421 OA
BRANCH  21  23
ATOM     22  O   UNL     1      38.815 -26.977 -14.476  0.00  0.00    -0.250 OA
ATOM     23  C   UNL     1      37.645 -26.704 -14.709  0.00  0.00    +0.319 C 
ATOM     24  C   UNL     1      36.823 -27.372 -15.769  0.00  0.00    +0.121 C 
ENDBRANCH  21  23
ENDBRANCH   8  21
TORSDOF 3
ENDMDL
MODEL 2
REMARK VINA RESULT:      -9.6      3.571      5.903
REMARK  Name = 102697
REMARK  3 active torsions:
REMARK  status: ('A' for Active; 'I' for Inactive)
REMARK    1  A    between atoms: C_6  and  C_15
REMARK    2  A    between atoms: C_8  and  O_21
REMARK    3  A    between atoms: O_21  and  C_23
REMARK                            x       y       z     vdW  Elec       q    Type
REMARK                         _______ _______ _______ _____ _____    ______ ____
ROOT
ATOM      1 CL   UNL     1      38.098 -26.074 -14.567  0.00  0.00    -0.082 Cl
ATOM      2  O   UNL     1      30.927 -22.403 -13.980  0.00  0.00    -0.269 OA
ATOM      3  N   UNL     1      33.011 -23.209 -13.513  0.00  0.00    -0.279 N 
ATOM      4  N   UNL     1      32.809 -23.246 -16.519  0.00  0.00    -0.224 NA
ATOM      5  C   UNL     1      34.719 -23.990 -15.146  0.00  0.00    +0.032 C 
ATOM      6  C   UNL     1      34.079 -23.312 -16.313  0.00  0.00    +0.081 C 
ATOM      7  C   UNL     1      34.230 -23.838 -13.839  0.00  0.00    +0.052 C 
ATOM      8  C   UNL     1      31.899 -23.901 -15.596  0.00  0.00    +0.352 C 
ATOM      9  C   UNL     1      31.899 -23.080 -14.319  0.00  0.00    +0.292 C 
ATOM     10  C   UNL     1      35.910 -24.703 -15.364  0.00  0.00    +0.014 C 
ATOM     11  C   UNL     1      34.997 -24.313 -12.764  0.00  0.00    +0.016 C 
ATOM     12  C   UNL     1      36.636 -25.211 -14.288  0.00  0.00    +0.058 C 
ATOM     13  C   UNL     1      36.189 -25.001 -12.988  0.00  0.00    +0.013 C 
ATOM     14  H   UNL     1      32.947 -22.819 -12.612  0.00  0.00    +0.155 HD
ENDROOT
BRANCH   6  15
ATOM     15  C   UNL     1      34.952 -22.623 -17.307  0.00  0.00    +0.017 C 
ATOM     16  C   UNL     1      34.509 -22.463 -18.614  0.00  0.00    +0.001 C 
ATOM     17  C   UNL     1      36.197 -22.149 -16.914  0.00  0.00    +0.001 C 
ATOM     18  C   UNL     1      35.327 -21.818 -19.543  0.00  0.00    +0.000 C 
ATOM     19  C   UNL     1      37.014 -21.504 -17.843  0.00  0.00    +0.000 C 
ATOM     20  C   UNL     1      36.579 -21.338 -19.157  0.00  0.00    +0.000 C 
ENDBRANCH   6  15
BRANCH   8  21
ATOM     21  O   UNL     1      30.547 -23.979 -16.045  0.00  0.00    -0.421 OA
BRANCH  21  23
ATOM     22  O   UNL     1      30.183 -26.007 -15.000  0.00  0.00    -0.250 OA
ATOM     23  C   UNL     1      29.782 -24.944 -15.454  0.00  0.00    +0.319 C 
ATOM     24  C   UNL     1      28.347 -24.511 -15.434  0.00  0.00    +0.121 C 
ENDBRANCH  21  23
ENDBRANCH   8  21
TORSDOF 3
ENDMDL
MODEL 3
REMARK VINA RESULT:      -9.6      1.915      4.598
REMARK  Name = 102697
REMARK  3 active torsions:
REMARK  status: ('A' for Active; 'I' for Inactive)
REMARK    1  A    between atoms: C_6  and  C_15
REMARK    2  A    between atoms: C_8  and  O_21
REMARK    3  A    between atoms: O_21  and  C_23
REMARK                            x       y       z     vdW  Elec       q    Type
REMARK                         _______ _______ _______ _____ _____    ______ ____
ROOT
ATOM      1 CL   UNL     1      30.166 -22.322 -15.007  0.00  0.00    -0.082 Cl
ATOM      2  O   UNL     1      37.351 -25.869 -13.980  0.00  0.00    -0.269 OA
ATOM      3  N   UNL     1      35.107 -25.502 -14.185  0.00  0.00    -0.279 N 
ATOM      4  N   UNL     1      36.414 -23.084 -15.419  0.00  0.00    -0.224 NA
ATOM      5  C   UNL     1      33.996 -23.507 -15.175  0.00  0.00    +0.032 C 
ATOM      6  C   UNL     1      35.218 -23.042 -15.897  0.00  0.00    +0.081 C 
ATOM      7  C   UNL     1      33.970 -24.714 -14.458  0.00  0.00    +0.052 C 
ATOM      8  C   UNL     1      36.629 -23.572 -14.068  0.00  0.00    +0.352 C 
ATOM      9  C   UNL     1      36.416 -25.076 -14.103  0.00  0.00    +0.292 C 
ATOM     10  C   UNL     1      32.814 -22.762 -15.323  0.00  0.00    +0.014 C 
ATOM     11  C   UNL     1      32.741 -25.205 -13.992  0.00  0.00    +0.016 C 
ATOM     12  C   UNL     1      31.609 -23.239 -14.811  0.00  0.00    +0.058 C 
ATOM     13  C   UNL     1      31.568 -24.468 -14.162  0.00  0.00    +0.013 C 
ATOM     14  H   UNL     1      34.949 -26.462 -14.037  0.00  0.00    +0.155 HD
ENDROOT
BRANCH   6  15
ATOM     15  C   UNL     1      35.073 -22.521 -17.286  0.00  0.00    +0.017 C 
ATOM     16  C   UNL     1      36.132 -21.843 -17.878  0.00  0.00    +0.001 C 
ATOM     17  C   UNL     1      33.883 -22.722 -17.974  0.00  0.00    +0.001 C 
ATOM     18  C   UNL     1      35.995 -21.356 -19.179  0.00  0.00    +0.000 C 
ATOM     19  C   UNL     1      33.747 -22.235 -19.273  0.00  0.00    +0.000 C 
ATOM     20  C   UNL     1      34.803 -21.552 -19.876  0.00  0.00    +0.000 C 
ENDBRANCH   6  15
BRANCH   8  21
ATOM     21  O   UNL     1      37.940 -23.346 -13.553  0.00  0.00    -0.421 OA
BRANCH  21  23
ATOM     22  O   UNL     1      39.051 -23.093 -11.544  0.00  0.00    -0.250 OA
ATOM     23  C   UNL     1      38.022 -23.169 -12.201  0.00  0.00    +0.319 C 
ATOM     24  C   UNL     1      36.645 -23.077 -11.617  0.00  0.00    +0.121 C 
ENDBRANCH  21  23
ENDBRANCH   8  21
TORSDOF 3
ENDMDL
MODEL 4
REMARK VINA RESULT:      -8.8      3.218      5.485
REMARK  Name = 102697
REMARK  3 active torsions:
REMARK  status: ('A' for Active; 'I' for Inactive)
REMARK    1  A    between atoms: C_6  and  C_15
REMARK    2  A    between atoms: C_8  and  O_21
REMARK    3  A    between atoms: O_21  and  C_23
REMARK                            x       y       z     vdW  Elec       q    Type
REMARK                         _______ _______ _______ _____ _____    ______ ____
ROOT
ATOM      1 CL   UNL     1      39.509 -25.442 -15.045  0.00  0.00    -0.082 Cl
ATOM      2  O   UNL     1      32.212 -23.016 -12.571  0.00  0.00    -0.269 OA
ATOM      3  N   UNL     1      34.458 -23.410 -12.688  0.00  0.00    -0.279 N 
ATOM      4  N   UNL     1      33.453 -23.741 -15.510  0.00  0.00    -0.224 NA
ATOM      5  C   UNL     1      35.770 -24.025 -14.711  0.00  0.00    +0.032 C 
ATOM      6  C   UNL     1      34.720 -23.570 -15.671  0.00  0.00    +0.081 C 
ATOM      7  C   UNL     1      35.637 -23.847 -13.325  0.00  0.00    +0.052 C 
ATOM      8  C   UNL     1      32.970 -24.460 -14.344  0.00  0.00    +0.352 C 
ATOM      9  C   UNL     1      33.164 -23.543 -13.148  0.00  0.00    +0.292 C 
ATOM     10  C   UNL     1      36.969 -24.539 -15.234  0.00  0.00    +0.014 C 
ATOM     11  C   UNL     1      36.744 -24.088 -12.497  0.00  0.00    +0.016 C 
ATOM     12  C   UNL     1      38.043 -24.821 -14.392  0.00  0.00    +0.058 C 
ATOM     13  C   UNL     1      37.937 -24.579 -13.026  0.00  0.00    +0.013 C 
ATOM     14  H   UNL     1      34.569 -22.960 -11.820  0.00  0.00    +0.155 HD
ENDROOT
BRANCH   6  15
ATOM     15  C   UNL     1      35.142 -22.831 -16.895  0.00  0.00    +0.017 C 
ATOM     16  C   UNL     1      34.290 -22.776 -17.992  0.00  0.00    +0.001 C 
ATOM     17  C   UNL     1      36.381 -22.204 -16.925  0.00  0.00    +0.001 C 
ATOM     18  C   UNL     1      34.686 -22.083 -19.137  0.00  0.00    +0.000 C 
ATOM     19  C   UNL     1      36.776 -21.512 -18.070  0.00  0.00    +0.000 C 
ATOM     20  C   UNL     1      35.929 -21.451 -19.175  0.00  0.00    +0.000 C 
ENDBRANCH   6  15
BRANCH   8  21
ATOM     21  O   UNL     1      31.588 -24.807 -14.387  0.00  0.00    -0.421 OA
BRANCH  21  23
ATOM     22  O   UNL     1      30.814 -22.807 -15.247  0.00  0.00    -0.250 OA
ATOM     23  C   UNL     1      30.808 -24.029 -15.195  0.00  0.00    +0.319 C 
ATOM     24  C   UNL     1      29.920 -24.900 -16.033  0.00  0.00    +0.121 C 
ENDBRANCH  21  23
ENDBRANCH   8  21
TORSDOF 3
ENDMDL
MODEL 5
REMARK VINA RESULT:      -8.4     11.473     13.443
REMARK  Name = 102697
REMARK  3 active torsions:
REMARK  status: ('A' for Active; 'I' for Inactive)
REMARK    1  A    between atoms: C_6  and  C_15
REMARK    2  A    between atoms: C_8  and  O_21
REMARK    3  A    between atoms: O_21  and  C_23
REMARK                            x       y       z     vdW  Elec       q    Type
REMARK                         _______ _______ _______ _____ _____    ______ ____
ROOT
ATOM      1 CL   UNL     1      36.301 -18.321 -22.277  0.00  0.00    -0.082 Cl
ATOM      2  O   UNL     1      32.175 -13.576 -27.348  0.00  0.00    -0.269 OA
ATOM      3  N   UNL     1      33.043 -15.399 -26.283  0.00  0.00    -0.279 N 
ATOM      4  N   UNL     1      33.410 -13.114 -24.354  0.00  0.00    -0.224 NA
ATOM      5  C   UNL     1      34.103 -15.460 -24.032  0.00  0.00    +0.032 C 
ATOM      6  C   UNL     1      33.526 -14.152 -23.599  0.00  0.00    +0.081 C 
ATOM      7  C   UNL     1      33.774 -16.045 -25.265  0.00  0.00    +0.052 C 
ATOM      8  C   UNL     1      33.901 -13.163 -25.720  0.00  0.00    +0.352 C 
ATOM      9  C   UNL     1      32.941 -14.042 -26.503  0.00  0.00    +0.292 C 
ATOM     10  C   UNL     1      34.903 -16.166 -23.119  0.00  0.00    +0.014 C 
ATOM     11  C   UNL     1      34.167 -17.367 -25.519  0.00  0.00    +0.016 C 
ATOM     12  C   UNL     1      35.328 -17.462 -23.407  0.00  0.00    +0.058 C 
ATOM     13  C   UNL     1      34.945 -18.070 -24.598  0.00  0.00    +0.013 C 
ATOM     14  H   UNL     1      32.549 -15.982 -26.904  0.00  0.00    +0.155 HD
ENDROOT
BRANCH   6  15
ATOM     15  C   UNL     1      33.006 -14.024 -22.207  0.00  0.00    +0.017 C 
ATOM     16  C   UNL     1      32.511 -12.802 -21.769  0.00  0.00    +0.001 C 
ATOM     17  C   UNL     1      33.023 -15.129 -21.365  0.00  0.00    +0.001 C 
ATOM     18  C   UNL     1      32.025 -12.684 -20.466  0.00  0.00    +0.000 C 
ATOM     19  C   UNL     1      32.537 -15.011 -20.063  0.00  0.00    +0.000 C 
ATOM     20  C   UNL     1      32.038 -13.789 -19.614  0.00  0.00    +0.000 C 
ENDBRANCH   6  15
BRANCH   8  21
ATOM     21  O   UNL     1      33.951 -11.901 -26.382  0.00  0.00    -0.421 OA
BRANCH  21  23
ATOM     22  O   UNL     1      34.110 -10.412 -24.623  0.00  0.00    -0.250 OA
ATOM     23  C   UNL     1      34.524 -10.883 -25.674  0.00  0.00    +0.319 C 
ATOM     24  C   UNL     1      35.760 -10.409 -26.376  0.00  0.00    +0.121 C 
ENDBRANCH  21  23
ENDBRANCH   8  21
TORSDOF 3
ENDMDL
MODEL 6
REMARK VINA RESULT:      -8.2     11.986     13.971
REMARK  Name = 102697
REMARK  3 active torsions:
REMARK  status: ('A' for Active; 'I' for Inactive)
REMARK    1  A    between atoms: C_6  and  C_15
REMARK    2  A    between atoms: C_8  and  O_21
REMARK    3  A    between atoms: O_21  and  C_23
REMARK                            x       y       z     vdW  Elec       q    Type
REMARK                         _______ _______ _______ _____ _____    ______ ____
ROOT
ATOM      1 CL   UNL     1      35.770 -17.710 -21.965  0.00  0.00    -0.082 Cl
ATOM      2  O   UNL     1      32.502 -13.049 -27.696  0.00  0.00    -0.269 OA
ATOM      3  N   UNL     1      33.119 -14.850 -26.436  0.00  0.00    -0.279 N 
ATOM      4  N   UNL     1      33.519 -12.462 -24.643  0.00  0.00    -0.224 NA
ATOM      5  C   UNL     1      33.979 -14.824 -24.101  0.00  0.00    +0.032 C 
ATOM      6  C   UNL     1      33.482 -13.445 -23.812  0.00  0.00    +0.081 C 
ATOM      7  C   UNL     1      33.705 -15.473 -25.315  0.00  0.00    +0.052 C 
ATOM      8  C   UNL     1      34.116 -12.653 -25.953  0.00  0.00    +0.352 C 
ATOM      9  C   UNL     1      33.152 -13.509 -26.757  0.00  0.00    +0.292 C 
ATOM     10  C   UNL     1      34.638 -15.521 -23.074  0.00  0.00    +0.014 C 
ATOM     11  C   UNL     1      34.003 -16.838 -25.442  0.00  0.00    +0.016 C 
ATOM     12  C   UNL     1      34.972 -16.865 -23.233  0.00  0.00    +0.058 C 
ATOM     13  C   UNL     1      34.639 -17.528 -24.410  0.00  0.00    +0.013 C 
ATOM     14  H   UNL     1      32.630 -15.437 -27.057  0.00  0.00    +0.155 HD
ENDROOT
BRANCH   6  15
ATOM     15  C   UNL     1      32.862 -13.172 -22.483  0.00  0.00    +0.017 C 
ATOM     16  C   UNL     1      33.057 -14.067 -21.438  0.00  0.00    +0.001 C 
ATOM     17  C   UNL     1      32.098 -12.026 -22.306  0.00  0.00    +0.001 C 
ATOM     18  C   UNL     1      32.476 -13.810 -20.195  0.00  0.00    +0.000 C 
ATOM     19  C   UNL     1      31.517 -11.770 -21.064  0.00  0.00    +0.000 C 
ATOM     20  C   UNL     1      31.707 -12.661 -20.009  0.00  0.00    +0.000 C 
ENDBRANCH   6  15
BRANCH   8  21
ATOM     21  O   UNL     1      34.329 -11.452 -26.693  0.00  0.00    -0.421 OA
BRANCH  21  23
ATOM     22  O   UNL     1      36.397 -10.426 -26.781  0.00  0.00    -0.250 OA
ATOM     23  C   UNL     1      35.325 -10.641 -26.230  0.00  0.00    +0.319 C 
ATOM     24  C   UNL     1      34.918 -10.033 -24.922  0.00  0.00    +0.121 C 
ENDBRANCH  21  23
ENDBRANCH   8  21
TORSDOF 3
ENDMDL
MODEL 7
REMARK VINA RESULT:      -8.2     10.685     13.049
REMARK  Name = 102697
REMARK  3 active torsions:
REMARK  status: ('A' for Active; 'I' for Inactive)
REMARK    1  A    between atoms: C_6  and  C_15
REMARK    2  A    between atoms: C_8  and  O_21
REMARK    3  A    between atoms: O_21  and  C_23
REMARK                            x       y       z     vdW  Elec       q    Type
REMARK                         _______ _______ _______ _____ _____    ______ ____
ROOT
ATOM      1 CL   UNL     1      32.532  -8.405 -23.044  0.00  0.00    -0.082 Cl
ATOM      2  O   UNL     1      32.345 -16.006 -20.313  0.00  0.00    -0.269 OA
ATOM      3  N   UNL     1      31.793 -13.841 -20.785  0.00  0.00    -0.279 N 
ATOM      4  N   UNL     1      33.979 -14.537 -22.737  0.00  0.00    -0.224 NA
ATOM      5  C   UNL     1      32.818 -12.372 -22.512  0.00  0.00    +0.032 C 
ATOM      6  C   UNL     1      33.431 -13.502 -23.273  0.00  0.00    +0.081 C 
ATOM      7  C   UNL     1      31.985 -12.589 -21.403  0.00  0.00    +0.052 C 
ATOM      8  C   UNL     1      34.067 -14.633 -21.291  0.00  0.00    +0.352 C 
ATOM      9  C   UNL     1      32.663 -14.911 -20.781  0.00  0.00    +0.292 C 
ATOM     10  C   UNL     1      32.997 -11.068 -23.002  0.00  0.00    +0.014 C 
ATOM     11  C   UNL     1      31.264 -11.510 -20.869  0.00  0.00    +0.016 C 
ATOM     12  C   UNL     1      32.312  -9.997 -22.429  0.00  0.00    +0.058 C 
ATOM     13  C   UNL     1      31.432 -10.221 -21.375  0.00  0.00    +0.013 C 
ATOM     14  H   UNL     1      30.944 -13.966 -20.303  0.00  0.00    +0.155 HD
ENDROOT
BRANCH   6  15
ATOM     15  C   UNL     1      33.384 -13.468 -24.763  0.00  0.00    +0.017 C 
ATOM     16  C   UNL     1      33.751 -12.309 -25.436  0.00  0.00    +0.001 C 
ATOM     17  C   UNL     1      32.976 -14.597 -25.462  0.00  0.00    +0.001 C 
ATOM     18  C   UNL     1      33.708 -12.279 -26.830  0.00  0.00    +0.000 C 
ATOM     19  C   UNL     1      32.932 -14.567 -26.856  0.00  0.00    +0.000 C 
ATOM     20  C   UNL     1      33.299 -13.408 -27.540  0.00  0.00    +0.000 C 
ENDBRANCH   6  15
BRANCH   8  21
ATOM     21  O   UNL     1      34.903 -15.685 -20.812  0.00  0.00    -0.421 OA
BRANCH  21  23
ATOM     22  O   UNL     1      35.631 -16.493 -22.851  0.00  0.00    -0.250 OA
ATOM     23  C   UNL     1      35.201 -16.663 -21.718  0.00  0.00    +0.319 C 
ATOM     24  C   UNL     1      34.920 -18.009 -21.121  0.00  0.00    +0.121 C 
ENDBRANCH  21  23
ENDBRANCH   8  21
TORSDOF 3
ENDMDL
MODEL 8
REMARK VINA RESULT:      -8.2     12.174     14.505
REMARK  Name = 102697
REMARK  3 active torsions:
REMARK  status: ('A' for Active; 'I' for Inactive)
REMARK    1  A    between atoms: C_6  and  C_15
REMARK    2  A    between atoms: C_8  and  O_21
REMARK    3  A    between atoms: O_21  and  C_23
REMARK                            x       y       z     vdW  Elec       q    Type
REMARK                         _______ _______ _______ _____ _____    ______ ____
ROOT
ATOM      1 CL   UNL     1      30.101 -10.832 -20.035  0.00  0.00    -0.082 Cl
ATOM      2  O   UNL     1      35.551 -10.547 -25.990  0.00  0.00    -0.269 OA
ATOM      3  N   UNL     1      34.324 -10.055 -24.128  0.00  0.00    -0.279 N 
ATOM      4  N   UNL     1      33.828 -12.981 -24.648  0.00  0.00    -0.224 NA
ATOM      5  C   UNL     1      32.860 -11.604 -22.844  0.00  0.00    +0.032 C 
ATOM      6  C   UNL     1      33.471 -12.841 -23.417  0.00  0.00    +0.081 C 
ATOM      7  C   UNL     1      33.355 -10.325 -23.141  0.00  0.00    +0.052 C 
ATOM      8  C   UNL     1      33.599 -11.899 -25.588  0.00  0.00    +0.352 C 
ATOM      9  C   UNL     1      34.598 -10.805 -25.253  0.00  0.00    +0.292 C 
ATOM     10  C   UNL     1      31.837 -11.750 -21.893  0.00  0.00    +0.014 C 
ATOM     11  C   UNL     1      32.888  -9.224 -22.405  0.00  0.00    +0.016 C 
ATOM     12  C   UNL     1      31.349 -10.640 -21.204  0.00  0.00    +0.058 C 
ATOM     13  C   UNL     1      31.886  -9.380 -21.447  0.00  0.00    +0.013 C 
ATOM     14  H   UNL     1      34.866  -9.243 -24.001  0.00  0.00    +0.155 HD
ENDROOT
BRANCH   6  15
ATOM     15  C   UNL     1      33.729 -13.997 -22.512  0.00  0.00    +0.017 C 
ATOM     16  C   UNL     1      33.109 -14.048 -21.269  0.00  0.00    +0.001 C 
ATOM     17  C   UNL     1      34.586 -15.011 -22.922  0.00  0.00    +0.001 C 
ATOM     18  C   UNL     1      33.352 -15.130 -20.423  0.00  0.00    +0.000 C 
ATOM     19  C   UNL     1      34.828 -16.093 -22.076  0.00  0.00    +0.000 C 
ATOM     20  C   UNL     1      34.211 -16.153 -20.826  0.00  0.00    +0.000 C 
ENDBRANCH   6  15
BRANCH   8  21
ATOM     21  O   UNL     1      33.799 -12.246 -26.957  0.00  0.00    -0.421 OA
BRANCH  21  23
ATOM     22  O   UNL     1      33.770 -14.488 -27.512  0.00  0.00    -0.250 OA
ATOM     23  C   UNL     1      33.211 -13.410 -27.364  0.00  0.00    +0.319 C 
ATOM     24  C   UNL     1      31.751 -13.181 -27.611  0.00  0.00    +0.121 C 
ENDBRANCH  21  23
ENDBRANCH   8  21
TORSDOF 3
ENDMDL
MODEL 9
REMARK VINA RESULT:      -7.8     14.888     17.505
REMARK  Name = 102697
REMARK  3 active torsions:
REMARK  status: ('A' for Active; 'I' for Inactive)
REMARK    1  A    between atoms: C_6  and  C_15
REMARK    2  A    between atoms: C_8  and  O_21
REMARK    3  A    between atoms: O_21  and  C_23
REMARK                            x       y       z     vdW  Elec       q    Type
REMARK                         _______ _______ _______ _____ _____    ______ ____
ROOT
ATOM      1 CL   UNL     1      31.529 -13.612 -20.927  0.00  0.00    -0.082 Cl
ATOM      2  O   UNL     1      32.198  -5.570 -20.573  0.00  0.00    -0.269 OA
ATOM      3  N   UNL     1      32.247  -7.790 -20.042  0.00  0.00    -0.279 N 
ATOM      4  N   UNL     1      32.127  -7.703 -23.052  0.00  0.00    -0.224 NA
ATOM      5  C   UNL     1      32.169  -9.713 -21.621  0.00  0.00    +0.032 C 
ATOM      6  C   UNL     1      32.550  -8.897 -22.813  0.00  0.00    +0.081 C 
ATOM      7  C   UNL     1      32.128  -9.165 -20.329  0.00  0.00    +0.052 C 
ATOM      8  C   UNL     1      31.178  -7.085 -22.144  0.00  0.00    +0.352 C 
ATOM      9  C   UNL     1      31.941  -6.736 -20.878  0.00  0.00    +0.292 C 
ATOM     10  C   UNL     1      31.963 -11.091 -21.798  0.00  0.00    +0.014 C 
ATOM     11  C   UNL     1      31.984 -10.023 -19.228  0.00  0.00    +0.016 C 
ATOM     12  C   UNL     1      31.772 -11.924 -20.697  0.00  0.00    +0.058 C 
ATOM     13  C   UNL     1      31.800 -11.394 -19.412  0.00  0.00    +0.013 C 
ATOM     14  H   UNL     1      32.586  -7.556 -19.149  0.00  0.00    +0.155 HD
ENDROOT
BRANCH   6  15
ATOM     15  C   UNL     1      33.516  -9.470 -23.793  0.00  0.00    +0.017 C 
ATOM     16  C   UNL     1      34.615  -8.720 -24.193  0.00  0.00    +0.001 C 
ATOM     17  C   UNL     1      33.307 -10.749 -24.294  0.00  0.00    +0.001 C 
ATOM     18  C   UNL     1      35.518  -9.257 -25.111  0.00  0.00    +0.000 C 
ATOM     19  C   UNL     1      34.211 -11.286 -25.211  0.00  0.00    +0.000 C 
ATOM     20  C   UNL     1      35.316 -10.541 -25.619  0.00  0.00    +0.000 C 
ENDBRANCH   6  15
BRANCH   8  21
ATOM     21  O   UNL     1      30.590  -5.878 -22.626  0.00  0.00    -0.421 OA
BRANCH  21  23
ATOM     22  O   UNL     1      30.907  -6.087 -24.905  0.00  0.00    -0.250 OA
ATOM     23  C   UNL     1      31.014  -5.464 -23.857  0.00  0.00    +0.319 C 
ATOM     24  C   UNL     1      31.643  -4.109 -23.748  0.00  0.00    +0.121 C 
ENDBRANCH  21  23
ENDBRANCH   8  21
TORSDOF 3
ENDMDL
