MODEL 1
REMARK VINA RESULT:      -9.3      0.000      0.000
REMARK  Name = 446967
REMARK  4 active torsions:
REMARK  status: ('A' for Active; 'I' for Inactive)
REMARK    1  A    between atoms: C_1  and  C_16
REMARK    2  A    between atoms: C_16  and  C_17
REMARK    3  A    between atoms: C_17  and  C_19
REMARK    4  A    between atoms: C_19  and  O_20
REMARK                            x       y       z     vdW  Elec       q    Type
REMARK                         _______ _______ _______ _____ _____    ______ ____
ROOT
ATOM      1  C   UNL     1      34.621 -24.061 -14.435  0.00  0.00    -0.022 A 
ATOM      2  C   UNL     1      35.442 -23.406 -15.369  0.00  0.00    -0.004 A 
ATOM      3  C   UNL     1      33.239 -24.200 -14.645  0.00  0.00    -0.004 A 
ATOM      4  C   UNL     1      34.864 -22.877 -16.544  0.00  0.00    -0.004 A 
ATOM      5  C   UNL     1      32.662 -23.671 -15.820  0.00  0.00    -0.004 A 
ATOM      6  C   UNL     1      33.481 -23.015 -16.754  0.00  0.00    -0.022 A 
ATOM      7  C   UNL     1      36.823 -23.266 -15.160  0.00  0.00    -0.000 C 
ATOM      8  C   UNL     1      32.418 -24.856 -13.712  0.00  0.00    -0.000 C 
ATOM      9  C   UNL     1      35.684 -22.221 -17.476  0.00  0.00    -0.000 C 
ATOM     10  C   UNL     1      31.279 -23.810 -16.030  0.00  0.00    -0.000 C 
ATOM     11  C   UNL     1      32.866 -22.450 -18.006  0.00  0.00    +0.031 C 
ATOM     12  C   UNL     1      37.624 -22.613 -16.097  0.00  0.00    -0.000 C 
ATOM     13  C   UNL     1      31.047 -24.986 -13.935  0.00  0.00    -0.000 C 
ATOM     14  C   UNL     1      37.056 -22.091 -17.254  0.00  0.00    -0.000 C 
ATOM     15  C   UNL     1      30.479 -24.464 -15.092  0.00  0.00    -0.000 C 
ENDROOT
BRANCH   1  16
ATOM     16  C   UNL     1      35.237 -24.624 -13.182  0.00  0.00    +0.038 C 
BRANCH  16  17
ATOM     17  C   UNL     1      35.329 -23.607 -12.046  0.00  0.00    +0.114 C 
BRANCH  17  19
ATOM     18  O   UNL     1      35.371 -24.567  -9.829  0.00  0.00    -0.250 OA
ATOM     19  C   UNL     1      35.987 -24.194 -10.820  0.00  0.00    +0.314 C 
BRANCH  19  20
ATOM     20  O   UNL     1      37.338 -24.241 -10.918  0.00  0.00    -0.480 OA
ATOM     21  H   UNL     1      37.869 -24.032 -10.174  0.00  0.00    +0.295 HD
ENDBRANCH  19  20
ENDBRANCH  17  19
ENDBRANCH  16  17
ENDBRANCH   1  16
TORSDOF 4
ENDMDL
MODEL 2
REMARK VINA RESULT:      -9.3      3.066      5.019
REMARK  Name = 446967
REMARK  4 active torsions:
REMARK  status: ('A' for Active; 'I' for Inactive)
REMARK    1  A    between atoms: C_1  and  C_16
REMARK    2  A    between atoms: C_16  and  C_17
REMARK    3  A    between atoms: C_17  and  C_19
REMARK    4  A    between atoms: C_19  and  O_20
REMARK                            x       y       z     vdW  Elec       q    Type
REMARK                         _______ _______ _______ _____ _____    ______ ____
ROOT
ATOM      1  C   UNL     1      33.545 -23.409 -16.036  0.00  0.00    -0.022 A 
ATOM      2  C   UNL     1      34.040 -22.826 -17.214  0.00  0.00    -0.004 A 
ATOM      3  C   UNL     1      34.360 -23.580 -14.905  0.00  0.00    -0.004 A 
ATOM      4  C   UNL     1      35.387 -22.403 -17.262  0.00  0.00    -0.004 A 
ATOM      5  C   UNL     1      35.707 -23.157 -14.952  0.00  0.00    -0.004 A 
ATOM      6  C   UNL     1      36.203 -22.574 -16.131  0.00  0.00    -0.022 A 
ATOM      7  C   UNL     1      33.226 -22.655 -18.345  0.00  0.00    -0.000 C 
ATOM      8  C   UNL     1      33.865 -24.162 -13.725  0.00  0.00    -0.000 C 
ATOM      9  C   UNL     1      35.882 -21.821 -18.440  0.00  0.00    -0.000 C 
ATOM     10  C   UNL     1      36.522 -23.328 -13.821  0.00  0.00    -0.000 C 
ATOM     11  C   UNL     1      37.638 -22.125 -16.182  0.00  0.00    +0.031 C 
ATOM     12  C   UNL     1      33.733 -22.074 -19.508  0.00  0.00    -0.000 C 
ATOM     13  C   UNL     1      34.687 -24.325 -12.611  0.00  0.00    -0.000 C 
ATOM     14  C   UNL     1      35.059 -21.658 -19.556  0.00  0.00    -0.000 C 
ATOM     15  C   UNL     1      36.013 -23.909 -12.658  0.00  0.00    -0.000 C 
ENDROOT
BRANCH   1  16
ATOM     16  C   UNL     1      32.110 -23.861 -15.985  0.00  0.00    +0.038 C 
BRANCH  16  17
ATOM     17  C   UNL     1      31.156 -22.785 -15.468  0.00  0.00    +0.114 C 
BRANCH  17  19
ATOM     18  O   UNL     1      29.392 -22.343 -17.059  0.00  0.00    -0.250 OA
ATOM     19  C   UNL     1      29.773 -22.933 -16.055  0.00  0.00    +0.314 C 
BRANCH  19  20
ATOM     20  O   UNL     1      28.982 -23.767 -15.337  0.00  0.00    -0.480 OA
ATOM     21  H   UNL     1      28.058 -23.782 -15.489  0.00  0.00    +0.295 HD
ENDBRANCH  19  20
ENDBRANCH  17  19
ENDBRANCH  16  17
ENDBRANCH   1  16
TORSDOF 4
ENDMDL
MODEL 3
REMARK VINA RESULT:      -9.2      3.069      5.448
REMARK  Name = 446967
REMARK  4 active torsions:
REMARK  status: ('A' for Active; 'I' for Inactive)
REMARK    1  A    between atoms: C_1  and  C_16
REMARK    2  A    between atoms: C_16  and  C_17
REMARK    3  A    between atoms: C_17  and  C_19
REMARK    4  A    between atoms: C_19  and  O_20
REMARK                            x       y       z     vdW  Elec       q    Type
REMARK                         _______ _______ _______ _____ _____    ______ ____
ROOT
ATOM      1  C   UNL     1      33.536 -23.405 -16.064  0.00  0.00    -0.022 A 
ATOM      2  C   UNL     1      34.345 -23.584 -14.930  0.00  0.00    -0.004 A 
ATOM      3  C   UNL     1      34.039 -22.820 -17.238  0.00  0.00    -0.004 A 
ATOM      4  C   UNL     1      35.694 -23.168 -14.972  0.00  0.00    -0.004 A 
ATOM      5  C   UNL     1      35.388 -22.404 -17.280  0.00  0.00    -0.004 A 
ATOM      6  C   UNL     1      36.198 -22.583 -16.146  0.00  0.00    -0.022 A 
ATOM      7  C   UNL     1      33.842 -24.168 -13.756  0.00  0.00    -0.000 C 
ATOM      8  C   UNL     1      33.231 -22.641 -18.374  0.00  0.00    -0.000 C 
ATOM      9  C   UNL     1      36.502 -23.347 -13.838  0.00  0.00    -0.000 C 
ATOM     10  C   UNL     1      35.892 -21.820 -18.454  0.00  0.00    -0.000 C 
ATOM     11  C   UNL     1      37.635 -22.138 -16.189  0.00  0.00    +0.031 C 
ATOM     12  C   UNL     1      34.659 -24.339 -12.638  0.00  0.00    -0.000 C 
ATOM     13  C   UNL     1      33.746 -22.059 -19.532  0.00  0.00    -0.000 C 
ATOM     14  C   UNL     1      35.987 -23.929 -12.679  0.00  0.00    -0.000 C 
ATOM     15  C   UNL     1      35.074 -21.649 -19.572  0.00  0.00    -0.000 C 
ENDROOT
BRANCH   1  16
ATOM     16  C   UNL     1      32.098 -23.847 -16.020  0.00  0.00    +0.038 C 
BRANCH  16  17
ATOM     17  C   UNL     1      31.147 -22.760 -15.522  0.00  0.00    +0.114 C 
BRANCH  17  19
ATOM     18  O   UNL     1      29.319 -22.362 -17.051  0.00  0.00    -0.250 OA
ATOM     19  C   UNL     1      29.750 -22.945 -16.064  0.00  0.00    +0.314 C 
BRANCH  19  20
ATOM     20  O   UNL     1      29.008 -23.806 -15.325  0.00  0.00    -0.480 OA
ATOM     21  H   UNL     1      29.132 -23.855 -14.398  0.00  0.00    +0.295 HD
ENDBRANCH  19  20
ENDBRANCH  17  19
ENDBRANCH  16  17
ENDBRANCH   1  16
TORSDOF 4
ENDMDL
MODEL 4
REMARK VINA RESULT:      -9.2      0.207      4.150
REMARK  Name = 446967
REMARK  4 active torsions:
REMARK  status: ('A' for Active; 'I' for Inactive)
REMARK    1  A    between atoms: C_1  and  C_16
REMARK    2  A    between atoms: C_16  and  C_17
REMARK    3  A    between atoms: C_17  and  C_19
REMARK    4  A    between atoms: C_19  and  O_20
REMARK                            x       y       z     vdW  Elec       q    Type
REMARK                         _______ _______ _______ _____ _____    ______ ____
ROOT
ATOM      1  C   UNL     1      34.503 -24.079 -14.499  0.00  0.00    -0.022 A 
ATOM      2  C   UNL     1      33.126 -24.189 -14.751  0.00  0.00    -0.004 A 
ATOM      3  C   UNL     1      35.364 -23.431 -15.401  0.00  0.00    -0.004 A 
ATOM      4  C   UNL     1      32.595 -23.636 -15.937  0.00  0.00    -0.004 A 
ATOM      5  C   UNL     1      34.833 -22.878 -16.587  0.00  0.00    -0.004 A 
ATOM      6  C   UNL     1      33.455 -22.987 -16.840  0.00  0.00    -0.022 A 
ATOM      7  C   UNL     1      32.265 -24.837 -13.850  0.00  0.00    -0.000 C 
ATOM      8  C   UNL     1      36.742 -23.320 -15.149  0.00  0.00    -0.000 C 
ATOM      9  C   UNL     1      31.218 -23.746 -16.189  0.00  0.00    -0.000 C 
ATOM     10  C   UNL     1      35.693 -22.230 -17.489  0.00  0.00    -0.000 C 
ATOM     11  C   UNL     1      32.889 -22.399 -18.104  0.00  0.00    +0.031 C 
ATOM     12  C   UNL     1      30.899 -24.937 -14.115  0.00  0.00    -0.000 C 
ATOM     13  C   UNL     1      37.583 -22.674 -16.055  0.00  0.00    -0.000 C 
ATOM     14  C   UNL     1      30.376 -24.393 -15.283  0.00  0.00    -0.000 C 
ATOM     15  C   UNL     1      37.059 -22.130 -17.223  0.00  0.00    -0.000 C 
ENDROOT
BRANCH   1  16
ATOM     16  C   UNL     1      35.070 -24.670 -13.236  0.00  0.00    +0.038 C 
BRANCH  16  17
ATOM     17  C   UNL     1      35.211 -23.653 -12.105  0.00  0.00    +0.114 C 
BRANCH  17  19
ATOM     18  O   UNL     1      37.174 -23.965 -10.731  0.00  0.00    -0.250 OA
ATOM     19  C   UNL     1      35.993 -24.214 -10.941  0.00  0.00    +0.314 C 
BRANCH  19  20
ATOM     20  O   UNL     1      35.258 -25.047 -10.164  0.00  0.00    -0.480 OA
ATOM     21  H   UNL     1      34.449 -25.395 -10.485  0.00  0.00    +0.295 HD
ENDBRANCH  19  20
ENDBRANCH  17  19
ENDBRANCH  16  17
ENDBRANCH   1  16
TORSDOF 4
ENDMDL
MODEL 5
REMARK VINA RESULT:      -8.7     13.560     15.680
REMARK  Name = 446967
REMARK  4 active torsions:
REMARK  status: ('A' for Active; 'I' for Inactive)
REMARK    1  A    between atoms: C_1  and  C_16
REMARK    2  A    between atoms: C_16  and  C_17
REMARK    3  A    between atoms: C_17  and  C_19
REMARK    4  A    between atoms: C_19  and  O_20
REMARK                            x       y       z     vdW  Elec       q    Type
REMARK                         _______ _______ _______ _____ _____    ______ ____
ROOT
ATOM      1  C   UNL     1      32.210 -10.670 -22.469  0.00  0.00    -0.022 A 
ATOM      2  C   UNL     1      32.743  -9.416 -22.807  0.00  0.00    -0.004 A 
ATOM      3  C   UNL     1      32.657 -11.848 -23.091  0.00  0.00    -0.004 A 
ATOM      4  C   UNL     1      33.751  -9.338 -23.793  0.00  0.00    -0.004 A 
ATOM      5  C   UNL     1      33.665 -11.770 -24.077  0.00  0.00    -0.004 A 
ATOM      6  C   UNL     1      34.199 -10.515 -24.415  0.00  0.00    -0.022 A 
ATOM      7  C   UNL     1      32.297  -8.238 -22.186  0.00  0.00    -0.000 C 
ATOM      8  C   UNL     1      32.124 -13.104 -22.753  0.00  0.00    -0.000 C 
ATOM      9  C   UNL     1      34.284  -8.083 -24.131  0.00  0.00    -0.000 C 
ATOM     10  C   UNL     1      34.112 -12.947 -24.699  0.00  0.00    -0.000 C 
ATOM     11  C   UNL     1      35.272 -10.431 -25.467  0.00  0.00    +0.031 C 
ATOM     12  C   UNL     1      32.837  -7.000 -22.533  0.00  0.00    -0.000 C 
ATOM     13  C   UNL     1      32.578 -14.264 -23.380  0.00  0.00    -0.000 C 
ATOM     14  C   UNL     1      33.830  -6.922 -23.504  0.00  0.00    -0.000 C 
ATOM     15  C   UNL     1      33.571 -14.186 -24.351  0.00  0.00    -0.000 C 
ENDROOT
BRANCH   1  16
ATOM     16  C   UNL     1      31.134 -10.754 -21.419  0.00  0.00    +0.038 C 
BRANCH  16  17
ATOM     17  C   UNL     1      31.580 -11.488 -20.155  0.00  0.00    +0.114 C 
BRANCH  17  19
ATOM     18  O   UNL     1      32.394  -9.481 -19.084  0.00  0.00    -0.250 OA
ATOM     19  C   UNL     1      31.783 -10.539 -18.999  0.00  0.00    +0.314 C 
BRANCH  19  20
ATOM     20  O   UNL     1      31.240 -10.994 -17.842  0.00  0.00    -0.480 OA
ATOM     21  H   UNL     1      31.477 -10.598 -17.027  0.00  0.00    +0.295 HD
ENDBRANCH  19  20
ENDBRANCH  17  19
ENDBRANCH  16  17
ENDBRANCH   1  16
TORSDOF 4
ENDMDL
MODEL 6
REMARK VINA RESULT:      -8.7     13.577     15.866
REMARK  Name = 446967
REMARK  4 active torsions:
REMARK  status: ('A' for Active; 'I' for Inactive)
REMARK    1  A    between atoms: C_1  and  C_16
REMARK    2  A    between atoms: C_16  and  C_17
REMARK    3  A    between atoms: C_17  and  C_19
REMARK    4  A    between atoms: C_19  and  O_20
REMARK                            x       y       z     vdW  Elec       q    Type
REMARK                         _______ _______ _______ _____ _____    ______ ____
ROOT
ATOM      1  C   UNL     1      32.207 -10.646 -22.470  0.00  0.00    -0.022 A 
ATOM      2  C   UNL     1      32.653 -11.825 -23.089  0.00  0.00    -0.004 A 
ATOM      3  C   UNL     1      32.744  -9.393 -22.808  0.00  0.00    -0.004 A 
ATOM      4  C   UNL     1      33.664 -11.749 -24.072  0.00  0.00    -0.004 A 
ATOM      5  C   UNL     1      33.755  -9.316 -23.791  0.00  0.00    -0.004 A 
ATOM      6  C   UNL     1      34.203 -10.496 -24.410  0.00  0.00    -0.022 A 
ATOM      7  C   UNL     1      32.116 -13.078 -22.752  0.00  0.00    -0.000 C 
ATOM      8  C   UNL     1      32.297  -8.212 -22.190  0.00  0.00    -0.000 C 
ATOM      9  C   UNL     1      34.111 -12.928 -24.690  0.00  0.00    -0.000 C 
ATOM     10  C   UNL     1      34.293  -8.063 -24.129  0.00  0.00    -0.000 C 
ATOM     11  C   UNL     1      35.281 -10.415 -25.457  0.00  0.00    +0.031 C 
ATOM     12  C   UNL     1      32.571 -14.240 -23.376  0.00  0.00    -0.000 C 
ATOM     13  C   UNL     1      32.841  -6.976 -22.537  0.00  0.00    -0.000 C 
ATOM     14  C   UNL     1      33.567 -14.166 -24.343  0.00  0.00    -0.000 C 
ATOM     15  C   UNL     1      33.837  -6.901 -23.505  0.00  0.00    -0.000 C 
ENDROOT
BRANCH   1  16
ATOM     16  C   UNL     1      31.130 -10.727 -21.422  0.00  0.00    +0.038 C 
BRANCH  16  17
ATOM     17  C   UNL     1      31.570 -11.469 -20.161  0.00  0.00    +0.114 C 
BRANCH  17  19
ATOM     18  O   UNL     1      32.393  -9.466 -19.089  0.00  0.00    -0.250 OA
ATOM     19  C   UNL     1      31.784 -10.525 -19.002  0.00  0.00    +0.314 C 
BRANCH  19  20
ATOM     20  O   UNL     1      31.256 -10.987 -17.842  0.00  0.00    -0.480 OA
ATOM     21  H   UNL     1      31.210 -11.908 -17.682  0.00  0.00    +0.295 HD
ENDBRANCH  19  20
ENDBRANCH  17  19
ENDBRANCH  16  17
ENDBRANCH   1  16
TORSDOF 4
ENDMDL
MODEL 7
REMARK VINA RESULT:      -8.6     11.378     13.908
REMARK  Name = 446967
REMARK  4 active torsions:
REMARK  status: ('A' for Active; 'I' for Inactive)
REMARK    1  A    between atoms: C_1  and  C_16
REMARK    2  A    between atoms: C_16  and  C_17
REMARK    3  A    between atoms: C_17  and  C_19
REMARK    4  A    between atoms: C_19  and  O_20
REMARK                            x       y       z     vdW  Elec       q    Type
REMARK                         _______ _______ _______ _____ _____    ______ ____
ROOT
ATOM      1  C   UNL     1      33.530 -13.522 -23.406  0.00  0.00    -0.022 A 
ATOM      2  C   UNL     1      33.952 -14.810 -23.036  0.00  0.00    -0.004 A 
ATOM      3  C   UNL     1      32.750 -12.731 -22.546  0.00  0.00    -0.004 A 
ATOM      4  C   UNL     1      33.583 -15.320 -21.772  0.00  0.00    -0.004 A 
ATOM      5  C   UNL     1      32.381 -13.242 -21.282  0.00  0.00    -0.004 A 
ATOM      6  C   UNL     1      32.802 -14.530 -20.911  0.00  0.00    -0.022 A 
ATOM      7  C   UNL     1      34.732 -15.601 -23.895  0.00  0.00    -0.000 C 
ATOM      8  C   UNL     1      32.329 -11.442 -22.915  0.00  0.00    -0.000 C 
ATOM      9  C   UNL     1      34.003 -16.608 -21.402  0.00  0.00    -0.000 C 
ATOM     10  C   UNL     1      31.601 -12.451 -20.422  0.00  0.00    -0.000 C 
ATOM     11  C   UNL     1      32.407 -15.075 -19.565  0.00  0.00    +0.031 C 
ATOM     12  C   UNL     1      35.142 -16.878 -23.512  0.00  0.00    -0.000 C 
ATOM     13  C   UNL     1      31.554 -10.670 -22.049  0.00  0.00    -0.000 C 
ATOM     14  C   UNL     1      34.778 -17.381 -22.268  0.00  0.00    -0.000 C 
ATOM     15  C   UNL     1      31.191 -11.173 -20.805  0.00  0.00    -0.000 C 
ENDROOT
BRANCH   1  16
ATOM     16  C   UNL     1      33.922 -12.978 -24.754  0.00  0.00    +0.038 C 
BRANCH  16  17
ATOM     17  C   UNL     1      32.879 -13.242 -25.838  0.00  0.00    +0.114 C 
BRANCH  17  19
ATOM     18  O   UNL     1      34.041 -13.555 -27.933  0.00  0.00    -0.250 OA
ATOM     19  C   UNL     1      33.450 -14.048 -26.980  0.00  0.00    +0.314 C 
BRANCH  19  20
ATOM     20  O   UNL     1      33.214 -15.378 -26.857  0.00  0.00    -0.480 OA
ATOM     21  H   UNL     1      32.910 -15.869 -27.594  0.00  0.00    +0.295 HD
ENDBRANCH  19  20
ENDBRANCH  17  19
ENDBRANCH  16  17
ENDBRANCH   1  16
TORSDOF 4
ENDMDL
MODEL 8
REMARK VINA RESULT:      -8.6     11.379     14.046
REMARK  Name = 446967
REMARK  4 active torsions:
REMARK  status: ('A' for Active; 'I' for Inactive)
REMARK    1  A    between atoms: C_1  and  C_16
REMARK    2  A    between atoms: C_16  and  C_17
REMARK    3  A    between atoms: C_17  and  C_19
REMARK    4  A    between atoms: C_19  and  O_20
REMARK                            x       y       z     vdW  Elec       q    Type
REMARK                         _______ _______ _______ _____ _____    ______ ____
ROOT
ATOM      1  C   UNL     1      33.512 -13.521 -23.417  0.00  0.00    -0.022 A 
ATOM      2  C   UNL     1      32.735 -12.731 -22.554  0.00  0.00    -0.004 A 
ATOM      3  C   UNL     1      33.937 -14.808 -23.047  0.00  0.00    -0.004 A 
ATOM      4  C   UNL     1      32.372 -13.242 -21.289  0.00  0.00    -0.004 A 
ATOM      5  C   UNL     1      33.575 -15.319 -21.781  0.00  0.00    -0.004 A 
ATOM      6  C   UNL     1      32.797 -14.529 -20.918  0.00  0.00    -0.022 A 
ATOM      7  C   UNL     1      32.310 -11.444 -22.923  0.00  0.00    -0.000 C 
ATOM      8  C   UNL     1      34.715 -15.600 -23.910  0.00  0.00    -0.000 C 
ATOM      9  C   UNL     1      31.596 -12.451 -20.426  0.00  0.00    -0.000 C 
ATOM     10  C   UNL     1      34.000 -16.606 -21.412  0.00  0.00    -0.000 C 
ATOM     11  C   UNL     1      32.412 -15.072 -19.568  0.00  0.00    +0.031 C 
ATOM     12  C   UNL     1      31.538 -10.672 -22.055  0.00  0.00    -0.000 C 
ATOM     13  C   UNL     1      35.129 -16.876 -23.528  0.00  0.00    -0.000 C 
ATOM     14  C   UNL     1      31.181 -11.174 -20.808  0.00  0.00    -0.000 C 
ATOM     15  C   UNL     1      34.772 -17.378 -22.281  0.00  0.00    -0.000 C 
ENDROOT
BRANCH   1  16
ATOM     16  C   UNL     1      33.900 -12.976 -24.765  0.00  0.00    +0.038 C 
BRANCH  16  17
ATOM     17  C   UNL     1      32.865 -13.264 -25.852  0.00  0.00    +0.114 C 
BRANCH  17  19
ATOM     18  O   UNL     1      34.048 -13.571 -27.936  0.00  0.00    -0.250 OA
ATOM     19  C   UNL     1      33.453 -14.067 -26.987  0.00  0.00    +0.314 C 
BRANCH  19  20
ATOM     20  O   UNL     1      33.229 -15.398 -26.863  0.00  0.00    -0.480 OA
ATOM     21  H   UNL     1      33.827 -15.931 -26.377  0.00  0.00    +0.295 HD
ENDBRANCH  19  20
ENDBRANCH  17  19
ENDBRANCH  16  17
ENDBRANCH   1  16
TORSDOF 4
ENDMDL
MODEL 9
REMARK VINA RESULT:      -8.6      1.885      4.578
REMARK  Name = 446967
REMARK  4 active torsions:
REMARK  status: ('A' for Active; 'I' for Inactive)
REMARK    1  A    between atoms: C_1  and  C_16
REMARK    2  A    between atoms: C_16  and  C_17
REMARK    3  A    between atoms: C_17  and  C_19
REMARK    4  A    between atoms: C_19  and  O_20
REMARK                            x       y       z     vdW  Elec       q    Type
REMARK                         _______ _______ _______ _____ _____    ______ ____
ROOT
ATOM      1  C   UNL     1      36.135 -22.729 -15.878  0.00  0.00    -0.022 A 
ATOM      2  C   UNL     1      35.182 -23.293 -15.015  0.00  0.00    -0.004 A 
ATOM      3  C   UNL     1      35.798 -22.329 -17.182  0.00  0.00    -0.004 A 
ATOM      4  C   UNL     1      33.855 -23.462 -15.468  0.00  0.00    -0.004 A 
ATOM      5  C   UNL     1      34.471 -22.498 -17.635  0.00  0.00    -0.004 A 
ATOM      6  C   UNL     1      33.516 -23.063 -16.772  0.00  0.00    -0.022 A 
ATOM      7  C   UNL     1      35.518 -23.692 -13.711  0.00  0.00    -0.000 C 
ATOM      8  C   UNL     1      36.751 -21.764 -18.046  0.00  0.00    -0.000 C 
ATOM      9  C   UNL     1      32.902 -24.027 -14.605  0.00  0.00    -0.000 C 
ATOM     10  C   UNL     1      34.133 -22.099 -18.939  0.00  0.00    -0.000 C 
ATOM     11  C   UNL     1      32.103 -23.244 -17.256  0.00  0.00    +0.031 C 
ATOM     12  C   UNL     1      34.559 -24.251 -12.867  0.00  0.00    -0.000 C 
ATOM     13  C   UNL     1      36.400 -21.373 -19.338  0.00  0.00    -0.000 C 
ATOM     14  C   UNL     1      33.252 -24.419 -13.313  0.00  0.00    -0.000 C 
ATOM     15  C   UNL     1      35.094 -21.540 -19.784  0.00  0.00    -0.000 C 
ENDROOT
BRANCH   1  16
ATOM     16  C   UNL     1      37.550 -22.550 -15.396  0.00  0.00    +0.038 C 
BRANCH  16  17
ATOM     17  C   UNL     1      38.490 -23.661 -15.858  0.00  0.00    +0.114 C 
BRANCH  17  19
ATOM     18  O   UNL     1      39.018 -24.592 -13.691  0.00  0.00    -0.250 OA
ATOM     19  C   UNL     1      38.603 -24.763 -14.831  0.00  0.00    +0.314 C 
BRANCH  19  20
ATOM     20  O   UNL     1      38.224 -25.972 -15.311  0.00  0.00    -0.480 OA
ATOM     21  H   UNL     1      37.315 -26.197 -15.350  0.00  0.00    +0.295 HD
ENDBRANCH  19  20
ENDBRANCH  17  19
ENDBRANCH  16  17
ENDBRANCH   1  16
TORSDOF 4
ENDMDL
