MODEL 1
REMARK VINA RESULT:      -8.9      0.000      0.000
REMARK  Name = 5288801
REMARK  11 active torsions:
REMARK  status: ('A' for Active; 'I' for Inactive)
REMARK    1  A    between atoms: C_1  and  C_4
REMARK    2  A    between atoms: C_2  and  C_16
REMARK    3  A    between atoms: C_4  and  C_6
REMARK    4  A    between atoms: C_6  and  O_7
REMARK    5  A    between atoms: C_6  and  C_9
REMARK    6  A    between atoms: C_9  and  C_10
REMARK    7  A    between atoms: C_17  and  C_18
REMARK    8  A    between atoms: C_18  and  N_19
REMARK    9  A    between atoms: C_18  and  C_23
REMARK   10  A    between atoms: C_23  and  C_26
REMARK   11  A    between atoms: C_26  and  O_27
REMARK                            x       y       z     vdW  Elec       q    Type
REMARK                         _______ _______ _______ _____ _____    ______ ____
ROOT
ATOM      1  C   UNL     1      35.004 -20.553 -19.968  0.00  0.00    -0.028 C 
ATOM      2  C   UNL     1      35.027 -21.653 -19.188  0.00  0.00    -0.026 C 
ATOM      3  C   UNL     1      34.097 -22.829 -19.313  0.00  0.00    +0.031 C 
ENDROOT
BRANCH   1   4
ATOM      4  C   UNL     1      34.026 -20.218 -21.075  0.00  0.00    +0.049 C 
ATOM      5  C   UNL     1      32.658 -19.889 -20.466  0.00  0.00    +0.007 C 
BRANCH   4   6
ATOM      6  C   UNL     1      34.532 -19.076 -21.991  0.00  0.00    +0.124 C 
BRANCH   6   7
ATOM      7  O   UNL     1      35.348 -19.644 -23.021  0.00  0.00    -0.353 OA
ATOM      8  C   UNL     1      34.776 -19.430 -24.301  0.00  0.00    +0.174 C 
ENDBRANCH   6   7
BRANCH   6   9
ATOM      9  C   UNL     1      35.353 -17.988 -21.278  0.00  0.00    +0.056 C 
BRANCH   9  10
ATOM     10  C   UNL     1      34.853 -16.598 -21.603  0.00  0.00    -0.020 C 
ATOM     11  C   UNL     1      34.303 -15.824 -20.596  0.00  0.00    -0.004 C 
ATOM     12  C   UNL     1      34.955 -16.129 -22.902  0.00  0.00    -0.004 C 
ATOM     13  C   UNL     1      33.842 -14.542 -20.896  0.00  0.00    -0.000 C 
ATOM     14  C   UNL     1      34.494 -14.847 -23.202  0.00  0.00    -0.000 C 
ATOM     15  C   UNL     1      33.937 -14.054 -22.198  0.00  0.00    -0.000 C 
ENDBRANCH   9  10
ENDBRANCH   6   9
ENDBRANCH   4   6
ENDBRANCH   1   4
BRANCH   2  16
ATOM     16  C   UNL     1      36.042 -21.827 -18.155  0.00  0.00    -0.011 C 
ATOM     17  C   UNL     1      35.844 -22.441 -16.976  0.00  0.00    -0.048 C 
BRANCH  17  18
ATOM     18  C   UNL     1      36.929 -22.626 -15.938  0.00  0.00    -0.032 C 
BRANCH  18  19
ATOM     19  N   UNL     1      38.216 -22.791 -16.627  0.00  0.00    +0.385 N 
ATOM     20  H   UNL     1      38.952 -22.345 -16.082  0.00  0.00    -0.089 HD
ATOM     21  H   UNL     1      38.166 -22.358 -17.550  0.00  0.00    -0.089 HD
ATOM     22  H   UNL     1      38.422 -23.784 -16.729  0.00  0.00    -0.089 HD
ENDBRANCH  18  19
BRANCH  18  23
ATOM     23  C   UNL     1      36.618 -23.850 -15.035  0.00  0.00    +0.083 C 
ATOM     24  C   UNL     1      36.025 -23.469 -13.676  0.00  0.00    +0.010 C 
BRANCH  23  26
ATOM     25  O   UNL     1      38.746 -24.342 -13.949  0.00  0.00    -0.250 OA
ATOM     26  C   UNL     1      37.884 -24.655 -14.760  0.00  0.00    +0.311 C 
BRANCH  26  27
ATOM     27  O   UNL     1      37.942 -25.796 -15.493  0.00  0.00    -0.480 OA
ATOM     28  H   UNL     1      37.252 -26.427 -15.434  0.00  0.00    +0.295 HD
ENDBRANCH  26  27
ENDBRANCH  23  26
ENDBRANCH  18  23
ENDBRANCH  17  18
ENDBRANCH   2  16
TORSDOF 11
ENDMDL
MODEL 2
REMARK VINA RESULT:      -8.8      5.582     11.278
REMARK  Name = 5288801
REMARK  11 active torsions:
REMARK  status: ('A' for Active; 'I' for Inactive)
REMARK    1  A    between atoms: C_1  and  C_4
REMARK    2  A    between atoms: C_2  and  C_16
REMARK    3  A    between atoms: C_4  and  C_6
REMARK    4  A    between atoms: C_6  and  O_7
REMARK    5  A    between atoms: C_6  and  C_9
REMARK    6  A    between atoms: C_9  and  C_10
REMARK    7  A    between atoms: C_17  and  C_18
REMARK    8  A    between atoms: C_18  and  N_19
REMARK    9  A    between atoms: C_18  and  C_23
REMARK   10  A    between atoms: C_23  and  C_26
REMARK   11  A    between atoms: C_26  and  O_27
REMARK                            x       y       z     vdW  Elec       q    Type
REMARK                         _______ _______ _______ _____ _____    ______ ____
ROOT
ATOM      1  C   UNL     1      34.085 -14.874 -24.069  0.00  0.00    -0.028 C 
ATOM      2  C   UNL     1      33.561 -14.211 -25.120  0.00  0.00    -0.026 C 
ATOM      3  C   UNL     1      32.704 -14.821 -26.195  0.00  0.00    +0.031 C 
ENDROOT
BRANCH   1   4
ATOM      4  C   UNL     1      33.998 -16.356 -23.767  0.00  0.00    +0.049 C 
ATOM      5  C   UNL     1      34.862 -17.133 -24.767  0.00  0.00    +0.007 C 
BRANCH   4   6
ATOM      6  C   UNL     1      34.381 -16.688 -22.303  0.00  0.00    +0.124 C 
BRANCH   6   7
ATOM      7  O   UNL     1      34.936 -15.515 -21.698  0.00  0.00    -0.353 OA
ATOM      8  C   UNL     1      34.355 -15.273 -20.428  0.00  0.00    +0.174 C 
ENDBRANCH   6   7
BRANCH   6   9
ATOM      9  C   UNL     1      35.394 -17.834 -22.141  0.00  0.00    +0.056 C 
BRANCH   9  10
ATOM     10  C   UNL     1      34.832 -18.975 -21.324  0.00  0.00    -0.020 C 
ATOM     11  C   UNL     1      33.460 -19.091 -21.178  0.00  0.00    -0.004 C 
ATOM     12  C   UNL     1      35.701 -19.881 -20.738  0.00  0.00    -0.004 C 
ATOM     13  C   UNL     1      32.941 -20.143 -20.424  0.00  0.00    -0.000 C 
ATOM     14  C   UNL     1      35.181 -20.933 -19.984  0.00  0.00    -0.000 C 
ATOM     15  C   UNL     1      33.802 -21.063 -19.827  0.00  0.00    -0.000 C 
ENDBRANCH   9  10
ENDBRANCH   6   9
ENDBRANCH   4   6
ENDBRANCH   1   4
BRANCH   2  16
ATOM     16  C   UNL     1      33.738 -12.771 -25.270  0.00  0.00    -0.011 C 
ATOM     17  C   UNL     1      33.767 -11.889 -24.258  0.00  0.00    -0.048 C 
BRANCH  17  18
ATOM     18  C   UNL     1      33.978 -10.403 -24.449  0.00  0.00    -0.032 C 
BRANCH  18  19
ATOM     19  N   UNL     1      35.409 -10.158 -24.679  0.00  0.00    +0.385 N 
ATOM     20  H   UNL     1      35.586  -9.154 -24.671  0.00  0.00    -0.089 HD
ATOM     21  H   UNL     1      35.679 -10.545 -25.584  0.00  0.00    -0.089 HD
ATOM     22  H   UNL     1      35.953 -10.605 -23.942  0.00  0.00    -0.089 HD
ENDBRANCH  18  19
BRANCH  18  23
ATOM     23  C   UNL     1      33.468  -9.614 -23.213  0.00  0.00    +0.083 C 
ATOM     24  C   UNL     1      31.963  -9.761 -22.976  0.00  0.00    +0.010 C 
BRANCH  23  26
ATOM     25  O   UNL     1      32.941  -7.298 -23.765  0.00  0.00    -0.250 OA
ATOM     26  C   UNL     1      33.752  -8.123 -23.367  0.00  0.00    +0.311 C 
BRANCH  26  27
ATOM     27  O   UNL     1      35.009  -7.792 -22.975  0.00  0.00    -0.480 OA
ATOM     28  H   UNL     1      35.166  -7.506 -22.096  0.00  0.00    +0.295 HD
ENDBRANCH  26  27
ENDBRANCH  23  26
ENDBRANCH  18  23
ENDBRANCH  17  18
ENDBRANCH   2  16
TORSDOF 11
ENDMDL
MODEL 3
REMARK VINA RESULT:      -8.7      2.248      3.502
REMARK  Name = 5288801
REMARK  11 active torsions:
REMARK  status: ('A' for Active; 'I' for Inactive)
REMARK    1  A    between atoms: C_1  and  C_4
REMARK    2  A    between atoms: C_2  and  C_16
REMARK    3  A    between atoms: C_4  and  C_6
REMARK    4  A    between atoms: C_6  and  O_7
REMARK    5  A    between atoms: C_6  and  C_9
REMARK    6  A    between atoms: C_9  and  C_10
REMARK    7  A    between atoms: C_17  and  C_18
REMARK    8  A    between atoms: C_18  and  N_19
REMARK    9  A    between atoms: C_18  and  C_23
REMARK   10  A    between atoms: C_23  and  C_26
REMARK   11  A    between atoms: C_26  and  O_27
REMARK                            x       y       z     vdW  Elec       q    Type
REMARK                         _______ _______ _______ _____ _____    ______ ____
ROOT
ATOM      1  C   UNL     1      34.628 -19.422 -22.598  0.00  0.00    -0.028 C 
ATOM      2  C   UNL     1      35.246 -19.617 -21.415  0.00  0.00    -0.026 C 
ATOM      3  C   UNL     1      36.574 -19.032 -21.020  0.00  0.00    +0.031 C 
ENDROOT
BRANCH   1   4
ATOM      4  C   UNL     1      35.138 -18.652 -23.798  0.00  0.00    +0.049 C 
ATOM      5  C   UNL     1      34.830 -19.437 -25.079  0.00  0.00    +0.007 C 
BRANCH   4   6
ATOM      6  C   UNL     1      34.574 -17.210 -23.863  0.00  0.00    +0.124 C 
BRANCH   6   7
ATOM      7  O   UNL     1      34.732 -16.718 -25.199  0.00  0.00    -0.353 OA
ATOM      8  C   UNL     1      33.596 -15.973 -25.605  0.00  0.00    +0.174 C 
ENDBRANCH   6   7
BRANCH   6   9
ATOM      9  C   UNL     1      35.240 -16.209 -22.904  0.00  0.00    +0.056 C 
BRANCH   9  10
ATOM     10  C   UNL     1      34.220 -15.403 -22.132  0.00  0.00    -0.020 C 
ATOM     11  C   UNL     1      33.688 -15.924 -20.965  0.00  0.00    -0.004 C 
ATOM     12  C   UNL     1      33.840 -14.159 -22.607  0.00  0.00    -0.004 C 
ATOM     13  C   UNL     1      32.747 -15.181 -20.252  0.00  0.00    -0.000 C 
ATOM     14  C   UNL     1      32.899 -13.416 -21.895  0.00  0.00    -0.000 C 
ATOM     15  C   UNL     1      32.353 -13.927 -20.718  0.00  0.00    -0.000 C 
ENDBRANCH   9  10
ENDBRANCH   6   9
ENDBRANCH   4   6
ENDBRANCH   1   4
BRANCH   2  16
ATOM     16  C   UNL     1      34.617 -20.392 -20.352  0.00  0.00    -0.011 C 
ATOM     17  C   UNL     1      34.985 -21.629 -19.980  0.00  0.00    -0.048 C 
BRANCH  17  18
ATOM     18  C   UNL     1      34.325 -22.394 -18.853  0.00  0.00    -0.032 C 
BRANCH  18  19
ATOM     19  N   UNL     1      32.903 -22.029 -18.807  0.00  0.00    +0.385 N 
ATOM     20  H   UNL     1      32.792 -21.061 -19.108  0.00  0.00    -0.089 HD
ATOM     21  H   UNL     1      32.556 -22.131 -17.853  0.00  0.00    -0.089 HD
ATOM     22  H   UNL     1      32.374 -22.641 -19.428  0.00  0.00    -0.089 HD
ENDBRANCH  18  19
BRANCH  18  23
ATOM     23  C   UNL     1      35.024 -22.088 -17.501  0.00  0.00    +0.083 C 
ATOM     24  C   UNL     1      36.549 -22.000 -17.610  0.00  0.00    +0.010 C 
BRANCH  23  26
ATOM     25  O   UNL     1      33.589 -23.445 -16.071  0.00  0.00    -0.250 OA
ATOM     26  C   UNL     1      34.712 -23.169 -16.472  0.00  0.00    +0.311 C 
BRANCH  26  27
ATOM     27  O   UNL     1      35.824 -23.834 -16.065  0.00  0.00    -0.480 OA
ATOM     28  H   UNL     1      36.673 -23.524 -16.312  0.00  0.00    +0.295 HD
ENDBRANCH  26  27
ENDBRANCH  23  26
ENDBRANCH  18  23
ENDBRANCH  17  18
ENDBRANCH   2  16
TORSDOF 11
ENDMDL
MODEL 4
REMARK VINA RESULT:      -8.7      5.426     11.354
REMARK  Name = 5288801
REMARK  11 active torsions:
REMARK  status: ('A' for Active; 'I' for Inactive)
REMARK    1  A    between atoms: C_1  and  C_4
REMARK    2  A    between atoms: C_2  and  C_16
REMARK    3  A    between atoms: C_4  and  C_6
REMARK    4  A    between atoms: C_6  and  O_7
REMARK    5  A    between atoms: C_6  and  C_9
REMARK    6  A    between atoms: C_9  and  C_10
REMARK    7  A    between atoms: C_17  and  C_18
REMARK    8  A    between atoms: C_18  and  N_19
REMARK    9  A    between atoms: C_18  and  C_23
REMARK   10  A    between atoms: C_23  and  C_26
REMARK   11  A    between atoms: C_26  and  O_27
REMARK                            x       y       z     vdW  Elec       q    Type
REMARK                         _______ _______ _______ _____ _____    ______ ____
ROOT
ATOM      1  C   UNL     1      34.468 -15.047 -23.789  0.00  0.00    -0.028 C 
ATOM      2  C   UNL     1      33.690 -13.968 -23.563  0.00  0.00    -0.026 C 
ATOM      3  C   UNL     1      32.328 -13.994 -22.925  0.00  0.00    +0.031 C 
ENDROOT
BRANCH   1   4
ATOM      4  C   UNL     1      34.138 -16.502 -23.526  0.00  0.00    +0.049 C 
ATOM      5  C   UNL     1      34.829 -17.380 -24.576  0.00  0.00    +0.007 C 
BRANCH   4   6
ATOM      6  C   UNL     1      34.500 -16.943 -22.086  0.00  0.00    +0.124 C 
BRANCH   6   7
ATOM      7  O   UNL     1      35.114 -15.840 -21.411  0.00  0.00    -0.353 OA
ATOM      8  C   UNL     1      34.380 -15.479 -20.253  0.00  0.00    +0.174 C 
ENDBRANCH   6   7
BRANCH   6   9
ATOM      9  C   UNL     1      35.453 -18.147 -21.996  0.00  0.00    +0.056 C 
BRANCH   9  10
ATOM     10  C   UNL     1      34.869 -19.269 -21.167  0.00  0.00    -0.020 C 
ATOM     11  C   UNL     1      35.723 -20.163 -20.543  0.00  0.00    -0.004 C 
ATOM     12  C   UNL     1      33.494 -19.379 -21.048  0.00  0.00    -0.004 C 
ATOM     13  C   UNL     1      35.186 -21.198 -19.777  0.00  0.00    -0.000 C 
ATOM     14  C   UNL     1      32.957 -20.414 -20.282  0.00  0.00    -0.000 C 
ATOM     15  C   UNL     1      33.804 -21.323 -19.648  0.00  0.00    -0.000 C 
ENDBRANCH   9  10
ENDBRANCH   6   9
ENDBRANCH   4   6
ENDBRANCH   1   4
BRANCH   2  16
ATOM     16  C   UNL     1      34.156 -12.622 -23.876  0.00  0.00    -0.011 C 
ATOM     17  C   UNL     1      33.360 -11.557 -24.072  0.00  0.00    -0.048 C 
BRANCH  17  18
ATOM     18  C   UNL     1      33.881 -10.168 -24.369  0.00  0.00    -0.032 C 
BRANCH  18  19
ATOM     19  N   UNL     1      35.347 -10.222 -24.447  0.00  0.00    +0.385 N 
ATOM     20  H   UNL     1      35.625 -10.591 -25.356  0.00  0.00    -0.089 HD
ATOM     21  H   UNL     1      35.704 -10.830 -23.709  0.00  0.00    -0.089 HD
ATOM     22  H   UNL     1      35.728  -9.284 -24.329  0.00  0.00    -0.089 HD
ENDBRANCH  18  19
BRANCH  18  23
ATOM     23  C   UNL     1      33.416  -9.165 -23.279  0.00  0.00    +0.083 C 
ATOM     24  C   UNL     1      31.894  -9.024 -23.190  0.00  0.00    +0.010 C 
BRANCH  23  26
ATOM     25  O   UNL     1      33.396  -6.896 -24.174  0.00  0.00    -0.250 OA
ATOM     26  C   UNL     1      33.978  -7.773 -23.549  0.00  0.00    +0.311 C 
BRANCH  26  27
ATOM     27  O   UNL     1      35.198  -7.588 -22.984  0.00  0.00    -0.480 OA
ATOM     28  H   UNL     1      35.485  -6.725 -22.757  0.00  0.00    +0.295 HD
ENDBRANCH  26  27
ENDBRANCH  23  26
ENDBRANCH  18  23
ENDBRANCH  17  18
ENDBRANCH   2  16
TORSDOF 11
ENDMDL
MODEL 5
REMARK VINA RESULT:      -8.6      3.064      9.183
REMARK  Name = 5288801
REMARK  11 active torsions:
REMARK  status: ('A' for Active; 'I' for Inactive)
REMARK    1  A    between atoms: C_1  and  C_4
REMARK    2  A    between atoms: C_2  and  C_16
REMARK    3  A    between atoms: C_4  and  C_6
REMARK    4  A    between atoms: C_6  and  O_7
REMARK    5  A    between atoms: C_6  and  C_9
REMARK    6  A    between atoms: C_9  and  C_10
REMARK    7  A    between atoms: C_17  and  C_18
REMARK    8  A    between atoms: C_18  and  N_19
REMARK    9  A    between atoms: C_18  and  C_23
REMARK   10  A    between atoms: C_23  and  C_26
REMARK   11  A    between atoms: C_26  and  O_27
REMARK                            x       y       z     vdW  Elec       q    Type
REMARK                         _______ _______ _______ _____ _____    ______ ____
ROOT
ATOM      1  C   UNL     1      35.481 -23.324 -16.313  0.00  0.00    -0.028 C 
ATOM      2  C   UNL     1      34.799 -22.809 -17.356  0.00  0.00    -0.026 C 
ATOM      3  C   UNL     1      33.342 -23.046 -17.646  0.00  0.00    +0.031 C 
ENDROOT
BRANCH   1   4
ATOM      4  C   UNL     1      34.979 -24.289 -15.258  0.00  0.00    +0.049 C 
ATOM      5  C   UNL     1      35.989 -25.429 -15.084  0.00  0.00    +0.007 C 
BRANCH   4   6
ATOM      6  C   UNL     1      34.670 -23.589 -13.911  0.00  0.00    +0.124 C 
BRANCH   6   7
ATOM      7  O   UNL     1      35.844 -23.638 -13.092  0.00  0.00    -0.353 OA
ATOM      8  C   UNL     1      35.519 -23.979 -11.755  0.00  0.00    +0.174 C 
ENDBRANCH   6   7
BRANCH   6   9
ATOM      9  C   UNL     1      33.506 -24.201 -13.114  0.00  0.00    +0.056 C 
BRANCH   9  10
ATOM     10  C   UNL     1      32.191 -24.079 -13.850  0.00  0.00    -0.020 C 
ATOM     11  C   UNL     1      31.806 -22.845 -14.348  0.00  0.00    -0.004 C 
ATOM     12  C   UNL     1      31.398 -25.203 -14.012  0.00  0.00    -0.004 C 
ATOM     13  C   UNL     1      30.593 -22.731 -15.027  0.00  0.00    -0.000 C 
ATOM     14  C   UNL     1      30.185 -25.089 -14.691  0.00  0.00    -0.000 C 
ATOM     15  C   UNL     1      29.783 -23.853 -15.198  0.00  0.00    -0.000 C 
ENDBRANCH   9  10
ENDBRANCH   6   9
ENDBRANCH   4   6
ENDBRANCH   1   4
BRANCH   2  16
ATOM     16  C   UNL     1      35.433 -21.887 -18.292  0.00  0.00    -0.011 C 
ATOM     17  C   UNL     1      34.948 -21.565 -19.503  0.00  0.00    -0.048 C 
BRANCH  17  18
ATOM     18  C   UNL     1      35.620 -20.584 -20.438  0.00  0.00    -0.032 C 
BRANCH  18  19
ATOM     19  N   UNL     1      36.779 -19.999 -19.751  0.00  0.00    +0.385 N 
ATOM     20  H   UNL     1      36.459 -19.295 -19.087  0.00  0.00    -0.089 HD
ATOM     21  H   UNL     1      37.397 -19.563 -20.437  0.00  0.00    -0.089 HD
ATOM     22  H   UNL     1      37.285 -20.731 -19.254  0.00  0.00    -0.089 HD
ENDBRANCH  18  19
BRANCH  18  23
ATOM     23  C   UNL     1      34.621 -19.483 -20.885  0.00  0.00    +0.083 C 
ATOM     24  C   UNL     1      33.170 -19.967 -20.952  0.00  0.00    +0.010 C 
BRANCH  23  26
ATOM     25  O   UNL     1      34.315 -19.144 -23.281  0.00  0.00    -0.250 OA
ATOM     26  C   UNL     1      34.980 -18.955 -22.270  0.00  0.00    +0.311 C 
BRANCH  26  27
ATOM     27  O   UNL     1      36.114 -18.210 -22.264  0.00  0.00    -0.480 OA
ATOM     28  H   UNL     1      36.472 -17.893 -23.070  0.00  0.00    +0.295 HD
ENDBRANCH  26  27
ENDBRANCH  23  26
ENDBRANCH  18  23
ENDBRANCH  17  18
ENDBRANCH   2  16
TORSDOF 11
ENDMDL
MODEL 6
REMARK VINA RESULT:      -8.6      2.663      4.308
REMARK  Name = 5288801
REMARK  11 active torsions:
REMARK  status: ('A' for Active; 'I' for Inactive)
REMARK    1  A    between atoms: C_1  and  C_4
REMARK    2  A    between atoms: C_2  and  C_16
REMARK    3  A    between atoms: C_4  and  C_6
REMARK    4  A    between atoms: C_6  and  O_7
REMARK    5  A    between atoms: C_6  and  C_9
REMARK    6  A    between atoms: C_9  and  C_10
REMARK    7  A    between atoms: C_17  and  C_18
REMARK    8  A    between atoms: C_18  and  N_19
REMARK    9  A    between atoms: C_18  and  C_23
REMARK   10  A    between atoms: C_23  and  C_26
REMARK   11  A    between atoms: C_26  and  O_27
REMARK                            x       y       z     vdW  Elec       q    Type
REMARK                         _______ _______ _______ _____ _____    ______ ____
ROOT
ATOM      1  C   UNL     1      34.676 -18.297 -22.260  0.00  0.00    -0.028 C 
ATOM      2  C   UNL     1      35.351 -19.103 -21.415  0.00  0.00    -0.026 C 
ATOM      3  C   UNL     1      36.828 -19.034 -21.138  0.00  0.00    +0.031 C 
ENDROOT
BRANCH   1   4
ATOM      4  C   UNL     1      35.235 -17.210 -23.154  0.00  0.00    +0.049 C 
ATOM      5  C   UNL     1      34.835 -17.488 -24.608  0.00  0.00    +0.007 C 
BRANCH   4   6
ATOM      6  C   UNL     1      34.806 -15.791 -22.706  0.00  0.00    +0.124 C 
BRANCH   6   7
ATOM      7  O   UNL     1      34.842 -15.733 -21.276  0.00  0.00    -0.353 OA
ATOM      8  C   UNL     1      33.722 -15.031 -20.765  0.00  0.00    +0.174 C 
ENDBRANCH   6   7
BRANCH   6   9
ATOM      9  C   UNL     1      33.403 -15.361 -23.166  0.00  0.00    +0.056 C 
BRANCH   9  10
ATOM     10  C   UNL     1      33.460 -14.278 -24.219  0.00  0.00    -0.020 C 
ATOM     11  C   UNL     1      33.841 -12.998 -23.852  0.00  0.00    -0.004 C 
ATOM     12  C   UNL     1      33.130 -14.587 -25.528  0.00  0.00    -0.004 C 
ATOM     13  C   UNL     1      33.895 -11.998 -24.823  0.00  0.00    -0.000 C 
ATOM     14  C   UNL     1      33.183 -13.586 -26.498  0.00  0.00    -0.000 C 
ATOM     15  C   UNL     1      33.565 -12.292 -26.145  0.00  0.00    -0.000 C 
ENDBRANCH   9  10
ENDBRANCH   6   9
ENDBRANCH   4   6
ENDBRANCH   1   4
BRANCH   2  16
ATOM     16  C   UNL     1      34.661 -20.111 -20.618  0.00  0.00    -0.011 C 
ATOM     17  C   UNL     1      35.235 -21.209 -20.099  0.00  0.00    -0.048 C 
BRANCH  17  18
ATOM     18  C   UNL     1      34.493 -22.221 -19.255  0.00  0.00    -0.032 C 
BRANCH  18  19
ATOM     19  N   UNL     1      33.050 -22.025 -19.447  0.00  0.00    +0.385 N 
ATOM     20  H   UNL     1      32.776 -22.392 -20.358  0.00  0.00    -0.089 HD
ATOM     21  H   UNL     1      32.832 -21.029 -19.402  0.00  0.00    -0.089 HD
ATOM     22  H   UNL     1      32.539 -22.518 -18.715  0.00  0.00    -0.089 HD
ENDBRANCH  18  19
BRANCH  18  23
ATOM     23  C   UNL     1      34.881 -22.075 -17.759  0.00  0.00    +0.083 C 
ATOM     24  C   UNL     1      36.393 -22.103 -17.516  0.00  0.00    +0.010 C 
BRANCH  23  26
ATOM     25  O   UNL     1      33.081 -23.466 -16.879  0.00  0.00    -0.250 OA
ATOM     26  C   UNL     1      34.276 -23.202 -16.929  0.00  0.00    +0.311 C 
BRANCH  26  27
ATOM     27  O   UNL     1      35.216 -23.921 -16.266  0.00  0.00    -0.480 OA
ATOM     28  H   UNL     1      35.937 -23.485 -15.854  0.00  0.00    +0.295 HD
ENDBRANCH  26  27
ENDBRANCH  23  26
ENDBRANCH  18  23
ENDBRANCH  17  18
ENDBRANCH   2  16
TORSDOF 11
ENDMDL
MODEL 7
REMARK VINA RESULT:      -8.6      1.530      2.335
REMARK  Name = 5288801
REMARK  11 active torsions:
REMARK  status: ('A' for Active; 'I' for Inactive)
REMARK    1  A    between atoms: C_1  and  C_4
REMARK    2  A    between atoms: C_2  and  C_16
REMARK    3  A    between atoms: C_4  and  C_6
REMARK    4  A    between atoms: C_6  and  O_7
REMARK    5  A    between atoms: C_6  and  C_9
REMARK    6  A    between atoms: C_9  and  C_10
REMARK    7  A    between atoms: C_17  and  C_18
REMARK    8  A    between atoms: C_18  and  N_19
REMARK    9  A    between atoms: C_18  and  C_23
REMARK   10  A    between atoms: C_23  and  C_26
REMARK   11  A    between atoms: C_26  and  O_27
REMARK                            x       y       z     vdW  Elec       q    Type
REMARK                         _______ _______ _______ _____ _____    ______ ____
ROOT
ATOM      1  C   UNL     1      34.997 -21.654 -18.986  0.00  0.00    -0.028 C 
ATOM      2  C   UNL     1      34.454 -22.416 -18.015  0.00  0.00    -0.026 C 
ATOM      3  C   UNL     1      33.033 -22.912 -17.989  0.00  0.00    +0.031 C 
ENDROOT
BRANCH   1   4
ATOM      4  C   UNL     1      34.313 -21.076 -20.207  0.00  0.00    +0.049 C 
ATOM      5  C   UNL     1      32.950 -20.501 -19.806  0.00  0.00    +0.007 C 
BRANCH   4   6
ATOM      6  C   UNL     1      35.185 -20.023 -20.936  0.00  0.00    +0.124 C 
BRANCH   6   7
ATOM      7  O   UNL     1      36.410 -19.864 -20.211  0.00  0.00    -0.353 OA
ATOM      8  C   UNL     1      37.402 -19.248 -21.015  0.00  0.00    +0.174 C 
ENDBRANCH   6   7
BRANCH   6   9
ATOM      9  C   UNL     1      34.537 -18.636 -21.087  0.00  0.00    +0.056 C 
BRANCH   9  10
ATOM     10  C   UNL     1      34.593 -18.138 -22.513  0.00  0.00    -0.020 C 
ATOM     11  C   UNL     1      34.555 -19.054 -23.551  0.00  0.00    -0.004 C 
ATOM     12  C   UNL     1      34.680 -16.777 -22.753  0.00  0.00    -0.004 C 
ATOM     13  C   UNL     1      34.607 -18.596 -24.868  0.00  0.00    -0.000 C 
ATOM     14  C   UNL     1      34.732 -16.319 -24.069  0.00  0.00    -0.000 C 
ATOM     15  C   UNL     1      34.696 -17.229 -25.126  0.00  0.00    -0.000 C 
ENDBRANCH   9  10
ENDBRANCH   6   9
ENDBRANCH   4   6
ENDBRANCH   1   4
BRANCH   2  16
ATOM     16  C   UNL     1      35.253 -22.895 -16.892  0.00  0.00    -0.011 C 
ATOM     17  C   UNL     1      36.465 -22.425 -16.554  0.00  0.00    -0.048 C 
BRANCH  17  18
ATOM     18  C   UNL     1      37.254 -22.929 -15.366  0.00  0.00    -0.032 C 
BRANCH  18  19
ATOM     19  N   UNL     1      38.478 -23.577 -15.856  0.00  0.00    +0.385 N 
ATOM     20  H   UNL     1      39.292 -23.071 -15.509  0.00  0.00    -0.089 HD
ATOM     21  H   UNL     1      38.482 -23.569 -16.877  0.00  0.00    -0.089 HD
ATOM     22  H   UNL     1      38.510 -24.541 -15.524  0.00  0.00    -0.089 HD
ENDBRANCH  18  19
BRANCH  18  23
ATOM     23  C   UNL     1      36.402 -23.913 -14.521  0.00  0.00    +0.083 C 
ATOM     24  C   UNL     1      36.267 -23.497 -13.053  0.00  0.00    +0.010 C 
BRANCH  23  26
ATOM     25  O   UNL     1      37.682 -25.786 -13.625  0.00  0.00    -0.250 OA
ATOM     26  C   UNL     1      37.015 -25.310 -14.534  0.00  0.00    +0.311 C 
BRANCH  26  27
ATOM     27  O   UNL     1      36.709 -26.000 -15.662  0.00  0.00    -0.480 OA
ATOM     28  H   UNL     1      35.813 -26.129 -15.905  0.00  0.00    +0.295 HD
ENDBRANCH  26  27
ENDBRANCH  23  26
ENDBRANCH  18  23
ENDBRANCH  17  18
ENDBRANCH   2  16
TORSDOF 11
ENDMDL
MODEL 8
REMARK VINA RESULT:      -8.5      3.209      5.371
REMARK  Name = 5288801
REMARK  11 active torsions:
REMARK  status: ('A' for Active; 'I' for Inactive)
REMARK    1  A    between atoms: C_1  and  C_4
REMARK    2  A    between atoms: C_2  and  C_16
REMARK    3  A    between atoms: C_4  and  C_6
REMARK    4  A    between atoms: C_6  and  O_7
REMARK    5  A    between atoms: C_6  and  C_9
REMARK    6  A    between atoms: C_9  and  C_10
REMARK    7  A    between atoms: C_17  and  C_18
REMARK    8  A    between atoms: C_18  and  N_19
REMARK    9  A    between atoms: C_18  and  C_23
REMARK   10  A    between atoms: C_23  and  C_26
REMARK   11  A    between atoms: C_26  and  O_27
REMARK                            x       y       z     vdW  Elec       q    Type
REMARK                         _______ _______ _______ _____ _____    ______ ____
ROOT
ATOM      1  C   UNL     1      34.270 -17.222 -23.061  0.00  0.00    -0.028 C 
ATOM      2  C   UNL     1      34.385 -17.216 -21.717  0.00  0.00    -0.026 C 
ATOM      3  C   UNL     1      34.822 -16.041 -20.886  0.00  0.00    +0.031 C 
ENDROOT
BRANCH   1   4
ATOM      4  C   UNL     1      34.608 -16.107 -24.029  0.00  0.00    +0.049 C 
ATOM      5  C   UNL     1      35.001 -16.707 -25.384  0.00  0.00    +0.007 C 
BRANCH   4   6
ATOM      6  C   UNL     1      33.461 -15.076 -24.173  0.00  0.00    +0.124 C 
BRANCH   6   7
ATOM      7  O   UNL     1      32.906 -15.190 -25.487  0.00  0.00    -0.353 OA
ATOM      8  C   UNL     1      33.023 -13.970 -26.199  0.00  0.00    +0.174 C 
ENDBRANCH   6   7
BRANCH   6   9
ATOM      9  C   UNL     1      33.875 -13.610 -23.955  0.00  0.00    +0.056 C 
BRANCH   9  10
ATOM     10  C   UNL     1      33.020 -12.931 -22.908  0.00  0.00    -0.020 C 
ATOM     11  C   UNL     1      32.632 -11.617 -23.102  0.00  0.00    -0.004 C 
ATOM     12  C   UNL     1      32.644 -13.638 -21.778  0.00  0.00    -0.004 C 
ATOM     13  C   UNL     1      31.843 -10.989 -22.137  0.00  0.00    -0.000 C 
ATOM     14  C   UNL     1      31.856 -13.010 -20.813  0.00  0.00    -0.000 C 
ATOM     15  C   UNL     1      31.457 -11.686 -20.993  0.00  0.00    -0.000 C 
ENDBRANCH   9  10
ENDBRANCH   6   9
ENDBRANCH   4   6
ENDBRANCH   1   4
BRANCH   2  16
ATOM     16  C   UNL     1      34.017 -18.382 -20.921  0.00  0.00    -0.011 C 
ATOM     17  C   UNL     1      34.184 -19.659 -21.303  0.00  0.00    -0.048 C 
BRANCH  17  18
ATOM     18  C   UNL     1      33.814 -20.844 -20.439  0.00  0.00    -0.032 C 
BRANCH  18  19
ATOM     19  N   UNL     1      32.549 -20.549 -19.753  0.00  0.00    +0.385 N 
ATOM     20  H   UNL     1      31.807 -20.435 -20.443  0.00  0.00    -0.089 HD
ATOM     21  H   UNL     1      32.647 -19.688 -19.214  0.00  0.00    -0.089 HD
ATOM     22  H   UNL     1      32.314 -21.317 -19.125  0.00  0.00    -0.089 HD
ENDBRANCH  18  19
BRANCH  18  23
ATOM     23  C   UNL     1      34.943 -21.151 -19.419  0.00  0.00    +0.083 C 
ATOM     24  C   UNL     1      36.329 -21.262 -20.060  0.00  0.00    +0.010 C 
BRANCH  23  26
ATOM     25  O   UNL     1      35.053 -22.727 -17.561  0.00  0.00    -0.250 OA
ATOM     26  C   UNL     1      34.679 -22.469 -18.697  0.00  0.00    +0.311 C 
BRANCH  26  27
ATOM     27  O   UNL     1      33.940 -23.329 -19.443  0.00  0.00    -0.480 OA
ATOM     28  H   UNL     1      34.361 -24.024 -19.912  0.00  0.00    +0.295 HD
ENDBRANCH  26  27
ENDBRANCH  23  26
ENDBRANCH  18  23
ENDBRANCH  17  18
ENDBRANCH   2  16
TORSDOF 11
ENDMDL
MODEL 9
REMARK VINA RESULT:      -8.5      3.111      5.464
REMARK  Name = 5288801
REMARK  11 active torsions:
REMARK  status: ('A' for Active; 'I' for Inactive)
REMARK    1  A    between atoms: C_1  and  C_4
REMARK    2  A    between atoms: C_2  and  C_16
REMARK    3  A    between atoms: C_4  and  C_6
REMARK    4  A    between atoms: C_6  and  O_7
REMARK    5  A    between atoms: C_6  and  C_9
REMARK    6  A    between atoms: C_9  and  C_10
REMARK    7  A    between atoms: C_17  and  C_18
REMARK    8  A    between atoms: C_18  and  N_19
REMARK    9  A    between atoms: C_18  and  C_23
REMARK   10  A    between atoms: C_23  and  C_26
REMARK   11  A    between atoms: C_26  and  O_27
REMARK                            x       y       z     vdW  Elec       q    Type
REMARK                         _______ _______ _______ _____ _____    ______ ____
ROOT
ATOM      1  C   UNL     1      34.433 -16.958 -22.612  0.00  0.00    -0.028 C 
ATOM      2  C   UNL     1      34.561 -18.162 -23.205  0.00  0.00    -0.026 C 
ATOM      3  C   UNL     1      34.985 -18.391 -24.630  0.00  0.00    +0.031 C 
ENDROOT
BRANCH   1   4
ATOM      4  C   UNL     1      34.614 -15.590 -23.237  0.00  0.00    +0.049 C 
ATOM      5  C   UNL     1      33.885 -15.543 -24.585  0.00  0.00    +0.007 C 
BRANCH   4   6
ATOM      6  C   UNL     1      34.157 -14.443 -22.301  0.00  0.00    +0.124 C 
BRANCH   6   7
ATOM      7  O   UNL     1      34.218 -14.906 -20.947  0.00  0.00    -0.353 OA
ATOM      8  C   UNL     1      32.936 -14.884 -20.342  0.00  0.00    +0.174 C 
ENDBRANCH   6   7
BRANCH   6   9
ATOM      9  C   UNL     1      32.735 -13.919 -22.563  0.00  0.00    +0.056 C 
BRANCH   9  10
ATOM     10  C   UNL     1      32.727 -12.444 -22.893  0.00  0.00    -0.020 C 
ATOM     11  C   UNL     1      31.854 -11.605 -22.221  0.00  0.00    -0.004 C 
ATOM     12  C   UNL     1      33.593 -11.962 -23.860  0.00  0.00    -0.004 C 
ATOM     13  C   UNL     1      31.847 -10.243 -22.525  0.00  0.00    -0.000 C 
ATOM     14  C   UNL     1      33.585 -10.600 -24.164  0.00  0.00    -0.000 C 
ATOM     15  C   UNL     1      32.711  -9.742 -23.497  0.00  0.00    -0.000 C 
ENDBRANCH   9  10
ENDBRANCH   6   9
ENDBRANCH   4   6
ENDBRANCH   1   4
BRANCH   2  16
ATOM     16  C   UNL     1      34.349 -19.398 -22.460  0.00  0.00    -0.011 C 
ATOM     17  C   UNL     1      34.165 -19.475 -21.132  0.00  0.00    -0.048 C 
BRANCH  17  18
ATOM     18  C   UNL     1      33.922 -20.774 -20.395  0.00  0.00    -0.032 C 
BRANCH  18  19
ATOM     19  N   UNL     1      32.666 -20.660 -19.643  0.00  0.00    +0.385 N 
ATOM     20  H   UNL     1      32.672 -21.324 -18.869  0.00  0.00    -0.089 HD
ATOM     21  H   UNL     1      31.879 -20.865 -20.261  0.00  0.00    -0.089 HD
ATOM     22  H   UNL     1      32.572 -19.712 -19.278  0.00  0.00    -0.089 HD
ENDBRANCH  18  19
BRANCH  18  23
ATOM     23  C   UNL     1      35.111 -21.097 -19.450  0.00  0.00    +0.083 C 
ATOM     24  C   UNL     1      36.449 -21.238 -20.181  0.00  0.00    +0.010 C 
BRANCH  23  26
ATOM     25  O   UNL     1      35.295 -22.657 -17.584  0.00  0.00    -0.250 OA
ATOM     26  C   UNL     1      34.870 -22.406 -18.705  0.00  0.00    +0.311 C 
BRANCH  26  27
ATOM     27  O   UNL     1      34.091 -23.267 -19.407  0.00  0.00    -0.480 OA
ATOM     28  H   UNL     1      33.157 -23.192 -19.370  0.00  0.00    +0.295 HD
ENDBRANCH  26  27
ENDBRANCH  23  26
ENDBRANCH  18  23
ENDBRANCH  17  18
ENDBRANCH   2  16
TORSDOF 11
ENDMDL
