MODEL 1
REMARK VINA RESULT:     -10.7      0.000      0.000
REMARK  Name = 9869229
REMARK  8 active torsions:
REMARK  status: ('A' for Active; 'I' for Inactive)
REMARK    1  A    between atoms: N_1  and  C_23
REMARK    2  A    between atoms: C_7  and  C_13
REMARK    3  A    between atoms: N_12  and  S_15
REMARK    4  A    between atoms: S_15  and  C_18
REMARK    5  A    between atoms: C_18  and  C_19
REMARK    6  A    between atoms: C_19  and  C_20
REMARK    7  A    between atoms: C_20  and  C_21
REMARK    8  A    between atoms: C_23  and  C_26
REMARK                            x       y       z     vdW  Elec       q    Type
REMARK                         _______ _______ _______ _____ _____    ______ ____
ROOT
ATOM      1  N   UNL     1      34.865 -17.008 -23.346  0.00  0.00    -0.260 N 
ATOM      2  N   UNL     1      34.322 -17.465 -25.452  0.00  0.00    -0.394 NA
ATOM      3  C   UNL     1      34.185 -15.905 -23.795  0.00  0.00    +0.080 C 
ATOM      4  C   UNL     1      33.857 -16.215 -25.112  0.00  0.00    +0.128 C 
ATOM      5  C   UNL     1      34.921 -17.912 -24.371  0.00  0.00    +0.164 C 
ATOM      6  C   UNL     1      33.840 -14.701 -23.182  0.00  0.00    +0.021 C 
ATOM      7  C   UNL     1      33.136 -13.807 -23.970  0.00  0.00    +0.052 C 
ATOM      8  C   UNL     1      33.142 -15.279 -25.878  0.00  0.00    +0.086 C 
ATOM      9  C   UNL     1      32.784 -14.062 -25.283  0.00  0.00    -0.014 C 
ATOM     10  C   UNL     1      35.588 -19.222 -24.229  0.00  0.00    +0.084 C 
ENDROOT
BRANCH   7  13
ATOM     11  O   UNL     1      31.931 -12.459 -22.456  0.00  0.00    -0.269 OA
ATOM     12  N   UNL     1      33.356 -11.349 -23.949  0.00  0.00    -0.185 N 
ATOM     13  C   UNL     1      32.740 -12.506 -23.375  0.00  0.00    +0.264 C 
ATOM     14  H   UNL     1      33.992 -11.488 -24.688  0.00  0.00    +0.176 HD
BRANCH  12  15
ATOM     15  S   UNL     1      33.066  -9.737 -23.442  0.00  0.00    +0.056 S 
ATOM     16  O   UNL     1      31.979  -9.165 -24.216  0.00  0.00    -0.154 OA
ATOM     17  O   UNL     1      33.031  -9.714 -21.989  0.00  0.00    -0.154 OA
BRANCH  15  18
ATOM     18  C   UNL     1      34.576  -8.982 -23.958  0.00  0.00    +0.172 C 
BRANCH  18  19
ATOM     19  C   UNL     1      34.599  -7.500 -23.611  0.00  0.00    +0.027 C 
BRANCH  19  20
ATOM     20  C   UNL     1      34.378  -6.591 -24.821  0.00  0.00    +0.002 C 
BRANCH  20  21
ATOM     21  C   UNL     1      33.008  -5.911 -24.825  0.00  0.00    +0.000 C 
ATOM     22  C   UNL     1      32.372  -5.936 -23.443  0.00  0.00    +0.000 C 
ENDBRANCH  20  21
ENDBRANCH  19  20
ENDBRANCH  18  19
ENDBRANCH  15  18
ENDBRANCH  12  15
ENDBRANCH   7  13
BRANCH   1  23
ATOM     23  C   UNL     1      35.422 -17.181 -22.023  0.00  0.00    +0.125 C 
BRANCH  23  26
ATOM     24 CL   UNL     1      37.457 -19.260 -21.003  0.00  0.00    -0.082 Cl
ATOM     25 CL   UNL     1      33.169 -22.089 -19.397  0.00  0.00    -0.082 Cl
ATOM     26  C   UNL     1      34.888 -18.422 -21.360  0.00  0.00    +0.009 C 
ATOM     27  C   UNL     1      35.742 -19.405 -20.874  0.00  0.00    +0.056 C 
ATOM     28  C   UNL     1      33.509 -18.559 -21.247  0.00  0.00    -0.001 C 
ATOM     29  C   UNL     1      35.209 -20.541 -20.266  0.00  0.00    +0.023 C 
ATOM     30  C   UNL     1      32.977 -19.696 -20.639  0.00  0.00    +0.011 C 
ATOM     31  C   UNL     1      33.828 -20.686 -20.148  0.00  0.00    +0.058 C 
ENDBRANCH  23  26
ENDBRANCH   1  23
TORSDOF 8
ENDMDL
MODEL 2
REMARK VINA RESULT:     -10.0      6.823     10.166
REMARK  Name = 9869229
REMARK  8 active torsions:
REMARK  status: ('A' for Active; 'I' for Inactive)
REMARK    1  A    between atoms: N_1  and  C_23
REMARK    2  A    between atoms: C_7  and  C_13
REMARK    3  A    between atoms: N_12  and  S_15
REMARK    4  A    between atoms: S_15  and  C_18
REMARK    5  A    between atoms: C_18  and  C_19
REMARK    6  A    between atoms: C_19  and  C_20
REMARK    7  A    between atoms: C_20  and  C_21
REMARK    8  A    between atoms: C_23  and  C_26
REMARK                            x       y       z     vdW  Elec       q    Type
REMARK                         _______ _______ _______ _____ _____    ______ ____
ROOT
ATOM      1  N   UNL     1      35.314 -23.039 -15.032  0.00  0.00    -0.260 N 
ATOM      2  N   UNL     1      33.419 -24.135 -15.420  0.00  0.00    -0.394 NA
ATOM      3  C   UNL     1      35.003 -22.780 -16.343  0.00  0.00    +0.080 C 
ATOM      4  C   UNL     1      33.816 -23.475 -16.560  0.00  0.00    +0.128 C 
ATOM      5  C   UNL     1      34.338 -23.852 -14.524  0.00  0.00    +0.164 C 
ATOM      6  C   UNL     1      35.638 -22.021 -17.326  0.00  0.00    +0.021 C 
ATOM      7  C   UNL     1      35.012 -21.994 -18.560  0.00  0.00    +0.052 C 
ATOM      8  C   UNL     1      33.213 -23.421 -17.828  0.00  0.00    +0.086 C 
ATOM      9  C   UNL     1      33.833 -22.665 -18.831  0.00  0.00    -0.014 C 
ATOM     10  C   UNL     1      34.361 -24.329 -13.126  0.00  0.00    +0.084 C 
ENDROOT
BRANCH   7  13
ATOM     11  O   UNL     1      36.781 -21.445 -20.019  0.00  0.00    -0.269 OA
ATOM     12  N   UNL     1      34.827 -20.166 -20.207  0.00  0.00    -0.185 N 
ATOM     13  C   UNL     1      35.639 -21.204 -19.649  0.00  0.00    +0.264 C 
ATOM     14  H   UNL     1      33.921 -20.046 -19.840  0.00  0.00    +0.176 HD
BRANCH  12  15
ATOM     15  S   UNL     1      35.319 -19.116 -21.470  0.00  0.00    +0.056 S 
ATOM     16  O   UNL     1      36.678 -18.660 -21.231  0.00  0.00    -0.154 OA
ATOM     17  O   UNL     1      34.957 -19.725 -22.739  0.00  0.00    -0.154 OA
BRANCH  15  18
ATOM     18  C   UNL     1      34.219 -17.764 -21.186  0.00  0.00    +0.172 C 
BRANCH  18  19
ATOM     19  C   UNL     1      34.893 -16.433 -21.482  0.00  0.00    +0.027 C 
BRANCH  19  20
ATOM     20  C   UNL     1      34.451 -15.308 -20.544  0.00  0.00    +0.002 C 
BRANCH  20  21
ATOM     21  C   UNL     1      32.936 -15.105 -20.515  0.00  0.00    +0.000 C 
ATOM     22  C   UNL     1      32.472 -14.223 -21.665  0.00  0.00    +0.000 C 
ENDBRANCH  20  21
ENDBRANCH  19  20
ENDBRANCH  18  19
ENDBRANCH  15  18
ENDBRANCH  12  15
ENDBRANCH   7  13
BRANCH   1  23
ATOM     23  C   UNL     1      36.467 -22.540 -14.320  0.00  0.00    +0.125 C 
BRANCH  23  26
ATOM     24 CL   UNL     1      37.194 -23.693 -11.555  0.00  0.00    -0.082 Cl
ATOM     25 CL   UNL     1      40.844 -26.649 -14.183  0.00  0.00    -0.082 Cl
ATOM     26  C   UNL     1      37.561 -23.573 -14.253  0.00  0.00    +0.009 C 
ATOM     27  C   UNL     1      37.945 -24.139 -13.043  0.00  0.00    +0.056 C 
ATOM     28  C   UNL     1      38.179 -23.945 -15.440  0.00  0.00    -0.001 C 
ATOM     29  C   UNL     1      38.962 -25.093 -13.022  0.00  0.00    +0.023 C 
ATOM     30  C   UNL     1      39.197 -24.898 -15.418  0.00  0.00    +0.011 C 
ATOM     31  C   UNL     1      39.588 -25.472 -14.209  0.00  0.00    +0.058 C 
ENDBRANCH  23  26
ENDBRANCH   1  23
TORSDOF 8
ENDMDL
MODEL 3
REMARK VINA RESULT:      -9.7      6.794     10.290
REMARK  Name = 9869229
REMARK  8 active torsions:
REMARK  status: ('A' for Active; 'I' for Inactive)
REMARK    1  A    between atoms: N_1  and  C_23
REMARK    2  A    between atoms: C_7  and  C_13
REMARK    3  A    between atoms: N_12  and  S_15
REMARK    4  A    between atoms: S_15  and  C_18
REMARK    5  A    between atoms: C_18  and  C_19
REMARK    6  A    between atoms: C_19  and  C_20
REMARK    7  A    between atoms: C_20  and  C_21
REMARK    8  A    between atoms: C_23  and  C_26
REMARK                            x       y       z     vdW  Elec       q    Type
REMARK                         _______ _______ _______ _____ _____    ______ ____
ROOT
ATOM      1  N   UNL     1      35.349 -23.032 -15.034  0.00  0.00    -0.260 N 
ATOM      2  N   UNL     1      33.450 -24.123 -15.409  0.00  0.00    -0.394 NA
ATOM      3  C   UNL     1      35.034 -22.777 -16.344  0.00  0.00    +0.080 C 
ATOM      4  C   UNL     1      33.844 -23.469 -16.554  0.00  0.00    +0.128 C 
ATOM      5  C   UNL     1      34.374 -23.840 -14.519  0.00  0.00    +0.164 C 
ATOM      6  C   UNL     1      35.667 -22.024 -17.332  0.00  0.00    +0.021 C 
ATOM      7  C   UNL     1      35.036 -21.999 -18.565  0.00  0.00    +0.052 C 
ATOM      8  C   UNL     1      33.236 -23.418 -17.820  0.00  0.00    +0.086 C 
ATOM      9  C   UNL     1      33.855 -22.667 -18.828  0.00  0.00    -0.014 C 
ATOM     10  C   UNL     1      34.401 -24.312 -13.119  0.00  0.00    +0.084 C 
ENDROOT
BRANCH   7  13
ATOM     11  O   UNL     1      36.798 -21.467 -20.039  0.00  0.00    -0.269 OA
ATOM     12  N   UNL     1      34.854 -20.170 -20.210  0.00  0.00    -0.185 N 
ATOM     13  C   UNL     1      35.661 -21.215 -19.659  0.00  0.00    +0.264 C 
ATOM     14  H   UNL     1      33.952 -20.042 -19.835  0.00  0.00    +0.176 HD
BRANCH  12  15
ATOM     15  S   UNL     1      35.345 -19.125 -21.478  0.00  0.00    +0.056 S 
ATOM     16  O   UNL     1      36.701 -18.663 -21.239  0.00  0.00    -0.154 OA
ATOM     17  O   UNL     1      34.986 -19.741 -22.744  0.00  0.00    -0.154 OA
BRANCH  15  18
ATOM     18  C   UNL     1      34.240 -17.775 -21.202  0.00  0.00    +0.172 C 
BRANCH  18  19
ATOM     19  C   UNL     1      34.844 -16.462 -21.679  0.00  0.00    +0.027 C 
BRANCH  19  20
ATOM     20  C   UNL     1      34.241 -15.962 -22.993  0.00  0.00    +0.002 C 
BRANCH  20  21
ATOM     21  C   UNL     1      35.057 -16.358 -24.224  0.00  0.00    +0.000 C 
ATOM     22  C   UNL     1      34.282 -17.314 -25.119  0.00  0.00    +0.000 C 
ENDBRANCH  20  21
ENDBRANCH  19  20
ENDBRANCH  18  19
ENDBRANCH  15  18
ENDBRANCH  12  15
ENDBRANCH   7  13
BRANCH   1  23
ATOM     23  C   UNL     1      36.508 -22.534 -14.328  0.00  0.00    +0.125 C 
BRANCH  23  26
ATOM     24 CL   UNL     1      37.211 -23.684 -11.556  0.00  0.00    -0.082 Cl
ATOM     25 CL   UNL     1      40.858 -26.670 -14.155  0.00  0.00    -0.082 Cl
ATOM     26  C   UNL     1      37.594 -23.573 -14.252  0.00  0.00    +0.009 C 
ATOM     27  C   UNL     1      37.967 -24.138 -13.039  0.00  0.00    +0.056 C 
ATOM     28  C   UNL     1      38.217 -23.952 -15.435  0.00  0.00    -0.001 C 
ATOM     29  C   UNL     1      38.979 -25.098 -13.009  0.00  0.00    +0.023 C 
ATOM     30  C   UNL     1      39.228 -24.911 -15.404  0.00  0.00    +0.011 C 
ATOM     31  C   UNL     1      39.609 -25.485 -14.191  0.00  0.00    +0.058 C 
ENDBRANCH  23  26
ENDBRANCH   1  23
TORSDOF 8
ENDMDL
MODEL 4
REMARK VINA RESULT:      -9.5      4.690      9.700
REMARK  Name = 9869229
REMARK  8 active torsions:
REMARK  status: ('A' for Active; 'I' for Inactive)
REMARK    1  A    between atoms: N_1  and  C_23
REMARK    2  A    between atoms: C_7  and  C_13
REMARK    3  A    between atoms: N_12  and  S_15
REMARK    4  A    between atoms: S_15  and  C_18
REMARK    5  A    between atoms: C_18  and  C_19
REMARK    6  A    between atoms: C_19  and  C_20
REMARK    7  A    between atoms: C_20  and  C_21
REMARK    8  A    between atoms: C_23  and  C_26
REMARK                            x       y       z     vdW  Elec       q    Type
REMARK                         _______ _______ _______ _____ _____    ______ ____
ROOT
ATOM      1  N   UNL     1      31.490 -11.238 -21.593  0.00  0.00    -0.260 N 
ATOM      2  N   UNL     1      31.997 -12.098 -19.608  0.00  0.00    -0.394 NA
ATOM      3  C   UNL     1      32.078 -12.448 -21.858  0.00  0.00    +0.080 C 
ATOM      4  C   UNL     1      32.385 -12.965 -20.603  0.00  0.00    +0.128 C 
ATOM      5  C   UNL     1      31.464 -11.074 -20.236  0.00  0.00    +0.164 C 
ATOM      6  C   UNL     1      32.358 -13.114 -23.051  0.00  0.00    +0.021 C 
ATOM      7  C   UNL     1      32.973 -14.347 -22.920  0.00  0.00    +0.052 C 
ATOM      8  C   UNL     1      33.009 -14.221 -20.513  0.00  0.00    +0.086 C 
ATOM      9  C   UNL     1      33.301 -14.908 -21.699  0.00  0.00    -0.014 C 
ATOM     10  C   UNL     1      30.895  -9.868 -19.600  0.00  0.00    +0.084 C 
ENDROOT
BRANCH   7  13
ATOM     11  O   UNL     1      33.072 -14.629 -25.259  0.00  0.00    -0.269 OA
ATOM     12  N   UNL     1      33.872 -16.401 -23.950  0.00  0.00    -0.185 N 
ATOM     13  C   UNL     1      33.298 -15.106 -24.154  0.00  0.00    +0.264 C 
ATOM     14  H   UNL     1      34.013 -16.699 -23.022  0.00  0.00    +0.176 HD
BRANCH  12  15
ATOM     15  S   UNL     1      34.334 -17.471 -25.208  0.00  0.00    +0.056 S 
ATOM     16  O   UNL     1      33.151 -17.980 -25.881  0.00  0.00    -0.154 OA
ATOM     17  O   UNL     1      35.406 -16.849 -25.968  0.00  0.00    -0.154 OA
BRANCH  15  18
ATOM     18  C   UNL     1      35.036 -18.778 -24.251  0.00  0.00    +0.172 C 
BRANCH  18  19
ATOM     19  C   UNL     1      35.545 -18.268 -22.911  0.00  0.00    +0.027 C 
BRANCH  19  20
ATOM     20  C   UNL     1      35.236 -19.211 -21.747  0.00  0.00    +0.002 C 
BRANCH  20  21
ATOM     21  C   UNL     1      33.916 -18.892 -21.044  0.00  0.00    +0.000 C 
ATOM     22  C   UNL     1      33.201 -20.161 -20.602  0.00  0.00    +0.000 C 
ENDBRANCH  20  21
ENDBRANCH  19  20
ENDBRANCH  18  19
ENDBRANCH  15  18
ENDBRANCH  12  15
ENDBRANCH   7  13
BRANCH   1  23
ATOM     23  C   UNL     1      30.988 -10.305 -22.576  0.00  0.00    +0.125 C 
BRANCH  23  26
ATOM     24 CL   UNL     1      30.374  -7.287 -22.699  0.00  0.00    -0.082 Cl
ATOM     25 CL   UNL     1      35.400  -6.739 -24.546  0.00  0.00    -0.082 Cl
ATOM     26  C   UNL     1      32.074  -9.385 -23.066  0.00  0.00    +0.009 C 
ATOM     27  C   UNL     1      31.874  -8.013 -23.149  0.00  0.00    +0.056 C 
ATOM     28  C   UNL     1      33.289  -9.950 -23.434  0.00  0.00    -0.001 C 
ATOM     29  C   UNL     1      32.905  -7.193 -23.608  0.00  0.00    +0.023 C 
ATOM     30  C   UNL     1      34.319  -9.130 -23.893  0.00  0.00    +0.011 C 
ATOM     31  C   UNL     1      34.127  -7.751 -23.979  0.00  0.00    +0.058 C 
ENDBRANCH  23  26
ENDBRANCH   1  23
TORSDOF 8
ENDMDL
MODEL 5
REMARK VINA RESULT:      -9.3      4.879     10.068
REMARK  Name = 9869229
REMARK  8 active torsions:
REMARK  status: ('A' for Active; 'I' for Inactive)
REMARK    1  A    between atoms: N_1  and  C_23
REMARK    2  A    between atoms: C_7  and  C_13
REMARK    3  A    between atoms: N_12  and  S_15
REMARK    4  A    between atoms: S_15  and  C_18
REMARK    5  A    between atoms: C_18  and  C_19
REMARK    6  A    between atoms: C_19  and  C_20
REMARK    7  A    between atoms: C_20  and  C_21
REMARK    8  A    between atoms: C_23  and  C_26
REMARK                            x       y       z     vdW  Elec       q    Type
REMARK                         _______ _______ _______ _____ _____    ______ ____
ROOT
ATOM      1  N   UNL     1      33.092 -14.435 -24.312  0.00  0.00    -0.260 N 
ATOM      2  N   UNL     1      33.648 -15.327 -26.270  0.00  0.00    -0.394 NA
ATOM      3  C   UNL     1      33.783 -15.579 -24.008  0.00  0.00    +0.080 C 
ATOM      4  C   UNL     1      34.120 -16.118 -25.247  0.00  0.00    +0.128 C 
ATOM      5  C   UNL     1      33.038 -14.327 -25.674  0.00  0.00    +0.164 C 
ATOM      6  C   UNL     1      34.133 -16.171 -22.795  0.00  0.00    +0.021 C 
ATOM      7  C   UNL     1      34.849 -17.352 -22.888  0.00  0.00    +0.052 C 
ATOM      8  C   UNL     1      34.848 -17.319 -25.297  0.00  0.00    +0.086 C 
ATOM      9  C   UNL     1      35.210 -17.931 -24.091  0.00  0.00    -0.014 C 
ATOM     10  C   UNL     1      32.360 -13.201 -26.348  0.00  0.00    +0.084 C 
ENDROOT
BRANCH   7  13
ATOM     11  O   UNL     1      35.313 -17.411 -20.576  0.00  0.00    -0.269 OA
ATOM     12  N   UNL     1      35.555 -19.425 -21.750  0.00  0.00    -0.185 N 
ATOM     13  C   UNL     1      35.251 -18.032 -21.630  0.00  0.00    +0.264 C 
ATOM     14  H   UNL     1      35.479 -19.835 -22.642  0.00  0.00    +0.176 HD
BRANCH  12  15
ATOM     15  S   UNL     1      36.042 -20.431 -20.449  0.00  0.00    +0.056 S 
ATOM     16  O   UNL     1      36.600 -21.668 -20.966  0.00  0.00    -0.154 OA
ATOM     17  O   UNL     1      36.789 -19.623 -19.500  0.00  0.00    -0.154 OA
BRANCH  15  18
ATOM     18  C   UNL     1      34.467 -20.785 -19.735  0.00  0.00    +0.172 C 
BRANCH  18  19
ATOM     19  C   UNL     1      34.453 -22.161 -19.085  0.00  0.00    +0.027 C 
BRANCH  19  20
ATOM     20  C   UNL     1      33.132 -22.487 -18.386  0.00  0.00    +0.002 C 
BRANCH  20  21
ATOM     21  C   UNL     1      33.313 -23.256 -17.077  0.00  0.00    +0.000 C 
ATOM     22  C   UNL     1      32.005 -23.353 -16.305  0.00  0.00    +0.000 C 
ENDBRANCH  20  21
ENDBRANCH  19  20
ENDBRANCH  18  19
ENDBRANCH  15  18
ENDBRANCH  12  15
ENDBRANCH   7  13
BRANCH   1  23
ATOM     23  C   UNL     1      32.524 -13.509 -23.358  0.00  0.00    +0.125 C 
BRANCH  23  26
ATOM     24 CL   UNL     1      31.008 -11.172 -22.038  0.00  0.00    -0.082 Cl
ATOM     25 CL   UNL     1      34.798  -8.014 -24.193  0.00  0.00    -0.082 Cl
ATOM     26  C   UNL     1      33.069 -12.119 -23.549  0.00  0.00    +0.009 C 
ATOM     27  C   UNL     1      32.443 -11.015 -22.985  0.00  0.00    +0.056 C 
ATOM     28  C   UNL     1      34.223 -11.971 -24.310  0.00  0.00    -0.001 C 
ATOM     29  C   UNL     1      32.978  -9.742 -23.185  0.00  0.00    +0.023 C 
ATOM     30  C   UNL     1      34.758 -10.699 -24.509  0.00  0.00    +0.011 C 
ATOM     31  C   UNL     1      34.136  -9.585 -23.946  0.00  0.00    +0.058 C 
ENDBRANCH  23  26
ENDBRANCH   1  23
TORSDOF 8
ENDMDL
MODEL 6
REMARK VINA RESULT:      -9.2      5.251      9.814
REMARK  Name = 9869229
REMARK  8 active torsions:
REMARK  status: ('A' for Active; 'I' for Inactive)
REMARK    1  A    between atoms: N_1  and  C_23
REMARK    2  A    between atoms: C_7  and  C_13
REMARK    3  A    between atoms: N_12  and  S_15
REMARK    4  A    between atoms: S_15  and  C_18
REMARK    5  A    between atoms: C_18  and  C_19
REMARK    6  A    between atoms: C_19  and  C_20
REMARK    7  A    between atoms: C_20  and  C_21
REMARK    8  A    between atoms: C_23  and  C_26
REMARK                            x       y       z     vdW  Elec       q    Type
REMARK                         _______ _______ _______ _____ _____    ______ ____
ROOT
ATOM      1  N   UNL     1      34.227 -15.070 -24.684  0.00  0.00    -0.260 N 
ATOM      2  N   UNL     1      33.195 -16.312 -26.210  0.00  0.00    -0.394 NA
ATOM      3  C   UNL     1      34.451 -16.370 -24.308  0.00  0.00    +0.080 C 
ATOM      4  C   UNL     1      33.796 -17.126 -25.277  0.00  0.00    +0.128 C 
ATOM      5  C   UNL     1      33.473 -15.087 -25.824  0.00  0.00    +0.164 C 
ATOM      6  C   UNL     1      35.148 -16.932 -23.239  0.00  0.00    +0.021 C 
ATOM      7  C   UNL     1      35.155 -18.315 -23.188  0.00  0.00    +0.052 C 
ATOM      8  C   UNL     1      33.828 -18.528 -25.189  0.00  0.00    +0.086 C 
ATOM      9  C   UNL     1      34.522 -19.115 -24.123  0.00  0.00    -0.014 C 
ATOM     10  C   UNL     1      33.046 -13.847 -26.504  0.00  0.00    +0.084 C 
ENDROOT
BRANCH   7  13
ATOM     11  O   UNL     1      37.002 -18.603 -21.750  0.00  0.00    -0.269 OA
ATOM     12  N   UNL     1      35.185 -20.048 -21.432  0.00  0.00    -0.185 N 
ATOM     13  C   UNL     1      35.880 -18.974 -22.073  0.00  0.00    +0.264 C 
ATOM     14  H   UNL     1      34.287 -20.276 -21.765  0.00  0.00    +0.176 HD
BRANCH  12  15
ATOM     15  S   UNL     1      35.804 -20.966 -20.123  0.00  0.00    +0.056 S 
ATOM     16  O   UNL     1      36.433 -22.176 -20.624  0.00  0.00    -0.154 OA
ATOM     17  O   UNL     1      36.528 -20.070 -19.236  0.00  0.00    -0.154 OA
BRANCH  15  18
ATOM     18  C   UNL     1      34.294 -21.413 -19.326  0.00  0.00    +0.172 C 
BRANCH  18  19
ATOM     19  C   UNL     1      34.534 -22.427 -18.217  0.00  0.00    +0.027 C 
BRANCH  19  20
ATOM     20  C   UNL     1      33.246 -23.052 -17.678  0.00  0.00    +0.002 C 
BRANCH  20  21
ATOM     21  C   UNL     1      33.307 -23.374 -16.185  0.00  0.00    +0.000 C 
ATOM     22  C   UNL     1      31.921 -23.365 -15.558  0.00  0.00    +0.000 C 
ENDBRANCH  20  21
ENDBRANCH  19  20
ENDBRANCH  18  19
ENDBRANCH  15  18
ENDBRANCH  12  15
ENDBRANCH   7  13
BRANCH   1  23
ATOM     23  C   UNL     1      34.706 -13.894 -23.993  0.00  0.00    +0.125 C 
BRANCH  23  26
ATOM     24 CL   UNL     1      33.969 -10.984 -24.693  0.00  0.00    -0.082 Cl
ATOM     25 CL   UNL     1      30.309 -11.381 -20.766  0.00  0.00    -0.082 Cl
ATOM     26  C   UNL     1      33.607 -13.236 -23.202  0.00  0.00    +0.009 C 
ATOM     27  C   UNL     1      33.218 -11.927 -23.458  0.00  0.00    +0.056 C 
ATOM     28  C   UNL     1      32.990 -13.978 -22.202  0.00  0.00    -0.001 C 
ATOM     29  C   UNL     1      32.195 -11.352 -22.703  0.00  0.00    +0.023 C 
ATOM     30  C   UNL     1      31.969 -13.403 -21.447  0.00  0.00    +0.011 C 
ATOM     31  C   UNL     1      31.571 -12.090 -21.699  0.00  0.00    +0.058 C 
ENDBRANCH  23  26
ENDBRANCH   1  23
TORSDOF 8
ENDMDL
MODEL 7
REMARK VINA RESULT:      -9.1      7.723     11.645
REMARK  Name = 9869229
REMARK  8 active torsions:
REMARK  status: ('A' for Active; 'I' for Inactive)
REMARK    1  A    between atoms: N_1  and  C_23
REMARK    2  A    between atoms: C_7  and  C_13
REMARK    3  A    between atoms: N_12  and  S_15
REMARK    4  A    between atoms: S_15  and  C_18
REMARK    5  A    between atoms: C_18  and  C_19
REMARK    6  A    between atoms: C_19  and  C_20
REMARK    7  A    between atoms: C_20  and  C_21
REMARK    8  A    between atoms: C_23  and  C_26
REMARK                            x       y       z     vdW  Elec       q    Type
REMARK                         _______ _______ _______ _____ _____    ______ ____
ROOT
ATOM      1  N   UNL     1      35.357 -23.424 -13.587  0.00  0.00    -0.260 N 
ATOM      2  N   UNL     1      33.445 -24.456 -13.118  0.00  0.00    -0.394 NA
ATOM      3  C   UNL     1      34.635 -23.404 -14.753  0.00  0.00    +0.080 C 
ATOM      4  C   UNL     1      33.446 -24.054 -14.435  0.00  0.00    +0.128 C 
ATOM      5  C   UNL     1      34.604 -24.062 -12.640  0.00  0.00    +0.164 C 
ATOM      6  C   UNL     1      34.912 -22.889 -16.020  0.00  0.00    +0.021 C 
ATOM      7  C   UNL     1      33.918 -23.062 -16.968  0.00  0.00    +0.052 C 
ATOM      8  C   UNL     1      32.463 -24.209 -15.426  0.00  0.00    +0.086 C 
ATOM      9  C   UNL     1      32.719 -23.699 -16.706  0.00  0.00    -0.014 C 
ATOM     10  C   UNL     1      35.084 -24.261 -11.257  0.00  0.00    +0.084 C 
ENDROOT
BRANCH   7  13
ATOM     11  O   UNL     1      33.410 -22.845 -19.261  0.00  0.00    -0.269 OA
ATOM     12  N   UNL     1      35.284 -21.673 -18.481  0.00  0.00    -0.185 N 
ATOM     13  C   UNL     1      34.152 -22.537 -18.336  0.00  0.00    +0.264 C 
ATOM     14  H   UNL     1      35.824 -21.486 -17.679  0.00  0.00    +0.176 HD
BRANCH  12  15
ATOM     15  S   UNL     1      35.767 -20.940 -19.954  0.00  0.00    +0.056 S 
ATOM     16  O   UNL     1      36.713 -19.870 -19.685  0.00  0.00    -0.154 OA
ATOM     17  O   UNL     1      36.091 -21.991 -20.905  0.00  0.00    -0.154 OA
BRANCH  15  18
ATOM     18  C   UNL     1      34.234 -20.217 -20.449  0.00  0.00    +0.172 C 
BRANCH  18  19
ATOM     19  C   UNL     1      34.459 -18.976 -21.300  0.00  0.00    +0.027 C 
BRANCH  19  20
ATOM     20  C   UNL     1      34.597 -19.282 -22.792  0.00  0.00    +0.002 C 
BRANCH  20  21
ATOM     21  C   UNL     1      35.131 -18.102 -23.605  0.00  0.00    +0.000 C 
ATOM     22  C   UNL     1      34.528 -18.073 -25.003  0.00  0.00    +0.000 C 
ENDBRANCH  20  21
ENDBRANCH  19  20
ENDBRANCH  18  19
ENDBRANCH  15  18
ENDBRANCH  12  15
ENDBRANCH   7  13
BRANCH   1  23
ATOM     23  C   UNL     1      36.677 -22.867 -13.397  0.00  0.00    +0.125 C 
BRANCH  23  26
ATOM     24 CL   UNL     1      37.986 -22.771 -16.187  0.00  0.00    -0.082 Cl
ATOM     25 CL   UNL     1      40.937 -26.950 -14.514  0.00  0.00    -0.082 Cl
ATOM     26  C   UNL     1      37.749 -23.878 -13.707  0.00  0.00    +0.009 C 
ATOM     27  C   UNL     1      38.385 -23.898 -14.942  0.00  0.00    +0.056 C 
ATOM     28  C   UNL     1      38.085 -24.796 -12.719  0.00  0.00    -0.001 C 
ATOM     29  C   UNL     1      39.374 -24.850 -15.192  0.00  0.00    +0.023 C 
ATOM     30  C   UNL     1      39.072 -25.747 -12.970  0.00  0.00    +0.011 C 
ATOM     31  C   UNL     1      39.718 -25.774 -14.206  0.00  0.00    +0.058 C 
ENDBRANCH  23  26
ENDBRANCH   1  23
TORSDOF 8
ENDMDL
MODEL 8
REMARK VINA RESULT:      -9.0      6.870     11.509
REMARK  Name = 9869229
REMARK  8 active torsions:
REMARK  status: ('A' for Active; 'I' for Inactive)
REMARK    1  A    between atoms: N_1  and  C_23
REMARK    2  A    between atoms: C_7  and  C_13
REMARK    3  A    between atoms: N_12  and  S_15
REMARK    4  A    between atoms: S_15  and  C_18
REMARK    5  A    between atoms: C_18  and  C_19
REMARK    6  A    between atoms: C_19  and  C_20
REMARK    7  A    between atoms: C_20  and  C_21
REMARK    8  A    between atoms: C_23  and  C_26
REMARK                            x       y       z     vdW  Elec       q    Type
REMARK                         _______ _______ _______ _____ _____    ______ ____
ROOT
ATOM      1  N   UNL     1      35.309 -19.973 -20.995  0.00  0.00    -0.260 N 
ATOM      2  N   UNL     1      37.290 -20.035 -19.990  0.00  0.00    -0.394 NA
ATOM      3  C   UNL     1      35.152 -20.821 -19.929  0.00  0.00    +0.080 C 
ATOM      4  C   UNL     1      36.402 -20.843 -19.317  0.00  0.00    +0.128 C 
ATOM      5  C   UNL     1      36.603 -19.529 -20.989  0.00  0.00    +0.164 C 
ATOM      6  C   UNL     1      34.057 -21.547 -19.462  0.00  0.00    +0.021 C 
ATOM      7  C   UNL     1      34.283 -22.311 -18.329  0.00  0.00    +0.052 C 
ATOM      8  C   UNL     1      36.590 -21.631 -18.170  0.00  0.00    +0.086 C 
ATOM      9  C   UNL     1      35.504 -22.370 -17.682  0.00  0.00    -0.014 C 
ATOM     10  C   UNL     1      37.118 -18.593 -22.009  0.00  0.00    +0.084 C 
ENDROOT
BRANCH   7  13
ATOM     11  O   UNL     1      33.180 -24.333 -17.822  0.00  0.00    -0.269 OA
ATOM     12  N   UNL     1      32.075 -22.353 -17.229  0.00  0.00    -0.185 N 
ATOM     13  C   UNL     1      33.157 -23.109 -17.782  0.00  0.00    +0.264 C 
ATOM     14  H   UNL     1      32.147 -21.371 -17.246  0.00  0.00    +0.176 HD
BRANCH  12  15
ATOM     15  S   UNL     1      30.662 -23.036 -16.539  0.00  0.00    +0.056 S 
ATOM     16  O   UNL     1      29.498 -22.258 -16.926  0.00  0.00    -0.154 OA
ATOM     17  O   UNL     1      30.696 -24.473 -16.754  0.00  0.00    -0.154 OA
BRANCH  15  18
ATOM     18  C   UNL     1      30.988 -22.738 -14.829  0.00  0.00    +0.172 C 
BRANCH  18  19
ATOM     19  C   UNL     1      30.918 -24.026 -14.021  0.00  0.00    +0.027 C 
BRANCH  19  20
ATOM     20  C   UNL     1      32.285 -24.673 -13.795  0.00  0.00    +0.002 C 
BRANCH  20  21
ATOM     21  C   UNL     1      33.456 -23.746 -14.123  0.00  0.00    +0.000 C 
ATOM     22  C   UNL     1      34.664 -24.531 -14.614  0.00  0.00    +0.000 C 
ENDBRANCH  20  21
ENDBRANCH  19  20
ENDBRANCH  18  19
ENDBRANCH  15  18
ENDBRANCH  12  15
ENDBRANCH   7  13
BRANCH   1  23
ATOM     23  C   UNL     1      34.288 -19.615 -21.952  0.00  0.00    +0.125 C 
BRANCH  23  26
ATOM     24 CL   UNL     1      34.702 -18.642 -24.848  0.00  0.00    -0.082 Cl
ATOM     25 CL   UNL     1      34.189 -13.676 -22.835  0.00  0.00    -0.082 Cl
ATOM     26  C   UNL     1      34.268 -18.131 -22.206  0.00  0.00    +0.009 C 
ATOM     27  C   UNL     1      34.447 -17.615 -23.484  0.00  0.00    +0.056 C 
ATOM     28  C   UNL     1      34.065 -17.287 -21.121  0.00  0.00    -0.001 C 
ATOM     29  C   UNL     1      34.423 -16.234 -23.679  0.00  0.00    +0.023 C 
ATOM     30  C   UNL     1      34.041 -15.907 -21.316  0.00  0.00    +0.011 C 
ATOM     31  C   UNL     1      34.219 -15.381 -22.595  0.00  0.00    +0.058 C 
ENDBRANCH  23  26
ENDBRANCH   1  23
TORSDOF 8
ENDMDL
MODEL 9
REMARK VINA RESULT:      -8.9      6.200      9.815
REMARK  Name = 9869229
REMARK  8 active torsions:
REMARK  status: ('A' for Active; 'I' for Inactive)
REMARK    1  A    between atoms: N_1  and  C_23
REMARK    2  A    between atoms: C_7  and  C_13
REMARK    3  A    between atoms: N_12  and  S_15
REMARK    4  A    between atoms: S_15  and  C_18
REMARK    5  A    between atoms: C_18  and  C_19
REMARK    6  A    between atoms: C_19  and  C_20
REMARK    7  A    between atoms: C_20  and  C_21
REMARK    8  A    between atoms: C_23  and  C_26
REMARK                            x       y       z     vdW  Elec       q    Type
REMARK                         _______ _______ _______ _____ _____    ______ ____
ROOT
ATOM      1  N   UNL     1      35.757 -23.987 -15.381  0.00  0.00    -0.260 N 
ATOM      2  N   UNL     1      37.653 -22.959 -14.846  0.00  0.00    -0.394 NA
ATOM      3  C   UNL     1      35.949 -23.043 -16.357  0.00  0.00    +0.080 C 
ATOM      4  C   UNL     1      37.139 -22.415 -16.001  0.00  0.00    +0.128 C 
ATOM      5  C   UNL     1      36.801 -23.898 -14.502  0.00  0.00    +0.164 C 
ATOM      6  C   UNL     1      35.206 -22.696 -17.485  0.00  0.00    +0.021 C 
ATOM      7  C   UNL     1      35.728 -21.668 -18.253  0.00  0.00    +0.052 C 
ATOM      8  C   UNL     1      37.633 -21.376 -16.807  0.00  0.00    +0.086 C 
ATOM      9  C   UNL     1      36.904 -21.010 -17.946  0.00  0.00    -0.014 C 
ATOM     10  C   UNL     1      36.911 -24.777 -13.320  0.00  0.00    +0.084 C 
ENDROOT
BRANCH   7  13
ATOM     11  O   UNL     1      34.140 -21.985 -19.968  0.00  0.00    -0.269 OA
ATOM     12  N   UNL     1      35.327 -19.965 -19.993  0.00  0.00    -0.185 N 
ATOM     13  C   UNL     1      34.983 -21.251 -19.468  0.00  0.00    +0.264 C 
ATOM     14  H   UNL     1      36.021 -19.449 -19.522  0.00  0.00    +0.176 HD
BRANCH  12  15
ATOM     15  S   UNL     1      34.614 -19.258 -21.383  0.00  0.00    +0.056 S 
ATOM     16  O   UNL     1      35.054 -19.963 -22.575  0.00  0.00    -0.154 OA
ATOM     17  O   UNL     1      33.198 -19.060 -21.122  0.00  0.00    -0.154 OA
BRANCH  15  18
ATOM     18  C   UNL     1      35.397 -17.675 -21.352  0.00  0.00    +0.172 C 
BRANCH  18  19
ATOM     19  C   UNL     1      34.404 -16.563 -21.657  0.00  0.00    +0.027 C 
BRANCH  19  20
ATOM     20  C   UNL     1      34.289 -15.530 -20.535  0.00  0.00    +0.002 C 
BRANCH  20  21
ATOM     21  C   UNL     1      32.888 -14.930 -20.406  0.00  0.00    +0.000 C 
ATOM     22  C   UNL     1      32.473 -14.211 -21.682  0.00  0.00    +0.000 C 
ENDBRANCH  20  21
ENDBRANCH  19  20
ENDBRANCH  18  19
ENDBRANCH  15  18
ENDBRANCH  12  15
ENDBRANCH   7  13
BRANCH   1  23
ATOM     23  C   UNL     1      34.647 -24.909 -15.299  0.00  0.00    +0.125 C 
BRANCH  23  26
ATOM     24 CL   UNL     1      33.792 -24.027 -12.472  0.00  0.00    -0.082 Cl
ATOM     25 CL   UNL     1      29.403 -22.018 -14.853  0.00  0.00    -0.082 Cl
ATOM     26  C   UNL     1      33.338 -24.182 -15.155  0.00  0.00    +0.009 C 
ATOM     27  C   UNL     1      32.884 -23.752 -13.914  0.00  0.00    +0.056 C 
ATOM     28  C   UNL     1      32.590 -23.952 -16.304  0.00  0.00    -0.001 C 
ATOM     29  C   UNL     1      31.665 -23.081 -13.821  0.00  0.00    +0.023 C 
ATOM     30  C   UNL     1      31.371 -23.281 -16.210  0.00  0.00    +0.011 C 
ATOM     31  C   UNL     1      30.909 -22.845 -14.968  0.00  0.00    +0.058 C 
ENDBRANCH  23  26
ENDBRANCH   1  23
TORSDOF 8
ENDMDL
