MODEL 1
REMARK VINA RESULT:      -7.6      0.000      0.000
REMARK  Name = 5193
REMARK  5 active torsions:
REMARK  status: ('A' for Active; 'I' for Inactive)
REMARK    1  A    between atoms: C_6  and  C_12
REMARK    2  A    between atoms: C_6  and  C_17
REMARK    3  A    between atoms: C_12  and  C_14
REMARK    4  A    between atoms: C_14  and  C_15
REMARK    5  A    between atoms: C_17  and  C_18
REMARK                            x       y       z     vdW  Elec       q    Type
REMARK                         _______ _______ _______ _____ _____    ______ ____
ROOT
ATOM      1  O   UNL     1      38.267 -22.367 -12.087  0.00  0.00    -0.274 OA
ATOM      2  O   UNL     1      34.576 -23.927 -14.535  0.00  0.00    -0.274 OA
ATOM      3  O   UNL     1      35.219 -25.216 -10.178  0.00  0.00    -0.252 OA
ATOM      4  N   UNL     1      36.796 -23.868 -11.167  0.00  0.00    -0.239 N 
ATOM      5  N   UNL     1      34.953 -24.648 -12.390  0.00  0.00    -0.239 N 
ATOM      6  C   UNL     1      36.780 -23.542 -13.599  0.00  0.00    +0.142 C 
ATOM      7  C   UNL     1      37.347 -23.170 -12.232  0.00  0.00    +0.237 C 
ATOM      8  C   UNL     1      35.333 -24.023 -13.568  0.00  0.00    +0.237 C 
ATOM      9  C   UNL     1      35.636 -24.632 -11.179  0.00  0.00    +0.312 C 
ATOM     10  H   UNL     1      37.280 -23.815 -10.310  0.00  0.00    +0.159 HD
ATOM     11  H   UNL     1      34.111 -25.157 -12.413  0.00  0.00    +0.159 HD
ENDROOT
BRANCH   6  12
ATOM     12  C   UNL     1      37.630 -24.707 -14.138  0.00  0.00    +0.017 C 
ATOM     13  C   UNL     1      36.728 -25.904 -14.451  0.00  0.00    +0.001 C 
BRANCH  12  14
ATOM     14  C   UNL     1      38.735 -25.134 -13.154  0.00  0.00    +0.001 C 
BRANCH  14  15
ATOM     15  C   UNL     1      39.947 -25.770 -13.838  0.00  0.00    +0.000 C 
ATOM     16  C   UNL     1      40.210 -25.143 -15.198  0.00  0.00    +0.000 C 
ENDBRANCH  14  15
ENDBRANCH  12  14
ENDBRANCH   6  12
BRANCH   6  17
ATOM     17  C   UNL     1      36.902 -22.342 -14.549  0.00  0.00    +0.043 C 
BRANCH  17  18
ATOM     18  C   UNL     1      37.448 -22.767 -15.872  0.00  0.00    -0.025 C 
ATOM     19  C   UNL     1      37.163 -22.151 -17.024  0.00  0.00    -0.005 C 
ENDBRANCH  17  18
ENDBRANCH   6  17
TORSDOF 5
ENDMDL
MODEL 2
REMARK VINA RESULT:      -7.4     16.860     18.732
REMARK  Name = 5193
REMARK  5 active torsions:
REMARK  status: ('A' for Active; 'I' for Inactive)
REMARK    1  A    between atoms: C_6  and  C_12
REMARK    2  A    between atoms: C_6  and  C_17
REMARK    3  A    between atoms: C_12  and  C_14
REMARK    4  A    between atoms: C_14  and  C_15
REMARK    5  A    between atoms: C_17  and  C_18
REMARK                            x       y       z     vdW  Elec       q    Type
REMARK                         _______ _______ _______ _____ _____    ______ ____
ROOT
ATOM      1  O   UNL     1      33.004  -7.449 -19.941  0.00  0.00    -0.274 OA
ATOM      2  O   UNL     1      31.100  -8.119 -24.180  0.00  0.00    -0.274 OA
ATOM      3  O   UNL     1      31.054 -11.457 -21.031  0.00  0.00    -0.252 OA
ATOM      4  N   UNL     1      32.117  -9.483 -20.522  0.00  0.00    -0.239 N 
ATOM      5  N   UNL     1      31.166  -9.818 -22.640  0.00  0.00    -0.239 N 
ATOM      6  C   UNL     1      32.605  -7.860 -22.297  0.00  0.00    +0.142 C 
ATOM      7  C   UNL     1      32.582  -8.208 -20.811  0.00  0.00    +0.237 C 
ATOM      8  C   UNL     1      31.542  -8.575 -23.125  0.00  0.00    +0.237 C 
ATOM      9  C   UNL     1      31.434 -10.337 -21.378  0.00  0.00    +0.312 C 
ATOM     10  H   UNL     1      32.289  -9.817 -19.611  0.00  0.00    +0.159 HD
ATOM     11  H   UNL     1      30.655 -10.394 -23.253  0.00  0.00    +0.159 HD
ENDROOT
BRANCH   6  12
ATOM     12  C   UNL     1      33.975  -8.304 -22.842  0.00  0.00    +0.017 C 
ATOM     13  C   UNL     1      34.604  -7.163 -23.646  0.00  0.00    +0.001 C 
BRANCH  12  14
ATOM     14  C   UNL     1      33.880  -9.566 -23.718  0.00  0.00    +0.001 C 
BRANCH  14  15
ATOM     15  C   UNL     1      35.074  -9.747 -24.658  0.00  0.00    +0.000 C 
ATOM     16  C   UNL     1      34.840 -10.884 -25.640  0.00  0.00    +0.000 C 
ENDBRANCH  14  15
ENDBRANCH  12  14
ENDBRANCH   6  12
BRANCH   6  17
ATOM     17  C   UNL     1      32.456  -6.342 -22.470  0.00  0.00    +0.043 C 
BRANCH  17  18
ATOM     18  C   UNL     1      31.168  -5.865 -21.886  0.00  0.00    -0.025 C 
ATOM     19  C   UNL     1      30.531  -4.764 -22.296  0.00  0.00    -0.005 C 
ENDBRANCH  17  18
ENDBRANCH   6  17
TORSDOF 5
ENDMDL
MODEL 3
REMARK VINA RESULT:      -7.4      1.149      3.589
REMARK  Name = 5193
REMARK  5 active torsions:
REMARK  status: ('A' for Active; 'I' for Inactive)
REMARK    1  A    between atoms: C_6  and  C_12
REMARK    2  A    between atoms: C_6  and  C_17
REMARK    3  A    between atoms: C_12  and  C_14
REMARK    4  A    between atoms: C_14  and  C_15
REMARK    5  A    between atoms: C_17  and  C_18
REMARK                            x       y       z     vdW  Elec       q    Type
REMARK                         _______ _______ _______ _____ _____    ______ ____
ROOT
ATOM      1  O   UNL     1      36.623 -26.242 -13.946  0.00  0.00    -0.274 OA
ATOM      2  O   UNL     1      38.685 -22.502 -11.997  0.00  0.00    -0.274 OA
ATOM      3  O   UNL     1      35.170 -24.595  -9.918  0.00  0.00    -0.252 OA
ATOM      4  N   UNL     1      35.835 -25.358 -11.982  0.00  0.00    -0.239 N 
ATOM      5  N   UNL     1      36.865 -23.489 -11.008  0.00  0.00    -0.239 N 
ATOM      6  C   UNL     1      37.357 -24.008 -13.355  0.00  0.00    +0.142 C 
ATOM      7  C   UNL     1      36.605 -25.319 -13.135  0.00  0.00    +0.237 C 
ATOM      8  C   UNL     1      37.730 -23.276 -12.071  0.00  0.00    +0.237 C 
ATOM      9  C   UNL     1      35.894 -24.479 -10.908  0.00  0.00    +0.312 C 
ATOM     10  H   UNL     1      35.177 -26.088 -11.918  0.00  0.00    +0.159 HD
ATOM     11  H   UNL     1      36.947 -22.874 -10.244  0.00  0.00    +0.159 HD
ENDROOT
BRANCH   6  12
ATOM     12  C   UNL     1      36.419 -23.079 -14.148  0.00  0.00    +0.017 C 
ATOM     13  C   UNL     1      35.134 -23.829 -14.510  0.00  0.00    +0.001 C 
BRANCH  12  14
ATOM     14  C   UNL     1      37.077 -22.530 -15.427  0.00  0.00    +0.001 C 
BRANCH  14  15
ATOM     15  C   UNL     1      36.121 -22.452 -16.619  0.00  0.00    +0.000 C 
ATOM     16  C   UNL     1      36.742 -21.688 -17.778  0.00  0.00    +0.000 C 
ENDBRANCH  14  15
ENDBRANCH  12  14
ENDBRANCH   6  12
BRANCH   6  17
ATOM     17  C   UNL     1      38.623 -24.276 -14.180  0.00  0.00    +0.043 C 
BRANCH  17  18
ATOM     18  C   UNL     1      39.427 -25.380 -13.576  0.00  0.00    -0.025 C 
ATOM     19  C   UNL     1      40.429 -25.998 -14.207  0.00  0.00    -0.005 C 
ENDBRANCH  17  18
ENDBRANCH   6  17
TORSDOF 5
ENDMDL
MODEL 4
REMARK VINA RESULT:      -7.2      2.494      4.545
REMARK  Name = 5193
REMARK  5 active torsions:
REMARK  status: ('A' for Active; 'I' for Inactive)
REMARK    1  A    between atoms: C_6  and  C_12
REMARK    2  A    between atoms: C_6  and  C_17
REMARK    3  A    between atoms: C_12  and  C_14
REMARK    4  A    between atoms: C_14  and  C_15
REMARK    5  A    between atoms: C_17  and  C_18
REMARK                            x       y       z     vdW  Elec       q    Type
REMARK                         _______ _______ _______ _____ _____    ______ ____
ROOT
ATOM      1  O   UNL     1      39.071 -24.241 -14.523  0.00  0.00    -0.274 OA
ATOM      2  O   UNL     1      34.453 -24.621 -13.767  0.00  0.00    -0.274 OA
ATOM      3  O   UNL     1      36.701 -27.790 -16.208  0.00  0.00    -0.252 OA
ATOM      4  N   UNL     1      37.868 -25.961 -15.446  0.00  0.00    -0.239 N 
ATOM      5  N   UNL     1      35.560 -26.151 -15.070  0.00  0.00    -0.239 N 
ATOM      6  C   UNL     1      36.658 -24.013 -14.572  0.00  0.00    +0.142 C 
ATOM      7  C   UNL     1      37.982 -24.734 -14.810  0.00  0.00    +0.237 C 
ATOM      8  C   UNL     1      35.461 -24.942 -14.398  0.00  0.00    +0.237 C 
ATOM      9  C   UNL     1      36.707 -26.702 -15.630  0.00  0.00    +0.312 C 
ATOM     10  H   UNL     1      38.699 -26.348 -15.806  0.00  0.00    +0.159 HD
ATOM     11  H   UNL     1      34.731 -26.674 -15.159  0.00  0.00    +0.159 HD
ENDROOT
BRANCH   6  12
ATOM     12  C   UNL     1      36.384 -23.153 -15.819  0.00  0.00    +0.017 C 
ATOM     13  C   UNL     1      37.359 -21.974 -15.858  0.00  0.00    +0.001 C 
BRANCH  12  14
ATOM     14  C   UNL     1      34.936 -22.631 -15.868  0.00  0.00    +0.001 C 
BRANCH  14  15
ATOM     15  C   UNL     1      34.192 -23.015 -17.149  0.00  0.00    +0.000 C 
ATOM     16  C   UNL     1      32.731 -23.331 -16.869  0.00  0.00    +0.000 C 
ENDBRANCH  14  15
ENDBRANCH  12  14
ENDBRANCH   6  12
BRANCH   6  17
ATOM     17  C   UNL     1      36.784 -23.101 -13.344  0.00  0.00    +0.043 C 
BRANCH  17  18
ATOM     18  C   UNL     1      37.101 -23.898 -12.122  0.00  0.00    -0.025 C 
ATOM     19  C   UNL     1      36.448 -23.767 -10.962  0.00  0.00    -0.005 C 
ENDBRANCH  17  18
ENDBRANCH   6  17
TORSDOF 5
ENDMDL
MODEL 5
REMARK VINA RESULT:      -7.1      1.450      3.794
REMARK  Name = 5193
REMARK  5 active torsions:
REMARK  status: ('A' for Active; 'I' for Inactive)
REMARK    1  A    between atoms: C_6  and  C_12
REMARK    2  A    between atoms: C_6  and  C_17
REMARK    3  A    between atoms: C_12  and  C_14
REMARK    4  A    between atoms: C_14  and  C_15
REMARK    5  A    between atoms: C_17  and  C_18
REMARK                            x       y       z     vdW  Elec       q    Type
REMARK                         _______ _______ _______ _____ _____    ______ ____
ROOT
ATOM      1  O   UNL     1      36.225 -25.905 -15.730  0.00  0.00    -0.274 OA
ATOM      2  O   UNL     1      36.407 -25.175 -11.095  0.00  0.00    -0.274 OA
ATOM      3  O   UNL     1      32.666 -24.052 -13.504  0.00  0.00    -0.252 OA
ATOM      4  N   UNL     1      34.486 -24.889 -14.632  0.00  0.00    -0.239 N 
ATOM      5  N   UNL     1      34.577 -24.523 -12.316  0.00  0.00    -0.239 N 
ATOM      6  C   UNL     1      36.659 -25.048 -13.503  0.00  0.00    +0.142 C 
ATOM      7  C   UNL     1      35.790 -25.353 -14.721  0.00  0.00    +0.237 C 
ATOM      8  C   UNL     1      35.889 -24.954 -12.190  0.00  0.00    +0.237 C 
ATOM      9  C   UNL     1      33.834 -24.444 -13.488  0.00  0.00    +0.312 C 
ATOM     10  H   UNL     1      33.968 -24.873 -15.469  0.00  0.00    +0.159 HD
ATOM     11  H   UNL     1      34.124 -24.244 -11.488  0.00  0.00    +0.159 HD
ENDROOT
BRANCH   6  12
ATOM     12  C   UNL     1      37.308 -23.674 -13.746  0.00  0.00    +0.017 C 
ATOM     13  C   UNL     1      37.240 -22.837 -12.466  0.00  0.00    +0.001 C 
BRANCH  12  14
ATOM     14  C   UNL     1      36.645 -22.905 -14.904  0.00  0.00    +0.001 C 
BRANCH  14  15
ATOM     15  C   UNL     1      37.610 -22.569 -16.043  0.00  0.00    +0.000 C 
ATOM     16  C   UNL     1      36.880 -21.938 -17.219  0.00  0.00    +0.000 C 
ENDBRANCH  14  15
ENDBRANCH  12  14
ENDBRANCH   6  12
BRANCH   6  17
ATOM     17  C   UNL     1      37.758 -26.114 -13.378  0.00  0.00    +0.043 C 
BRANCH  17  18
ATOM     18  C   UNL     1      39.106 -25.515 -13.609  0.00  0.00    -0.025 C 
ATOM     19  C   UNL     1      39.948 -25.930 -14.561  0.00  0.00    -0.005 C 
ENDBRANCH  17  18
ENDBRANCH   6  17
TORSDOF 5
ENDMDL
MODEL 6
REMARK VINA RESULT:      -6.9     17.320     19.728
REMARK  Name = 5193
REMARK  5 active torsions:
REMARK  status: ('A' for Active; 'I' for Inactive)
REMARK    1  A    between atoms: C_6  and  C_12
REMARK    2  A    between atoms: C_6  and  C_17
REMARK    3  A    between atoms: C_12  and  C_14
REMARK    4  A    between atoms: C_14  and  C_15
REMARK    5  A    between atoms: C_17  and  C_18
REMARK                            x       y       z     vdW  Elec       q    Type
REMARK                         _______ _______ _______ _____ _____    ______ ____
ROOT
ATOM      1  O   UNL     1      30.846  -8.257 -24.000  0.00  0.00    -0.274 OA
ATOM      2  O   UNL     1      32.861  -7.208 -19.891  0.00  0.00    -0.274 OA
ATOM      3  O   UNL     1      30.014  -4.245 -21.934  0.00  0.00    -0.252 OA
ATOM      4  N   UNL     1      30.509  -6.214 -23.014  0.00  0.00    -0.239 N 
ATOM      5  N   UNL     1      31.516  -5.689 -20.962  0.00  0.00    -0.239 N 
ATOM      6  C   UNL     1      32.372  -7.606 -22.233  0.00  0.00    +0.142 C 
ATOM      7  C   UNL     1      31.168  -7.426 -23.154  0.00  0.00    +0.237 C 
ATOM      8  C   UNL     1      32.269  -6.853 -20.911  0.00  0.00    +0.237 C 
ATOM      9  C   UNL     1      30.648  -5.301 -21.976  0.00  0.00    +0.312 C 
ATOM     10  H   UNL     1      29.873  -5.975 -23.728  0.00  0.00    +0.159 HD
ATOM     11  H   UNL     1      31.606  -5.073 -20.200  0.00  0.00    +0.159 HD
ENDROOT
BRANCH   6  12
ATOM     12  C   UNL     1      33.596  -7.044 -22.977  0.00  0.00    +0.017 C 
ATOM     13  C   UNL     1      33.160  -6.465 -24.326  0.00  0.00    +0.001 C 
BRANCH  12  14
ATOM     14  C   UNL     1      34.690  -8.104 -23.198  0.00  0.00    +0.001 C 
BRANCH  14  15
ATOM     15  C   UNL     1      34.810  -8.564 -24.653  0.00  0.00    +0.000 C 
ATOM     16  C   UNL     1      34.967 -10.074 -24.747  0.00  0.00    +0.000 C 
ENDBRANCH  14  15
ENDBRANCH  12  14
ENDBRANCH   6  12
BRANCH   6  17
ATOM     17  C   UNL     1      32.588  -9.101 -21.957  0.00  0.00    +0.043 C 
BRANCH  17  18
ATOM     18  C   UNL     1      31.534  -9.628 -21.041  0.00  0.00    -0.025 C 
ATOM     19  C   UNL     1      31.540 -10.868 -20.540  0.00  0.00    -0.005 C 
ENDBRANCH  17  18
ENDBRANCH   6  17
TORSDOF 5
ENDMDL
MODEL 7
REMARK VINA RESULT:      -6.7     16.806     19.290
REMARK  Name = 5193
REMARK  5 active torsions:
REMARK  status: ('A' for Active; 'I' for Inactive)
REMARK    1  A    between atoms: C_6  and  C_12
REMARK    2  A    between atoms: C_6  and  C_17
REMARK    3  A    between atoms: C_12  and  C_14
REMARK    4  A    between atoms: C_14  and  C_15
REMARK    5  A    between atoms: C_17  and  C_18
REMARK                            x       y       z     vdW  Elec       q    Type
REMARK                         _______ _______ _______ _____ _____    ______ ____
ROOT
ATOM      1  O   UNL     1      33.072  -9.694 -23.882  0.00  0.00    -0.274 OA
ATOM      2  O   UNL     1      32.996  -7.339 -19.821  0.00  0.00    -0.274 OA
ATOM      3  O   UNL     1      30.858 -11.378 -20.234  0.00  0.00    -0.252 OA
ATOM      4  N   UNL     1      31.884 -10.487 -22.087  0.00  0.00    -0.239 N 
ATOM      5  N   UNL     1      31.845  -9.309 -20.058  0.00  0.00    -0.239 N 
ATOM      6  C   UNL     1      32.613  -8.143 -22.076  0.00  0.00    +0.142 C 
ATOM      7  C   UNL     1      32.580  -9.502 -22.772  0.00  0.00    +0.237 C 
ATOM      8  C   UNL     1      32.538  -8.216 -20.555  0.00  0.00    +0.237 C 
ATOM      9  C   UNL     1      31.471 -10.449 -20.761  0.00  0.00    +0.312 C 
ATOM     10  H   UNL     1      31.659 -11.299 -22.596  0.00  0.00    +0.159 HD
ATOM     11  H   UNL     1      31.592  -9.276 -19.108  0.00  0.00    +0.159 HD
ENDROOT
BRANCH   6  12
ATOM     12  C   UNL     1      31.373  -7.364 -22.552  0.00  0.00    +0.017 C 
ATOM     13  C   UNL     1      30.962  -7.848 -23.945  0.00  0.00    +0.001 C 
BRANCH  12  14
ATOM     14  C   UNL     1      31.607  -5.843 -22.579  0.00  0.00    +0.001 C 
BRANCH  14  15
ATOM     15  C   UNL     1      31.134  -5.176 -23.872  0.00  0.00    +0.000 C 
ATOM     16  C   UNL     1      31.533  -3.709 -23.918  0.00  0.00    +0.000 C 
ENDBRANCH  14  15
ENDBRANCH  12  14
ENDBRANCH   6  12
BRANCH   6  17
ATOM     17  C   UNL     1      33.880  -7.384 -22.493  0.00  0.00    +0.043 C 
BRANCH  17  18
ATOM     18  C   UNL     1      34.211  -7.649 -23.924  0.00  0.00    -0.025 C 
ATOM     19  C   UNL     1      34.476  -6.688 -24.815  0.00  0.00    -0.005 C 
ENDBRANCH  17  18
ENDBRANCH   6  17
TORSDOF 5
ENDMDL
MODEL 8
REMARK VINA RESULT:      -6.4      2.174      3.931
REMARK  Name = 5193
REMARK  5 active torsions:
REMARK  status: ('A' for Active; 'I' for Inactive)
REMARK    1  A    between atoms: C_6  and  C_12
REMARK    2  A    between atoms: C_6  and  C_17
REMARK    3  A    between atoms: C_12  and  C_14
REMARK    4  A    between atoms: C_14  and  C_15
REMARK    5  A    between atoms: C_17  and  C_18
REMARK                            x       y       z     vdW  Elec       q    Type
REMARK                         _______ _______ _______ _____ _____    ______ ____
ROOT
ATOM      1  O   UNL     1      37.955 -22.534 -15.377  0.00  0.00    -0.274 OA
ATOM      2  O   UNL     1      37.520 -27.205 -15.181  0.00  0.00    -0.274 OA
ATOM      3  O   UNL     1      33.820 -24.494 -15.033  0.00  0.00    -0.252 OA
ATOM      4  N   UNL     1      35.898 -23.512 -15.106  0.00  0.00    -0.239 N 
ATOM      5  N   UNL     1      35.680 -25.846 -15.008  0.00  0.00    -0.239 N 
ATOM      6  C   UNL     1      37.906 -24.861 -14.697  0.00  0.00    +0.142 C 
ATOM      7  C   UNL     1      37.285 -23.531 -15.116  0.00  0.00    +0.237 C 
ATOM      8  C   UNL     1      37.047 -26.081 -15.009  0.00  0.00    +0.237 C 
ATOM      9  C   UNL     1      35.047 -24.608 -15.032  0.00  0.00    +0.312 C 
ATOM     10  H   UNL     1      35.471 -22.626 -15.158  0.00  0.00    +0.159 HD
ATOM     11  H   UNL     1      35.096 -26.638 -14.988  0.00  0.00    +0.159 HD
ENDROOT
BRANCH   6  12
ATOM     12  C   UNL     1      38.083 -24.813 -13.169  0.00  0.00    +0.017 C 
ATOM     13  C   UNL     1      37.470 -26.066 -12.538  0.00  0.00    +0.001 C 
BRANCH  12  14
ATOM     14  C   UNL     1      37.454 -23.555 -12.542  0.00  0.00    +0.001 C 
BRANCH  14  15
ATOM     15  C   UNL     1      36.614 -23.850 -11.297  0.00  0.00    +0.000 C 
ATOM     16  C   UNL     1      35.126 -23.786 -11.605  0.00  0.00    +0.000 C 
ENDBRANCH  14  15
ENDBRANCH  12  14
ENDBRANCH   6  12
BRANCH   6  17
ATOM     17  C   UNL     1      39.281 -25.017 -15.363  0.00  0.00    +0.043 C 
BRANCH  17  18
ATOM     18  C   UNL     1      40.328 -25.337 -14.349  0.00  0.00    -0.025 C 
ATOM     19  C   UNL     1      40.903 -26.539 -14.231  0.00  0.00    -0.005 C 
ENDBRANCH  17  18
ENDBRANCH   6  17
TORSDOF 5
ENDMDL
MODEL 9
REMARK VINA RESULT:      -6.4     17.892     19.928
REMARK  Name = 5193
REMARK  5 active torsions:
REMARK  status: ('A' for Active; 'I' for Inactive)
REMARK    1  A    between atoms: C_6  and  C_12
REMARK    2  A    between atoms: C_6  and  C_17
REMARK    3  A    between atoms: C_12  and  C_14
REMARK    4  A    between atoms: C_14  and  C_15
REMARK    5  A    between atoms: C_17  and  C_18
REMARK                            x       y       z     vdW  Elec       q    Type
REMARK                         _______ _______ _______ _____ _____    ______ ____
ROOT
ATOM      1  O   UNL     1      35.344  -7.360 -23.086  0.00  0.00    -0.274 OA
ATOM      2  O   UNL     1      31.044  -9.219 -22.769  0.00  0.00    -0.274 OA
ATOM      3  O   UNL     1      34.386 -11.405 -25.030  0.00  0.00    -0.252 OA
ATOM      4  N   UNL     1      34.836  -9.334 -24.139  0.00  0.00    -0.239 N 
ATOM      5  N   UNL     1      32.688 -10.262 -23.982  0.00  0.00    -0.239 N 
ATOM      6  C   UNL     1      32.998  -7.910 -23.357  0.00  0.00    +0.142 C 
ATOM      7  C   UNL     1      34.498  -8.162 -23.479  0.00  0.00    +0.237 C 
ATOM      8  C   UNL     1      32.151  -9.176 -23.306  0.00  0.00    +0.237 C 
ATOM      9  C   UNL     1      33.994 -10.396 -24.440  0.00  0.00    +0.312 C 
ATOM     10  H   UNL     1      35.775  -9.421 -24.425  0.00  0.00    +0.159 HD
ATOM     11  H   UNL     1      32.081 -11.017 -24.155  0.00  0.00    +0.159 HD
ENDROOT
BRANCH   6  12
ATOM     12  C   UNL     1      32.569  -7.130 -24.613  0.00  0.00    +0.017 C 
ATOM     13  C   UNL     1      33.707  -6.212 -25.066  0.00  0.00    +0.001 C 
BRANCH  12  14
ATOM     14  C   UNL     1      31.293  -6.298 -24.384  0.00  0.00    +0.001 C 
BRANCH  14  15
ATOM     15  C   UNL     1      31.435  -4.834 -24.804  0.00  0.00    +0.000 C 
ATOM     16  C   UNL     1      31.260  -3.897 -23.619  0.00  0.00    +0.000 C 
ENDBRANCH  14  15
ENDBRANCH  12  14
ENDBRANCH   6  12
BRANCH   6  17
ATOM     17  C   UNL     1      32.721  -7.057 -22.110  0.00  0.00    +0.043 C 
BRANCH  17  18
ATOM     18  C   UNL     1      32.983  -7.837 -20.865  0.00  0.00    -0.025 C 
ATOM     19  C   UNL     1      32.185  -7.811 -19.793  0.00  0.00    -0.005 C 
ENDBRANCH  17  18
ENDBRANCH   6  17
TORSDOF 5
ENDMDL
