MODEL 1
REMARK VINA RESULT:     -12.0      0.000      0.000
REMARK  Name = 9874913
REMARK  8 active torsions:
REMARK  status: ('A' for Active; 'I' for Inactive)
REMARK    1  A    between atoms: N_1  and  C_13
REMARK    2  A    between atoms: C_8  and  C_28
REMARK    3  A    between atoms: C_16  and  O_20
REMARK    4  A    between atoms: O_20  and  C_22
REMARK    5  A    between atoms: C_29  and  C_30
REMARK    6  A    between atoms: C_30  and  N_32
REMARK    7  A    between atoms: C_33  and  C_35
REMARK    8  A    between atoms: C_35  and  O_36
REMARK                            x       y       z     vdW  Elec       q    Type
REMARK                         _______ _______ _______ _____ _____    ______ ____
ROOT
ATOM      1  N   UNL     1      33.971 -13.217 -23.413  0.00  0.00    -0.301 N 
ATOM      2  N   UNL     1      33.163 -13.547 -25.598  0.00  0.00    -0.233 NA
ATOM      3  N   UNL     1      33.229 -15.729 -26.618  0.00  0.00    -0.248 NA
ATOM      4  C   UNL     1      34.060 -15.436 -24.388  0.00  0.00    +0.116 C 
ATOM      5  C   UNL     1      33.722 -14.091 -24.501  0.00  0.00    +0.115 C 
ATOM      6  C   UNL     1      33.786 -16.240 -25.506  0.00  0.00    +0.067 C 
ATOM      7  C   UNL     1      34.644 -15.982 -23.231  0.00  0.00    -0.013 C 
ATOM      8  C   UNL     1      34.959 -17.336 -23.182  0.00  0.00    -0.004 C 
ATOM      9  C   UNL     1      34.110 -17.592 -25.430  0.00  0.00    +0.015 C 
ATOM     10  C   UNL     1      34.691 -18.142 -24.284  0.00  0.00    +0.001 C 
ATOM     11  C   UNL     1      32.947 -14.410 -26.603  0.00  0.00    +0.251 C 
ATOM     12  H   UNL     1      34.745 -13.477 -22.863  0.00  0.00    +0.153 HD
ENDROOT
BRANCH   1  13
ATOM     13  C   UNL     1      33.326 -12.052 -22.967  0.00  0.00    +0.049 C 
ATOM     14  C   UNL     1      31.698 -10.975 -21.545  0.00  0.00    +0.014 C 
ATOM     15  C   UNL     1      32.339 -12.132 -21.985  0.00  0.00    +0.013 C 
ATOM     16  C   UNL     1      32.044  -9.736 -22.087  0.00  0.00    +0.141 C 
ATOM     17  C   UNL     1      33.672 -10.814 -23.510  0.00  0.00    +0.018 C 
ATOM     18  C   UNL     1      33.030  -9.657 -23.069  0.00  0.00    +0.038 C 
ATOM     19  C   UNL     1      30.645 -11.079 -20.491  0.00  0.00    +0.034 C 
BRANCH  16  20
ATOM     20  O   UNL     1      31.428  -8.596 -21.667  0.00  0.00    -0.452 OA
BRANCH  20  22
ATOM     21  N   UNL     1      32.048  -5.179 -22.859  0.00  0.00    -0.245 NA
ATOM     22  C   UNL     1      31.464  -7.499 -22.510  0.00  0.00    +0.164 C 
ATOM     23  C   UNL     1      30.984  -7.581 -23.812  0.00  0.00    +0.040 C 
ATOM     24  C   UNL     1      31.982  -6.286 -22.086  0.00  0.00    +0.136 C 
ATOM     25  C   UNL     1      31.035  -6.464 -24.638  0.00  0.00    +0.018 C 
ATOM     26  C   UNL     1      31.572  -5.297 -24.118  0.00  0.00    +0.060 C 
ATOM     27  C   UNL     1      31.641  -4.078 -24.976  0.00  0.00    +0.052 C 
ENDBRANCH  20  22
ENDBRANCH  16  20
ENDBRANCH   1  13
BRANCH   8  28
ATOM     28  C   UNL     1      35.562 -17.907 -21.988  0.00  0.00    -0.003 C 
ATOM     29  C   UNL     1      35.600 -19.221 -21.672  0.00  0.00    -0.005 C 
BRANCH  29  30
ATOM     30  C   UNL     1      36.247 -19.763 -20.438  0.00  0.00    +0.116 C 
BRANCH  30  32
ATOM     31  O   UNL     1      36.885 -21.717 -18.397  0.00  0.00    -0.272 OA
ATOM     32  N   UNL     1      35.347 -20.685 -19.805  0.00  0.00    -0.298 N 
ATOM     33  C   UNL     1      35.743 -21.594 -18.829  0.00  0.00    +0.253 C 
ATOM     34  H   UNL     1      34.401 -20.674 -20.077  0.00  0.00    +0.150 HD
BRANCH  33  35
ATOM     35  C   UNL     1      34.587 -22.441 -18.340  0.00  0.00    +0.227 C 
BRANCH  35  36
ATOM     36  O   UNL     1      34.927 -23.105 -17.142  0.00  0.00    -0.342 OA
ATOM     37  C   UNL     1      33.780 -23.381 -16.343  0.00  0.00    +0.175 C 
ENDBRANCH  35  36
ENDBRANCH  33  35
ENDBRANCH  30  32
ENDBRANCH  29  30
ENDBRANCH   8  28
TORSDOF 8
ENDMDL
MODEL 2
REMARK VINA RESULT:     -11.6      2.307     12.171
REMARK  Name = 9874913
REMARK  8 active torsions:
REMARK  status: ('A' for Active; 'I' for Inactive)
REMARK    1  A    between atoms: N_1  and  C_13
REMARK    2  A    between atoms: C_8  and  C_28
REMARK    3  A    between atoms: C_16  and  O_20
REMARK    4  A    between atoms: O_20  and  C_22
REMARK    5  A    between atoms: C_29  and  C_30
REMARK    6  A    between atoms: C_30  and  N_32
REMARK    7  A    between atoms: C_33  and  C_35
REMARK    8  A    between atoms: C_35  and  O_36
REMARK                            x       y       z     vdW  Elec       q    Type
REMARK                         _______ _______ _______ _____ _____    ______ ____
ROOT
ATOM      1  N   UNL     1      33.441 -18.377 -21.573  0.00  0.00    -0.301 N 
ATOM      2  N   UNL     1      34.547 -18.661 -23.630  0.00  0.00    -0.233 NA
ATOM      3  N   UNL     1      34.996 -16.772 -25.057  0.00  0.00    -0.248 NA
ATOM      4  C   UNL     1      33.868 -16.439 -22.967  0.00  0.00    +0.116 C 
ATOM      5  C   UNL     1      33.970 -17.811 -22.761  0.00  0.00    +0.115 C 
ATOM      6  C   UNL     1      34.412 -15.952 -24.166  0.00  0.00    +0.067 C 
ATOM      7  C   UNL     1      33.260 -15.570 -22.044  0.00  0.00    -0.013 C 
ATOM      8  C   UNL     1      33.191 -14.207 -22.311  0.00  0.00    -0.004 C 
ATOM      9  C   UNL     1      34.331 -14.582 -24.408  0.00  0.00    +0.015 C 
ATOM     10  C   UNL     1      33.727 -13.712 -23.495  0.00  0.00    +0.001 C 
ATOM     11  C   UNL     1      35.032 -18.083 -24.740  0.00  0.00    +0.251 C 
ATOM     12  H   UNL     1      32.667 -17.889 -21.210  0.00  0.00    +0.153 HD
ENDROOT
BRANCH   1  13
ATOM     13  C   UNL     1      33.808 -19.500 -20.814  0.00  0.00    +0.049 C 
ATOM     14  C   UNL     1      35.519 -20.920 -19.872  0.00  0.00    +0.014 C 
ATOM     15  C   UNL     1      35.156 -19.804 -20.625  0.00  0.00    +0.013 C 
ATOM     16  C   UNL     1      34.535 -21.733 -19.308  0.00  0.00    +0.141 C 
ATOM     17  C   UNL     1      32.823 -20.312 -20.251  0.00  0.00    +0.018 C 
ATOM     18  C   UNL     1      33.188 -21.429 -19.499  0.00  0.00    +0.038 C 
ATOM     19  C   UNL     1      36.967 -21.230 -19.678  0.00  0.00    +0.034 C 
BRANCH  16  20
ATOM     20  O   UNL     1      34.874 -22.827 -18.571  0.00  0.00    -0.452 OA
BRANCH  20  22
ATOM     21  N   UNL     1      34.310 -23.222 -14.964  0.00  0.00    -0.245 NA
ATOM     22  C   UNL     1      34.211 -23.022 -17.371  0.00  0.00    +0.164 C 
ATOM     23  C   UNL     1      32.834 -23.207 -17.337  0.00  0.00    +0.040 C 
ATOM     24  C   UNL     1      34.897 -23.038 -16.168  0.00  0.00    +0.136 C 
ATOM     25  C   UNL     1      32.193 -23.400 -16.118  0.00  0.00    +0.018 C 
ATOM     26  C   UNL     1      32.970 -23.399 -14.970  0.00  0.00    +0.060 C 
ATOM     27  C   UNL     1      32.316 -23.604 -13.644  0.00  0.00    +0.052 C 
ENDBRANCH  20  22
ENDBRANCH  16  20
ENDBRANCH   1  13
BRANCH   8  28
ATOM     28  C   UNL     1      32.563 -13.304 -21.359  0.00  0.00    -0.003 C 
ATOM     29  C   UNL     1      31.719 -12.293 -21.666  0.00  0.00    -0.005 C 
BRANCH  29  30
ATOM     30  C   UNL     1      31.085 -11.399 -20.650  0.00  0.00    +0.116 C 
BRANCH  30  32
ATOM     31  O   UNL     1      32.390  -9.613 -18.778  0.00  0.00    -0.272 OA
ATOM     32  N   UNL     1      31.508 -10.048 -20.887  0.00  0.00    -0.298 N 
ATOM     33  C   UNL     1      32.130  -9.260 -19.925  0.00  0.00    +0.253 C 
ATOM     34  H   UNL     1      31.349  -9.659 -21.778  0.00  0.00    +0.150 HD
BRANCH  33  35
ATOM     35  C   UNL     1      32.466  -7.880 -20.451  0.00  0.00    +0.227 C 
BRANCH  35  36
ATOM     36  O   UNL     1      32.151  -7.779 -21.823  0.00  0.00    -0.342 OA
ATOM     37  C   UNL     1      33.273  -7.364 -22.597  0.00  0.00    +0.175 C 
ENDBRANCH  35  36
ENDBRANCH  33  35
ENDBRANCH  30  32
ENDBRANCH  29  30
ENDBRANCH   8  28
TORSDOF 8
ENDMDL
MODEL 3
REMARK VINA RESULT:     -11.4      5.090     10.647
REMARK  Name = 9874913
REMARK  8 active torsions:
REMARK  status: ('A' for Active; 'I' for Inactive)
REMARK    1  A    between atoms: N_1  and  C_13
REMARK    2  A    between atoms: C_8  and  C_28
REMARK    3  A    between atoms: C_16  and  O_20
REMARK    4  A    between atoms: O_20  and  C_22
REMARK    5  A    between atoms: C_29  and  C_30
REMARK    6  A    between atoms: C_30  and  N_32
REMARK    7  A    between atoms: C_33  and  C_35
REMARK    8  A    between atoms: C_35  and  O_36
REMARK                            x       y       z     vdW  Elec       q    Type
REMARK                         _______ _______ _______ _____ _____    ______ ____
ROOT
ATOM      1  N   UNL     1      33.966 -22.656 -17.878  0.00  0.00    -0.301 N 
ATOM      2  N   UNL     1      31.626 -22.479 -17.706  0.00  0.00    -0.233 NA
ATOM      3  N   UNL     1      30.498 -23.039 -15.652  0.00  0.00    -0.248 NA
ATOM      4  C   UNL     1      32.884 -23.232 -15.785  0.00  0.00    +0.116 C 
ATOM      5  C   UNL     1      32.788 -22.791 -17.102  0.00  0.00    +0.115 C 
ATOM      6  C   UNL     1      31.676 -23.343 -15.079  0.00  0.00    +0.067 C 
ATOM      7  C   UNL     1      34.110 -23.553 -15.175  0.00  0.00    -0.013 C 
ATOM      8  C   UNL     1      34.138 -23.988 -13.854  0.00  0.00    -0.004 C 
ATOM      9  C   UNL     1      31.733 -23.779 -13.758  0.00  0.00    +0.015 C 
ATOM     10  C   UNL     1      32.947 -24.101 -13.145  0.00  0.00    +0.001 C 
ATOM     11  C   UNL     1      30.537 -22.623 -16.934  0.00  0.00    +0.251 C 
ATOM     12  H   UNL     1      34.681 -23.286 -17.630  0.00  0.00    +0.153 HD
ENDROOT
BRANCH   1  13
ATOM     13  C   UNL     1      34.311 -21.797 -18.934  0.00  0.00    +0.049 C 
ATOM     14  C   UNL     1      35.986 -20.596 -20.193  0.00  0.00    +0.014 C 
ATOM     15  C   UNL     1      35.645 -21.450 -19.144  0.00  0.00    +0.013 C 
ATOM     16  C   UNL     1      34.993 -20.088 -21.031  0.00  0.00    +0.141 C 
ATOM     17  C   UNL     1      33.317 -21.290 -19.772  0.00  0.00    +0.018 C 
ATOM     18  C   UNL     1      33.659 -20.435 -20.820  0.00  0.00    +0.038 C 
ATOM     19  C   UNL     1      37.420 -20.236 -20.404  0.00  0.00    +0.034 C 
BRANCH  16  20
ATOM     20  O   UNL     1      35.310 -19.253 -22.059  0.00  0.00    -0.452 OA
BRANCH  20  22
ATOM     21  N   UNL     1      33.899 -16.010 -23.048  0.00  0.00    -0.245 NA
ATOM     22  C   UNL     1      34.885 -17.938 -21.973  0.00  0.00    +0.164 C 
ATOM     23  C   UNL     1      34.995 -17.228 -20.783  0.00  0.00    +0.040 C 
ATOM     24  C   UNL     1      34.335 -17.290 -23.067  0.00  0.00    +0.136 C 
ATOM     25  C   UNL     1      34.557 -15.909 -20.724  0.00  0.00    +0.018 C 
ATOM     26  C   UNL     1      34.022 -15.351 -21.874  0.00  0.00    +0.060 C 
ATOM     27  C   UNL     1      33.544 -13.938 -21.848  0.00  0.00    +0.052 C 
ENDBRANCH  20  22
ENDBRANCH  16  20
ENDBRANCH   1  13
BRANCH   8  28
ATOM     28  C   UNL     1      35.402 -24.321 -13.218  0.00  0.00    -0.003 C 
ATOM     29  C   UNL     1      36.305 -23.434 -12.739  0.00  0.00    -0.005 C 
BRANCH  29  30
ATOM     30  C   UNL     1      37.587 -23.825 -12.078  0.00  0.00    +0.116 C 
BRANCH  30  32
ATOM     31  O   UNL     1      38.647 -23.799 -14.775  0.00  0.00    -0.272 OA
ATOM     32  N   UNL     1      38.166 -24.926 -12.796  0.00  0.00    -0.298 N 
ATOM     33  C   UNL     1      38.652 -24.822 -14.095  0.00  0.00    +0.253 C 
ATOM     34  H   UNL     1      38.222 -25.799 -12.345  0.00  0.00    +0.150 HD
BRANCH  33  35
ATOM     35  C   UNL     1      39.206 -26.138 -14.601  0.00  0.00    +0.227 C 
BRANCH  35  36
ATOM     36  O   UNL     1      38.227 -27.151 -14.528  0.00  0.00    -0.342 OA
ATOM     37  C   UNL     1      37.082 -26.843 -15.319  0.00  0.00    +0.175 C 
ENDBRANCH  35  36
ENDBRANCH  33  35
ENDBRANCH  30  32
ENDBRANCH  29  30
ENDBRANCH   8  28
TORSDOF 8
ENDMDL
MODEL 4
REMARK VINA RESULT:     -11.2      4.763     10.278
REMARK  Name = 9874913
REMARK  8 active torsions:
REMARK  status: ('A' for Active; 'I' for Inactive)
REMARK    1  A    between atoms: N_1  and  C_13
REMARK    2  A    between atoms: C_8  and  C_28
REMARK    3  A    between atoms: C_16  and  O_20
REMARK    4  A    between atoms: O_20  and  C_22
REMARK    5  A    between atoms: C_29  and  C_30
REMARK    6  A    between atoms: C_30  and  N_32
REMARK    7  A    between atoms: C_33  and  C_35
REMARK    8  A    between atoms: C_35  and  O_36
REMARK                            x       y       z     vdW  Elec       q    Type
REMARK                         _______ _______ _______ _____ _____    ______ ____
ROOT
ATOM      1  N   UNL     1      33.771 -22.490 -18.509  0.00  0.00    -0.301 N 
ATOM      2  N   UNL     1      31.513 -22.141 -17.947  0.00  0.00    -0.233 NA
ATOM      3  N   UNL     1      30.621 -22.967 -15.866  0.00  0.00    -0.248 NA
ATOM      4  C   UNL     1      32.928 -23.342 -16.400  0.00  0.00    +0.116 C 
ATOM      5  C   UNL     1      32.703 -22.661 -17.593  0.00  0.00    +0.115 C 
ATOM      6  C   UNL     1      31.823 -23.474 -15.544  0.00  0.00    +0.067 C 
ATOM      7  C   UNL     1      34.182 -23.877 -16.052  0.00  0.00    -0.013 C 
ATOM      8  C   UNL     1      34.340 -24.548 -14.844  0.00  0.00    -0.004 C 
ATOM      9  C   UNL     1      32.011 -24.149 -14.340  0.00  0.00    +0.015 C 
ATOM     10  C   UNL     1      33.254 -24.684 -13.987  0.00  0.00    +0.001 C 
ATOM     11  C   UNL     1      30.531 -22.328 -17.051  0.00  0.00    +0.251 C 
ATOM     12  H   UNL     1      34.435 -23.215 -18.485  0.00  0.00    +0.153 HD
ENDROOT
BRANCH   1  13
ATOM     13  C   UNL     1      34.063 -21.485 -19.446  0.00  0.00    +0.049 C 
ATOM     14  C   UNL     1      35.665 -20.050 -20.543  0.00  0.00    +0.014 C 
ATOM     15  C   UNL     1      35.376 -21.048 -19.614  0.00  0.00    +0.013 C 
ATOM     16  C   UNL     1      34.641 -19.487 -21.305  0.00  0.00    +0.141 C 
ATOM     17  C   UNL     1      33.037 -20.924 -20.208  0.00  0.00    +0.018 C 
ATOM     18  C   UNL     1      33.327 -19.925 -21.136  0.00  0.00    +0.038 C 
ATOM     19  C   UNL     1      37.078 -19.595 -20.711  0.00  0.00    +0.034 C 
BRANCH  16  20
ATOM     20  O   UNL     1      34.907 -18.512 -22.217  0.00  0.00    -0.452 OA
BRANCH  20  22
ATOM     21  N   UNL     1      33.500 -15.217 -23.022  0.00  0.00    -0.245 NA
ATOM     22  C   UNL     1      34.279 -17.289 -22.051  0.00  0.00    +0.164 C 
ATOM     23  C   UNL     1      33.800 -16.895 -20.807  0.00  0.00    +0.040 C 
ATOM     24  C   UNL     1      34.106 -16.422 -23.117  0.00  0.00    +0.136 C 
ATOM     25  C   UNL     1      33.171 -15.662 -20.669  0.00  0.00    +0.018 C 
ATOM     26  C   UNL     1      33.047 -14.867 -21.798  0.00  0.00    +0.060 C 
ATOM     27  C   UNL     1      32.379 -13.537 -21.686  0.00  0.00    +0.052 C 
ENDBRANCH  20  22
ENDBRANCH  16  20
ENDBRANCH   1  13
BRANCH   8  28
ATOM     28  C   UNL     1      35.634 -25.103 -14.478  0.00  0.00    -0.003 C 
ATOM     29  C   UNL     1      36.167 -26.250 -14.956  0.00  0.00    -0.005 C 
BRANCH  29  30
ATOM     30  C   UNL     1      37.510 -26.773 -14.561  0.00  0.00    +0.116 C 
BRANCH  30  32
ATOM     31  O   UNL     1      39.016 -24.307 -14.343  0.00  0.00    -0.272 OA
ATOM     32  N   UNL     1      37.932 -26.114 -13.357  0.00  0.00    -0.298 N 
ATOM     33  C   UNL     1      38.656 -24.926 -13.347  0.00  0.00    +0.253 C 
ATOM     34  H   UNL     1      37.697 -26.526 -12.494  0.00  0.00    +0.150 HD
BRANCH  33  35
ATOM     35  C   UNL     1      38.964 -24.461 -11.939  0.00  0.00    +0.227 C 
BRANCH  35  36
ATOM     36  O   UNL     1      37.773 -24.264 -11.207  0.00  0.00    -0.342 OA
ATOM     37  C   UNL     1      37.109 -23.062 -11.587  0.00  0.00    +0.175 C 
ENDBRANCH  35  36
ENDBRANCH  33  35
ENDBRANCH  30  32
ENDBRANCH  29  30
ENDBRANCH   8  28
TORSDOF 8
ENDMDL
MODEL 5
REMARK VINA RESULT:     -10.5      2.542     12.577
REMARK  Name = 9874913
REMARK  8 active torsions:
REMARK  status: ('A' for Active; 'I' for Inactive)
REMARK    1  A    between atoms: N_1  and  C_13
REMARK    2  A    between atoms: C_8  and  C_28
REMARK    3  A    between atoms: C_16  and  O_20
REMARK    4  A    between atoms: O_20  and  C_22
REMARK    5  A    between atoms: C_29  and  C_30
REMARK    6  A    between atoms: C_30  and  N_32
REMARK    7  A    between atoms: C_33  and  C_35
REMARK    8  A    between atoms: C_35  and  O_36
REMARK                            x       y       z     vdW  Elec       q    Type
REMARK                         _______ _______ _______ _____ _____    ______ ____
ROOT
ATOM      1  N   UNL     1      33.532 -19.306 -20.745  0.00  0.00    -0.301 N 
ATOM      2  N   UNL     1      34.681 -19.755 -22.748  0.00  0.00    -0.233 NA
ATOM      3  N   UNL     1      35.353 -17.961 -24.210  0.00  0.00    -0.248 NA
ATOM      4  C   UNL     1      34.186 -17.460 -22.176  0.00  0.00    +0.116 C 
ATOM      5  C   UNL     1      34.153 -18.829 -21.926  0.00  0.00    +0.115 C 
ATOM      6  C   UNL     1      34.816 -17.063 -23.366  0.00  0.00    +0.067 C 
ATOM      7  C   UNL     1      33.627 -16.511 -21.302  0.00  0.00    -0.013 C 
ATOM      8  C   UNL     1      33.694 -15.157 -21.611  0.00  0.00    -0.004 C 
ATOM      9  C   UNL     1      34.869 -15.700 -23.650  0.00  0.00    +0.015 C 
ATOM     10  C   UNL     1      34.316 -14.751 -22.786  0.00  0.00    +0.001 C 
ATOM     11  C   UNL     1      35.257 -19.259 -23.855  0.00  0.00    +0.251 C 
ATOM     12  H   UNL     1      32.793 -18.738 -20.427  0.00  0.00    +0.153 HD
ENDROOT
BRANCH   1  13
ATOM     13  C   UNL     1      33.766 -20.433 -19.940  0.00  0.00    +0.049 C 
ATOM     14  C   UNL     1      32.958 -22.111 -18.403  0.00  0.00    +0.014 C 
ATOM     15  C   UNL     1      32.724 -20.993 -19.203  0.00  0.00    +0.013 C 
ATOM     16  C   UNL     1      34.235 -22.669 -18.339  0.00  0.00    +0.141 C 
ATOM     17  C   UNL     1      35.044 -20.990 -19.877  0.00  0.00    +0.018 C 
ATOM     18  C   UNL     1      35.278 -22.107 -19.076  0.00  0.00    +0.038 C 
ATOM     19  C   UNL     1      31.829 -22.700 -17.622  0.00  0.00    +0.034 C 
BRANCH  16  20
ATOM     20  O   UNL     1      34.480 -23.761 -17.563  0.00  0.00    -0.452 OA
BRANCH  20  22
ATOM     21  N   UNL     1      35.030 -23.827 -13.933  0.00  0.00    -0.245 NA
ATOM     22  C   UNL     1      35.083 -23.553 -16.334  0.00  0.00    +0.164 C 
ATOM     23  C   UNL     1      36.303 -22.892 -16.239  0.00  0.00    +0.040 C 
ATOM     24  C   UNL     1      34.493 -23.997 -15.162  0.00  0.00    +0.136 C 
ATOM     25  C   UNL     1      36.887 -22.698 -14.992  0.00  0.00    +0.018 C 
ATOM     26  C   UNL     1      36.216 -23.181 -13.880  0.00  0.00    +0.060 C 
ATOM     27  C   UNL     1      36.812 -22.990 -12.525  0.00  0.00    +0.052 C 
ENDBRANCH  20  22
ENDBRANCH  16  20
ENDBRANCH   1  13
BRANCH   8  28
ATOM     28  C   UNL     1      33.118 -14.170 -20.710  0.00  0.00    -0.003 C 
ATOM     29  C   UNL     1      32.283 -13.167 -21.065  0.00  0.00    -0.005 C 
BRANCH  29  30
ATOM     30  C   UNL     1      31.703 -12.185 -20.099  0.00  0.00    +0.116 C 
BRANCH  30  32
ATOM     31  O   UNL     1      32.366  -9.665 -18.831  0.00  0.00    -0.272 OA
ATOM     32  N   UNL     1      31.704 -10.881 -20.701  0.00  0.00    -0.298 N 
ATOM     33  C   UNL     1      32.038  -9.720 -20.012  0.00  0.00    +0.253 C 
ATOM     34  H   UNL     1      31.455 -10.806 -21.651  0.00  0.00    +0.150 HD
BRANCH  33  35
ATOM     35  C   UNL     1      31.952  -8.492 -20.895  0.00  0.00    +0.227 C 
BRANCH  35  36
ATOM     36  O   UNL     1      32.089  -8.845 -22.255  0.00  0.00    -0.342 OA
ATOM     37  C   UNL     1      31.638  -7.808 -23.121  0.00  0.00    +0.175 C 
ENDBRANCH  35  36
ENDBRANCH  33  35
ENDBRANCH  30  32
ENDBRANCH  29  30
ENDBRANCH   8  28
TORSDOF 8
ENDMDL
MODEL 6
REMARK VINA RESULT:     -10.4      2.081      3.048
REMARK  Name = 9874913
REMARK  8 active torsions:
REMARK  status: ('A' for Active; 'I' for Inactive)
REMARK    1  A    between atoms: N_1  and  C_13
REMARK    2  A    between atoms: C_8  and  C_28
REMARK    3  A    between atoms: C_16  and  O_20
REMARK    4  A    between atoms: O_20  and  C_22
REMARK    5  A    between atoms: C_29  and  C_30
REMARK    6  A    between atoms: C_30  and  N_32
REMARK    7  A    between atoms: C_33  and  C_35
REMARK    8  A    between atoms: C_35  and  O_36
REMARK                            x       y       z     vdW  Elec       q    Type
REMARK                         _______ _______ _______ _____ _____    ______ ____
ROOT
ATOM      1  N   UNL     1      33.534 -15.160 -21.351  0.00  0.00    -0.301 N 
ATOM      2  N   UNL     1      34.774 -15.237 -23.349  0.00  0.00    -0.233 NA
ATOM      3  N   UNL     1      35.508 -17.343 -24.261  0.00  0.00    -0.248 NA
ATOM      4  C   UNL     1      34.244 -17.308 -22.223  0.00  0.00    +0.116 C 
ATOM      5  C   UNL     1      34.205 -15.922 -22.340  0.00  0.00    +0.115 C 
ATOM      6  C   UNL     1      34.928 -17.996 -23.239  0.00  0.00    +0.067 C 
ATOM      7  C   UNL     1      33.642 -18.003 -21.158  0.00  0.00    -0.013 C 
ATOM      8  C   UNL     1      33.719 -19.390 -21.100  0.00  0.00    -0.004 C 
ATOM      9  C   UNL     1      34.988 -19.385 -23.156  0.00  0.00    +0.015 C 
ATOM     10  C   UNL     1      34.393 -20.082 -22.101  0.00  0.00    +0.001 C 
ATOM     11  C   UNL     1      35.399 -15.999 -24.261  0.00  0.00    +0.251 C 
ATOM     12  H   UNL     1      33.546 -15.569 -20.456  0.00  0.00    +0.153 HD
ENDROOT
BRANCH   1  13
ATOM     13  C   UNL     1      32.855 -13.931 -21.402  0.00  0.00    +0.049 C 
ATOM     14  C   UNL     1      31.861 -12.042 -20.272  0.00  0.00    +0.014 C 
ATOM     15  C   UNL     1      32.536 -13.261 -20.221  0.00  0.00    +0.013 C 
ATOM     16  C   UNL     1      31.503 -11.493 -21.504  0.00  0.00    +0.141 C 
ATOM     17  C   UNL     1      32.497 -13.383 -22.634  0.00  0.00    +0.018 C 
ATOM     18  C   UNL     1      31.821 -12.165 -22.684  0.00  0.00    +0.038 C 
ATOM     19  C   UNL     1      31.530 -11.337 -18.998  0.00  0.00    +0.034 C 
BRANCH  16  20
ATOM     20  O   UNL     1      30.843 -10.304 -21.570  0.00  0.00    -0.452 OA
BRANCH  20  22
ATOM     21  N   UNL     1      31.376  -7.697 -24.101  0.00  0.00    -0.245 NA
ATOM     22  C   UNL     1      31.448  -9.272 -22.269  0.00  0.00    +0.164 C 
ATOM     23  C   UNL     1      32.684  -8.772 -21.877  0.00  0.00    +0.040 C 
ATOM     24  C   UNL     1      30.840  -8.706 -23.378  0.00  0.00    +0.136 C 
ATOM     25  C   UNL     1      33.267  -7.734 -22.596  0.00  0.00    +0.018 C 
ATOM     26  C   UNL     1      32.578  -7.236 -23.690  0.00  0.00    +0.060 C 
ATOM     27  C   UNL     1      33.175  -6.123 -24.486  0.00  0.00    +0.052 C 
ENDBRANCH  20  22
ENDBRANCH  16  20
ENDBRANCH   1  13
BRANCH   8  28
ATOM     28  C   UNL     1      33.097 -20.113 -20.002  0.00  0.00    -0.003 C 
ATOM     29  C   UNL     1      33.453 -21.343 -19.563  0.00  0.00    -0.005 C 
BRANCH  29  30
ATOM     30  C   UNL     1      32.793 -22.040 -18.418  0.00  0.00    +0.116 C 
BRANCH  30  32
ATOM     31  O   UNL     1      32.524 -23.188 -15.771  0.00  0.00    -0.272 OA
ATOM     32  N   UNL     1      33.786 -22.769 -17.680  0.00  0.00    -0.298 N 
ATOM     33  C   UNL     1      33.569 -23.287 -16.407  0.00  0.00    +0.253 C 
ATOM     34  H   UNL     1      34.667 -22.909 -18.097  0.00  0.00    +0.150 HD
BRANCH  33  35
ATOM     35  C   UNL     1      34.788 -24.007 -15.872  0.00  0.00    +0.227 C 
BRANCH  35  36
ATOM     36  O   UNL     1      35.970 -23.330 -16.242  0.00  0.00    -0.342 OA
ATOM     37  C   UNL     1      37.059 -23.652 -15.382  0.00  0.00    +0.175 C 
ENDBRANCH  35  36
ENDBRANCH  33  35
ENDBRANCH  30  32
ENDBRANCH  29  30
ENDBRANCH   8  28
TORSDOF 8
ENDMDL
MODEL 7
REMARK VINA RESULT:     -10.4      2.172     11.211
REMARK  Name = 9874913
REMARK  8 active torsions:
REMARK  status: ('A' for Active; 'I' for Inactive)
REMARK    1  A    between atoms: N_1  and  C_13
REMARK    2  A    between atoms: C_8  and  C_28
REMARK    3  A    between atoms: C_16  and  O_20
REMARK    4  A    between atoms: O_20  and  C_22
REMARK    5  A    between atoms: C_29  and  C_30
REMARK    6  A    between atoms: C_30  and  N_32
REMARK    7  A    between atoms: C_33  and  C_35
REMARK    8  A    between atoms: C_35  and  O_36
REMARK                            x       y       z     vdW  Elec       q    Type
REMARK                         _______ _______ _______ _____ _____    ______ ____
ROOT
ATOM      1  N   UNL     1      33.890 -15.307 -23.245  0.00  0.00    -0.301 N 
ATOM      2  N   UNL     1      33.298 -16.030 -25.404  0.00  0.00    -0.233 NA
ATOM      3  N   UNL     1      32.991 -14.443 -27.192  0.00  0.00    -0.248 NA
ATOM      4  C   UNL     1      33.596 -13.665 -25.006  0.00  0.00    +0.116 C 
ATOM      5  C   UNL     1      33.585 -14.994 -24.594  0.00  0.00    +0.115 C 
ATOM      6  C   UNL     1      33.283 -13.433 -26.355  0.00  0.00    +0.067 C 
ATOM      7  C   UNL     1      33.899 -12.599 -24.140  0.00  0.00    -0.013 C 
ATOM      8  C   UNL     1      33.892 -11.292 -24.615  0.00  0.00    -0.004 C 
ATOM      9  C   UNL     1      33.284 -12.114 -26.804  0.00  0.00    +0.015 C 
ATOM     10  C   UNL     1      33.584 -11.050 -25.950  0.00  0.00    +0.001 C 
ATOM     11  C   UNL     1      33.015 -15.687 -26.671  0.00  0.00    +0.251 C 
ATOM     12  H   UNL     1      33.640 -14.600 -22.607  0.00  0.00    +0.153 HD
ENDROOT
BRANCH   1  13
ATOM     13  C   UNL     1      34.479 -16.431 -22.643  0.00  0.00    +0.049 C 
ATOM     14  C   UNL     1      35.275 -18.706 -22.788  0.00  0.00    +0.014 C 
ATOM     15  C   UNL     1      34.691 -17.590 -23.387  0.00  0.00    +0.013 C 
ATOM     16  C   UNL     1      35.646 -18.663 -21.444  0.00  0.00    +0.141 C 
ATOM     17  C   UNL     1      34.849 -16.386 -21.298  0.00  0.00    +0.018 C 
ATOM     18  C   UNL     1      35.432 -17.503 -20.700  0.00  0.00    +0.038 C 
ATOM     19  C   UNL     1      35.497 -19.939 -23.601  0.00  0.00    +0.034 C 
BRANCH  16  20
ATOM     20  O   UNL     1      36.217 -19.744 -20.844  0.00  0.00    -0.452 OA
BRANCH  20  22
ATOM     21  N   UNL     1      35.183 -22.301 -18.421  0.00  0.00    -0.245 NA
ATOM     22  C   UNL     1      35.397 -20.569 -20.093  0.00  0.00    +0.164 C 
ATOM     23  C   UNL     1      34.015 -20.516 -20.225  0.00  0.00    +0.040 C 
ATOM     24  C   UNL     1      35.928 -21.471 -19.185  0.00  0.00    +0.136 C 
ATOM     25  C   UNL     1      33.215 -21.355 -19.457  0.00  0.00    +0.018 C 
ATOM     26  C   UNL     1      33.843 -22.222 -18.577  0.00  0.00    +0.060 C 
ATOM     27  C   UNL     1      33.017 -23.137 -17.737  0.00  0.00    +0.052 C 
ENDBRANCH  20  22
ENDBRANCH  16  20
ENDBRANCH   1  13
BRANCH   8  28
ATOM     28  C   UNL     1      34.206 -10.186 -23.725  0.00  0.00    -0.003 C 
ATOM     29  C   UNL     1      34.336  -8.890 -24.088  0.00  0.00    -0.005 C 
BRANCH  29  30
ATOM     30  C   UNL     1      34.644  -7.784 -23.132  0.00  0.00    +0.116 C 
BRANCH  30  32
ATOM     31  O   UNL     1      32.406  -6.075 -22.448  0.00  0.00    -0.272 OA
ATOM     32  N   UNL     1      33.780  -7.897 -21.992  0.00  0.00    -0.298 N 
ATOM     33  C   UNL     1      32.724  -7.027 -21.741  0.00  0.00    +0.253 C 
ATOM     34  H   UNL     1      33.944  -8.629 -21.354  0.00  0.00    +0.150 HD
BRANCH  33  35
ATOM     35  C   UNL     1      31.983  -7.385 -20.469  0.00  0.00    +0.227 C 
BRANCH  35  36
ATOM     36  O   UNL     1      32.659  -8.407 -19.770  0.00  0.00    -0.342 OA
ATOM     37  C   UNL     1      31.866  -9.584 -19.652  0.00  0.00    +0.175 C 
ENDBRANCH  35  36
ENDBRANCH  33  35
ENDBRANCH  30  32
ENDBRANCH  29  30
ENDBRANCH   8  28
TORSDOF 8
ENDMDL
MODEL 8
REMARK VINA RESULT:     -10.4      1.885      2.563
REMARK  Name = 9874913
REMARK  8 active torsions:
REMARK  status: ('A' for Active; 'I' for Inactive)
REMARK    1  A    between atoms: N_1  and  C_13
REMARK    2  A    between atoms: C_8  and  C_28
REMARK    3  A    between atoms: C_16  and  O_20
REMARK    4  A    between atoms: O_20  and  C_22
REMARK    5  A    between atoms: C_29  and  C_30
REMARK    6  A    between atoms: C_30  and  N_32
REMARK    7  A    between atoms: C_33  and  C_35
REMARK    8  A    between atoms: C_35  and  O_36
REMARK                            x       y       z     vdW  Elec       q    Type
REMARK                         _______ _______ _______ _____ _____    ______ ____
ROOT
ATOM      1  N   UNL     1      34.308 -11.521 -24.232  0.00  0.00    -0.301 N 
ATOM      2  N   UNL     1      33.639 -11.969 -26.443  0.00  0.00    -0.233 NA
ATOM      3  N   UNL     1      33.273 -14.233 -27.182  0.00  0.00    -0.248 NA
ATOM      4  C   UNL     1      33.952 -13.819 -24.920  0.00  0.00    +0.116 C 
ATOM      5  C   UNL     1      33.955 -12.462 -25.231  0.00  0.00    +0.115 C 
ATOM      6  C   UNL     1      33.594 -14.692 -25.960  0.00  0.00    +0.067 C 
ATOM      7  C   UNL     1      34.286 -14.311 -23.646  0.00  0.00    -0.013 C 
ATOM      8  C   UNL     1      34.264 -15.680 -23.401  0.00  0.00    -0.004 C 
ATOM      9  C   UNL     1      33.579 -16.058 -25.686  0.00  0.00    +0.015 C 
ATOM     10  C   UNL     1      33.910 -16.554 -24.423  0.00  0.00    +0.001 C 
ATOM     11  C   UNL     1      33.313 -12.896 -27.358  0.00  0.00    +0.251 C 
ATOM     12  H   UNL     1      34.947 -11.866 -23.568  0.00  0.00    +0.153 HD
ENDROOT
BRANCH   1  13
ATOM     13  C   UNL     1      33.922 -10.189 -24.008  0.00  0.00    +0.049 C 
ATOM     14  C   UNL     1      32.202  -8.558 -23.545  0.00  0.00    +0.014 C 
ATOM     15  C   UNL     1      32.584  -9.881 -23.767  0.00  0.00    +0.013 C 
ATOM     16  C   UNL     1      33.158  -7.543 -23.565  0.00  0.00    +0.141 C 
ATOM     17  C   UNL     1      34.880  -9.174 -24.028  0.00  0.00    +0.018 C 
ATOM     18  C   UNL     1      34.497  -7.852 -23.807  0.00  0.00    +0.038 C 
ATOM     19  C   UNL     1      30.764  -8.247 -23.287  0.00  0.00    +0.034 C 
BRANCH  16  20
ATOM     20  O   UNL     1      32.801  -6.246 -23.351  0.00  0.00    -0.452 OA
BRANCH  20  22
ATOM     21  N   UNL     1      31.344  -3.657 -25.507  0.00  0.00    -0.245 NA
ATOM     22  C   UNL     1      32.584  -5.448 -24.461  0.00  0.00    +0.164 C 
ATOM     23  C   UNL     1      33.346  -5.603 -25.613  0.00  0.00    +0.040 C 
ATOM     24  C   UNL     1      31.604  -4.469 -24.459  0.00  0.00    +0.136 C 
ATOM     25  C   UNL     1      33.108  -4.787 -26.713  0.00  0.00    +0.018 C 
ATOM     26  C   UNL     1      32.104  -3.837 -26.610  0.00  0.00    +0.060 C 
ATOM     27  C   UNL     1      31.820  -2.944 -27.771  0.00  0.00    +0.052 C 
ENDBRANCH  20  22
ENDBRANCH  16  20
ENDBRANCH   1  13
BRANCH   8  28
ATOM     28  C   UNL     1      34.608 -16.195 -22.085  0.00  0.00    -0.003 C 
ATOM     29  C   UNL     1      35.247 -17.360 -21.833  0.00  0.00    -0.005 C 
BRANCH  29  30
ATOM     30  C   UNL     1      35.593 -17.840 -20.461  0.00  0.00    +0.116 C 
BRANCH  30  32
ATOM     31  O   UNL     1      33.824 -20.118 -20.180  0.00  0.00    -0.272 OA
ATOM     32  N   UNL     1      35.947 -19.231 -20.528  0.00  0.00    -0.298 N 
ATOM     33  C   UNL     1      35.026 -20.263 -20.380  0.00  0.00    +0.253 C 
ATOM     34  H   UNL     1      36.890 -19.464 -20.686  0.00  0.00    +0.150 HD
BRANCH  33  35
ATOM     35  C   UNL     1      35.678 -21.625 -20.497  0.00  0.00    +0.227 C 
BRANCH  35  36
ATOM     36  O   UNL     1      35.468 -22.381 -19.323  0.00  0.00    -0.342 OA
ATOM     37  C   UNL     1      36.204 -21.863 -18.219  0.00  0.00    +0.175 C 
ENDBRANCH  35  36
ENDBRANCH  33  35
ENDBRANCH  30  32
ENDBRANCH  29  30
ENDBRANCH   8  28
TORSDOF 8
ENDMDL
MODEL 9
REMARK VINA RESULT:     -10.0      5.207     10.303
REMARK  Name = 9874913
REMARK  8 active torsions:
REMARK  status: ('A' for Active; 'I' for Inactive)
REMARK    1  A    between atoms: N_1  and  C_13
REMARK    2  A    between atoms: C_8  and  C_28
REMARK    3  A    between atoms: C_16  and  O_20
REMARK    4  A    between atoms: O_20  and  C_22
REMARK    5  A    between atoms: C_29  and  C_30
REMARK    6  A    between atoms: C_30  and  N_32
REMARK    7  A    between atoms: C_33  and  C_35
REMARK    8  A    between atoms: C_35  and  O_36
REMARK                            x       y       z     vdW  Elec       q    Type
REMARK                         _______ _______ _______ _____ _____    ______ ____
ROOT
ATOM      1  N   UNL     1      34.593 -20.984 -18.675  0.00  0.00    -0.301 N 
ATOM      2  N   UNL     1      36.718 -21.556 -17.843  0.00  0.00    -0.233 NA
ATOM      3  N   UNL     1      36.956 -23.214 -16.111  0.00  0.00    -0.248 NA
ATOM      4  C   UNL     1      34.772 -22.662 -16.932  0.00  0.00    +0.116 C 
ATOM      5  C   UNL     1      35.388 -21.756 -17.791  0.00  0.00    +0.115 C 
ATOM      6  C   UNL     1      35.624 -23.389 -16.086  0.00  0.00    +0.067 C 
ATOM      7  C   UNL     1      33.379 -22.854 -16.896  0.00  0.00    -0.013 C 
ATOM      8  C   UNL     1      32.827 -23.776 -16.014  0.00  0.00    -0.004 C 
ATOM      9  C   UNL     1      35.043 -24.306 -15.212  0.00  0.00    +0.015 C 
ATOM     10  C   UNL     1      33.660 -24.503 -15.170  0.00  0.00    +0.001 C 
ATOM     11  C   UNL     1      37.431 -22.306 -16.988  0.00  0.00    +0.251 C 
ATOM     12  H   UNL     1      33.692 -20.788 -18.331  0.00  0.00    +0.153 HD
ENDROOT
BRANCH   1  13
ATOM     13  C   UNL     1      34.842 -20.444 -19.947  0.00  0.00    +0.049 C 
ATOM     14  C   UNL     1      36.361 -19.433 -21.529  0.00  0.00    +0.014 C 
ATOM     15  C   UNL     1      36.115 -19.971 -20.267  0.00  0.00    +0.013 C 
ATOM     16  C   UNL     1      35.336 -19.367 -22.473  0.00  0.00    +0.141 C 
ATOM     17  C   UNL     1      33.815 -20.377 -20.889  0.00  0.00    +0.018 C 
ATOM     18  C   UNL     1      34.063 -19.838 -22.151  0.00  0.00    +0.038 C 
ATOM     19  C   UNL     1      37.731 -18.934 -21.856  0.00  0.00    +0.034 C 
BRANCH  16  20
ATOM     20  O   UNL     1      35.560 -18.844 -23.710  0.00  0.00    -0.452 OA
BRANCH  20  22
ATOM     21  N   UNL     1      33.734 -16.295 -25.620  0.00  0.00    -0.245 NA
ATOM     22  C   UNL     1      34.946 -17.643 -24.021  0.00  0.00    +0.164 C 
ATOM     23  C   UNL     1      34.907 -16.601 -23.101  0.00  0.00    +0.040 C 
ATOM     24  C   UNL     1      34.351 -17.441 -25.255  0.00  0.00    +0.136 C 
ATOM     25  C   UNL     1      34.282 -15.406 -23.439  0.00  0.00    +0.018 C 
ATOM     26  C   UNL     1      33.716 -15.304 -24.700  0.00  0.00    +0.060 C 
ATOM     27  C   UNL     1      33.038 -14.036 -25.098  0.00  0.00    +0.052 C 
ENDBRANCH  20  22
ENDBRANCH  16  20
ENDBRANCH   1  13
BRANCH   8  28
ATOM     28  C   UNL     1      31.387 -23.980 -15.972  0.00  0.00    -0.003 C 
ATOM     29  C   UNL     1      30.733 -24.841 -15.160  0.00  0.00    -0.005 C 
BRANCH  29  30
ATOM     30  C   UNL     1      29.248 -25.004 -15.143  0.00  0.00    +0.116 C 
BRANCH  30  32
ATOM     31  O   UNL     1      27.753 -24.158 -17.476  0.00  0.00    -0.272 OA
ATOM     32  N   UNL     1      28.634 -23.725 -15.366  0.00  0.00    -0.298 N 
ATOM     33  C   UNL     1      27.932 -23.404 -16.524  0.00  0.00    +0.253 C 
ATOM     34  H   UNL     1      28.716 -23.040 -14.664  0.00  0.00    +0.150 HD
BRANCH  33  35
ATOM     35  C   UNL     1      27.395 -21.989 -16.487  0.00  0.00    +0.227 C 
BRANCH  35  36
ATOM     36  O   UNL     1      26.055 -21.953 -16.929  0.00  0.00    -0.342 OA
ATOM     37  C   UNL     1      25.896 -21.125 -18.077  0.00  0.00    +0.175 C 
ENDBRANCH  35  36
ENDBRANCH  33  35
ENDBRANCH  30  32
ENDBRANCH  29  30
ENDBRANCH   8  28
TORSDOF 8
ENDMDL
