MODEL 1
REMARK VINA RESULT:      -5.9      0.000      0.000
REMARK  Name = 11708365
REMARK  3 active torsions:
REMARK  status: ('A' for Active; 'I' for Inactive)
REMARK    1  A    between atoms: C_1  and  N_6
REMARK    2  A    between atoms: C_1  and  C_7
REMARK    3  A    between atoms: C_7  and  S_8
REMARK                            x       y       z     vdW  Elec       q    Type
REMARK                         _______ _______ _______ _____ _____    ______ ____
ROOT
ATOM      1  C   UNL     1      36.819 -24.853 -14.634  0.00  0.00    +0.098 C 
ATOM      2  C   UNL     1      38.340 -24.726 -14.475  0.00  0.00    +0.021 C 
ATOM      3  C   UNL     1      36.454 -26.267 -15.104  0.00  0.00    +0.021 C 
ENDROOT
BRANCH   1   6
ATOM      4 CL   UNL     1      34.920 -23.065 -15.235  0.00  0.00    -0.004 Cl
ATOM      5 CL   UNL     1      37.679 -22.744 -16.041  0.00  0.00    -0.004 Cl
ATOM      6  N   UNL     1      36.404 -23.899 -15.677  0.00  0.00    -0.122 NA
ENDBRANCH   1   6
BRANCH   1   7
ATOM      7  C   UNL     1      36.070 -24.460 -13.351  0.00  0.00    +0.175 C 
BRANCH   7   8
ATOM      8  S   UNL     1      36.723 -25.142 -11.859  0.00  0.00    +0.024 S 
ATOM      9  O   UNL     1      35.362 -25.038 -10.965  0.00  0.00    -0.069 OA
ATOM     10  O   UNL     1      37.709 -24.226 -11.315  0.00  0.00    -0.069 OA
ATOM     11  O   UNL     1      37.029 -26.543 -12.081  0.00  0.00    -0.069 OA
ENDBRANCH   7   8
ENDBRANCH   1   7
TORSDOF 3
ENDMDL
MODEL 2
REMARK VINA RESULT:      -5.8     10.665     11.004
REMARK  Name = 11708365
REMARK  3 active torsions:
REMARK  status: ('A' for Active; 'I' for Inactive)
REMARK    1  A    between atoms: C_1  and  N_6
REMARK    2  A    between atoms: C_1  and  C_7
REMARK    3  A    between atoms: C_7  and  S_8
REMARK                            x       y       z     vdW  Elec       q    Type
REMARK                         _______ _______ _______ _____ _____    ______ ____
ROOT
ATOM      1  C   UNL     1      34.854 -18.925 -21.746  0.00  0.00    +0.098 C 
ATOM      2  C   UNL     1      34.880 -19.139 -23.265  0.00  0.00    +0.021 C 
ATOM      3  C   UNL     1      36.276 -18.686 -21.222  0.00  0.00    +0.021 C 
ENDROOT
BRANCH   1   6
ATOM      4 CL   UNL     1      35.447 -20.793 -19.922  0.00  0.00    -0.004 Cl
ATOM      5 CL   UNL     1      32.737 -19.931 -20.451  0.00  0.00    -0.004 Cl
ATOM      6  N   UNL     1      34.340 -20.163 -21.135  0.00  0.00    -0.122 NA
ENDBRANCH   1   6
BRANCH   1   7
ATOM      7  C   UNL     1      33.891 -17.798 -21.338  0.00  0.00    +0.175 C 
BRANCH   7   8
ATOM      8  S   UNL     1      34.515 -16.161 -21.551  0.00  0.00    +0.024 S 
ATOM      9  O   UNL     1      33.091 -15.430 -21.866  0.00  0.00    -0.069 OA
ATOM     10  O   UNL     1      35.334 -16.122 -22.749  0.00  0.00    -0.069 OA
ATOM     11  O   UNL     1      35.013 -15.681 -20.275  0.00  0.00    -0.069 OA
ENDBRANCH   7   8
ENDBRANCH   1   7
TORSDOF 3
ENDMDL
MODEL 3
REMARK VINA RESULT:      -5.7      1.515      2.308
REMARK  Name = 11708365
REMARK  3 active torsions:
REMARK  status: ('A' for Active; 'I' for Inactive)
REMARK    1  A    between atoms: C_1  and  N_6
REMARK    2  A    between atoms: C_1  and  C_7
REMARK    3  A    between atoms: C_7  and  S_8
REMARK                            x       y       z     vdW  Elec       q    Type
REMARK                         _______ _______ _______ _____ _____    ______ ____
ROOT
ATOM      1  C   UNL     1      36.654 -23.816 -14.105  0.00  0.00    +0.098 C 
ATOM      2  C   UNL     1      36.474 -25.307 -14.417  0.00  0.00    +0.021 C 
ATOM      3  C   UNL     1      35.510 -23.005 -14.727  0.00  0.00    +0.021 C 
ENDROOT
BRANCH   1   6
ATOM      4 CL   UNL     1      39.018 -24.737 -14.961  0.00  0.00    -0.004 Cl
ATOM      5 CL   UNL     1      37.636 -22.547 -16.249  0.00  0.00    -0.004 Cl
ATOM      6  N   UNL     1      37.918 -23.385 -14.729  0.00  0.00    -0.122 NA
ENDBRANCH   1   6
BRANCH   1   7
ATOM      7  C   UNL     1      36.795 -23.555 -12.597  0.00  0.00    +0.175 C 
BRANCH   7   8
ATOM      8  S   UNL     1      36.025 -24.751 -11.551  0.00  0.00    +0.024 S 
ATOM      9  O   UNL     1      36.308 -24.004 -10.129  0.00  0.00    -0.069 OA
ATOM     10  O   UNL     1      36.798 -25.980 -11.594  0.00  0.00    -0.069 OA
ATOM     11  O   UNL     1      34.597 -24.745 -11.806  0.00  0.00    -0.069 OA
ENDBRANCH   7   8
ENDBRANCH   1   7
TORSDOF 3
ENDMDL
MODEL 4
REMARK VINA RESULT:      -5.7      1.842      2.513
REMARK  Name = 11708365
REMARK  3 active torsions:
REMARK  status: ('A' for Active; 'I' for Inactive)
REMARK    1  A    between atoms: C_1  and  N_6
REMARK    2  A    between atoms: C_1  and  C_7
REMARK    3  A    between atoms: C_7  and  S_8
REMARK                            x       y       z     vdW  Elec       q    Type
REMARK                         _______ _______ _______ _____ _____    ______ ____
ROOT
ATOM      1  C   UNL     1      37.381 -25.287 -14.095  0.00  0.00    +0.098 C 
ATOM      2  C   UNL     1      37.803 -26.658 -14.639  0.00  0.00    +0.021 C 
ATOM      3  C   UNL     1      36.050 -24.857 -14.726  0.00  0.00    +0.021 C 
ENDROOT
BRANCH   1   6
ATOM      4 CL   UNL     1      39.868 -25.122 -15.072  0.00  0.00    -0.004 Cl
ATOM      5 CL   UNL     1      37.812 -23.187 -15.700  0.00  0.00    -0.004 Cl
ATOM      6  N   UNL     1      38.415 -24.317 -14.494  0.00  0.00    -0.122 NA
ENDBRANCH   1   6
BRANCH   1   7
ATOM      7  C   UNL     1      37.325 -25.267 -12.559  0.00  0.00    +0.175 C 
BRANCH   7   8
ATOM      8  S   UNL     1      37.330 -23.661 -11.827  0.00  0.00    +0.024 S 
ATOM      9  O   UNL     1      36.711 -24.087 -10.379  0.00  0.00    -0.069 OA
ATOM     10  O   UNL     1      36.366 -22.826 -12.519  0.00  0.00    -0.069 OA
ATOM     11  O   UNL     1      38.705 -23.237 -11.640  0.00  0.00    -0.069 OA
ENDBRANCH   7   8
ENDBRANCH   1   7
TORSDOF 3
ENDMDL
MODEL 5
REMARK VINA RESULT:      -5.7      1.787      2.234
REMARK  Name = 11708365
REMARK  3 active torsions:
REMARK  status: ('A' for Active; 'I' for Inactive)
REMARK    1  A    between atoms: C_1  and  N_6
REMARK    2  A    between atoms: C_1  and  C_7
REMARK    3  A    between atoms: C_7  and  S_8
REMARK                            x       y       z     vdW  Elec       q    Type
REMARK                         _______ _______ _______ _____ _____    ______ ____
ROOT
ATOM      1  C   UNL     1      37.360 -24.160 -14.741  0.00  0.00    +0.098 C 
ATOM      2  C   UNL     1      37.523 -22.923 -15.636  0.00  0.00    +0.021 C 
ATOM      3  C   UNL     1      38.684 -24.931 -14.661  0.00  0.00    +0.021 C 
ENDROOT
BRANCH   1   6
ATOM      4 CL   UNL     1      36.809 -26.727 -15.261  0.00  0.00    -0.004 Cl
ATOM      5 CL   UNL     1      34.754 -24.772 -14.698  0.00  0.00    -0.004 Cl
ATOM      6  N   UNL     1      36.356 -25.032 -15.375  0.00  0.00    -0.122 NA
ENDBRANCH   1   6
BRANCH   1   7
ATOM      7  C   UNL     1      36.817 -23.797 -13.350  0.00  0.00    +0.175 C 
BRANCH   7   8
ATOM      8  S   UNL     1      37.766 -24.403 -11.991  0.00  0.00    +0.024 S 
ATOM      9  O   UNL     1      36.732 -23.978 -10.803  0.00  0.00    -0.069 OA
ATOM     10  O   UNL     1      38.972 -23.605 -11.867  0.00  0.00    -0.069 OA
ATOM     11  O   UNL     1      37.819 -25.851 -12.066  0.00  0.00    -0.069 OA
ENDBRANCH   7   8
ENDBRANCH   1   7
TORSDOF 3
ENDMDL
MODEL 6
REMARK VINA RESULT:      -5.7      7.626      8.016
REMARK  Name = 11708365
REMARK  3 active torsions:
REMARK  status: ('A' for Active; 'I' for Inactive)
REMARK    1  A    between atoms: C_1  and  N_6
REMARK    2  A    between atoms: C_1  and  C_7
REMARK    3  A    between atoms: C_7  and  S_8
REMARK                            x       y       z     vdW  Elec       q    Type
REMARK                         _______ _______ _______ _____ _____    ______ ____
ROOT
ATOM      1  C   UNL     1      30.572 -23.702 -15.531  0.00  0.00    +0.098 C 
ATOM      2  C   UNL     1      30.574 -23.105 -14.118  0.00  0.00    +0.021 C 
ATOM      3  C   UNL     1      30.027 -25.136 -15.496  0.00  0.00    +0.021 C 
ENDROOT
BRANCH   1   6
ATOM      4 CL   UNL     1      32.224 -22.729 -17.399  0.00  0.00    -0.004 Cl
ATOM      5 CL   UNL     1      33.090 -23.324 -14.704  0.00  0.00    -0.004 Cl
ATOM      6  N   UNL     1      31.970 -23.752 -15.991  0.00  0.00    -0.122 NA
ENDBRANCH   1   6
BRANCH   1   7
ATOM      7  C   UNL     1      29.809 -22.818 -16.530  0.00  0.00    +0.175 C 
BRANCH   7   8
ATOM      8  S   UNL     1      28.063 -23.075 -16.582  0.00  0.00    +0.024 S 
ATOM      9  O   UNL     1      27.657 -21.641 -17.246  0.00  0.00    -0.069 OA
ATOM     10  O   UNL     1      27.554 -23.121 -15.224  0.00  0.00    -0.069 OA
ATOM     11  O   UNL     1      27.774 -24.129 -17.537  0.00  0.00    -0.069 OA
ENDBRANCH   7   8
ENDBRANCH   1   7
TORSDOF 3
ENDMDL
MODEL 7
REMARK VINA RESULT:      -5.6      2.079      2.996
REMARK  Name = 11708365
REMARK  3 active torsions:
REMARK  status: ('A' for Active; 'I' for Inactive)
REMARK    1  A    between atoms: C_1  and  N_6
REMARK    2  A    between atoms: C_1  and  C_7
REMARK    3  A    between atoms: C_7  and  S_8
REMARK                            x       y       z     vdW  Elec       q    Type
REMARK                         _______ _______ _______ _____ _____    ______ ____
ROOT
ATOM      1  C   UNL     1      36.819 -24.176 -14.920  0.00  0.00    +0.098 C 
ATOM      2  C   UNL     1      36.143 -25.553 -14.974  0.00  0.00    +0.021 C 
ATOM      3  C   UNL     1      36.384 -23.424 -13.655  0.00  0.00    +0.021 C 
ENDROOT
BRANCH   1   6
ATOM      4 CL   UNL     1      34.623 -23.121 -16.030  0.00  0.00    -0.004 Cl
ATOM      5 CL   UNL     1      37.234 -21.899 -16.266  0.00  0.00    -0.004 Cl
ATOM      6  N   UNL     1      36.357 -23.413 -16.092  0.00  0.00    -0.122 NA
ENDBRANCH   1   6
BRANCH   1   7
ATOM      7  C   UNL     1      38.348 -24.279 -15.035  0.00  0.00    +0.175 C 
BRANCH   7   8
ATOM      8  S   UNL     1      39.095 -25.532 -14.040  0.00  0.00    +0.024 S 
ATOM      9  O   UNL     1      40.616 -24.944 -14.064  0.00  0.00    -0.069 OA
ATOM     10  O   UNL     1      39.068 -26.788 -14.767  0.00  0.00    -0.069 OA
ATOM     11  O   UNL     1      38.576 -25.427 -12.689  0.00  0.00    -0.069 OA
ENDBRANCH   7   8
ENDBRANCH   1   7
TORSDOF 3
ENDMDL
MODEL 8
REMARK VINA RESULT:      -5.6      1.332      1.923
REMARK  Name = 11708365
REMARK  3 active torsions:
REMARK  status: ('A' for Active; 'I' for Inactive)
REMARK    1  A    between atoms: C_1  and  N_6
REMARK    2  A    between atoms: C_1  and  C_7
REMARK    3  A    between atoms: C_7  and  S_8
REMARK                            x       y       z     vdW  Elec       q    Type
REMARK                         _______ _______ _______ _____ _____    ______ ____
ROOT
ATOM      1  C   UNL     1      36.191 -24.335 -14.566  0.00  0.00    +0.098 C 
ATOM      2  C   UNL     1      36.790 -25.741 -14.702  0.00  0.00    +0.021 C 
ATOM      3  C   UNL     1      34.753 -24.423 -14.037  0.00  0.00    +0.021 C 
ENDROOT
BRANCH   1   6
ATOM      4 CL   UNL     1      34.559 -23.089 -16.285  0.00  0.00    -0.004 Cl
ATOM      5 CL   UNL     1      37.387 -22.509 -16.116  0.00  0.00    -0.004 Cl
ATOM      6  N   UNL     1      36.150 -23.741 -15.914  0.00  0.00    -0.122 NA
ENDBRANCH   1   6
BRANCH   1   7
ATOM      7  C   UNL     1      37.069 -23.414 -13.704  0.00  0.00    +0.175 C 
BRANCH   7   8
ATOM      8  S   UNL     1      38.049 -24.233 -12.486  0.00  0.00    +0.024 S 
ATOM      9  O   UNL     1      38.420 -22.919 -11.594  0.00  0.00    -0.069 OA
ATOM     10  O   UNL     1      39.261 -24.729 -13.113  0.00  0.00    -0.069 OA
ATOM     11  O   UNL     1      37.190 -25.102 -11.703  0.00  0.00    -0.069 OA
ENDBRANCH   7   8
ENDBRANCH   1   7
TORSDOF 3
ENDMDL
MODEL 9
REMARK VINA RESULT:      -5.5      2.622      3.688
REMARK  Name = 11708365
REMARK  3 active torsions:
REMARK  status: ('A' for Active; 'I' for Inactive)
REMARK    1  A    between atoms: C_1  and  N_6
REMARK    2  A    between atoms: C_1  and  C_7
REMARK    3  A    between atoms: C_7  and  S_8
REMARK                            x       y       z     vdW  Elec       q    Type
REMARK                         _______ _______ _______ _____ _____    ______ ____
ROOT
ATOM      1  C   UNL     1      37.288 -24.254 -14.593  0.00  0.00    +0.098 C 
ATOM      2  C   UNL     1      36.306 -25.382 -14.937  0.00  0.00    +0.021 C 
ATOM      3  C   UNL     1      37.489 -24.175 -13.074  0.00  0.00    +0.021 C 
ENDROOT
BRANCH   1   6
ATOM      4 CL   UNL     1      37.618 -22.249 -16.336  0.00  0.00    -0.004 Cl
ATOM      5 CL   UNL     1      35.010 -23.214 -15.541  0.00  0.00    -0.004 Cl
ATOM      6  N   UNL     1      36.682 -22.989 -15.044  0.00  0.00    -0.122 NA
ENDBRANCH   1   6
BRANCH   1   7
ATOM      7  C   UNL     1      38.620 -24.400 -15.346  0.00  0.00    +0.175 C 
BRANCH   7   8
ATOM      8  S   UNL     1      39.736 -25.593 -14.677  0.00  0.00    +0.024 S 
ATOM      9  O   UNL     1      40.547 -25.920 -16.054  0.00  0.00    -0.069 OA
ATOM     10  O   UNL     1      38.984 -26.773 -14.288  0.00  0.00    -0.069 OA
ATOM     11  O   UNL     1      40.634 -24.927 -13.753  0.00  0.00    -0.069 OA
ENDBRANCH   7   8
ENDBRANCH   1   7
TORSDOF 3
ENDMDL
