MODEL 1
REMARK VINA RESULT:      -7.7      0.000      0.000
REMARK  Name = 445245
REMARK  5 active torsions:
REMARK  status: ('A' for Active; 'I' for Inactive)
REMARK    1  A    between atoms: C_5  and  C_16
REMARK    2  A    between atoms: C_6  and  O_10
REMARK    3  A    between atoms: C_7  and  O_12
REMARK    4  A    between atoms: C_8  and  O_14
REMARK    5  A    between atoms: C_16  and  O_17
REMARK                            x       y       z     vdW  Elec       q    Type
REMARK                         _______ _______ _______ _____ _____    ______ ____
ROOT
ATOM      1  N   UNL     1      36.164 -25.659 -14.746  0.00  0.00    -0.212 N 
ATOM      2  N   UNL     1      36.009 -26.392 -15.857  0.00  0.00    -0.043 NA
ATOM      3  N   UNL     1      37.761 -27.122 -14.682  0.00  0.00    -0.110 NA
ATOM      4  N   UNL     1      36.994 -27.281 -15.816  0.00  0.00    -0.023 NA
ATOM      5  C   UNL     1      35.305 -24.532 -14.423  0.00  0.00    +0.167 C 
ATOM      6  C   UNL     1      35.503 -24.090 -12.951  0.00  0.00    +0.165 C 
ATOM      7  C   UNL     1      36.966 -24.166 -12.468  0.00  0.00    +0.173 C 
ATOM      8  C   UNL     1      37.615 -25.541 -12.712  0.00  0.00    +0.200 C 
ATOM      9  C   UNL     1      37.229 -26.115 -14.024  0.00  0.00    +0.190 A 
ENDROOT
BRANCH   6  10
ATOM     10  O   UNL     1      34.685 -24.904 -12.107  0.00  0.00    -0.380 OA
ATOM     11  H   UNL     1      33.824 -25.045 -12.529  0.00  0.00    +0.211 HD
ENDBRANCH   6  10
BRANCH   7  12
ATOM     12  O   UNL     1      37.727 -23.157 -13.127  0.00  0.00    -0.379 OA
ATOM     13  H   UNL     1      37.396 -23.041 -14.031  0.00  0.00    +0.211 HD
ENDBRANCH   7  12
BRANCH   8  14
ATOM     14  O   UNL     1      37.166 -26.473 -11.735  0.00  0.00    -0.375 OA
ATOM     15  H   UNL     1      36.870 -25.996 -10.945  0.00  0.00    +0.211 HD
ENDBRANCH   8  14
BRANCH   5  16
ATOM     16  C   UNL     1      35.544 -23.382 -15.405  0.00  0.00    +0.164 C 
BRANCH  16  17
ATOM     17  O   UNL     1      36.801 -23.578 -16.024  0.00  0.00    -0.380 OA
ATOM     18  H   UNL     1      37.227 -24.364 -15.645  0.00  0.00    +0.211 HD
ENDBRANCH  16  17
ENDBRANCH   5  16
TORSDOF 5
ENDMDL
MODEL 2
REMARK VINA RESULT:      -7.4      2.488      3.778
REMARK  Name = 445245
REMARK  5 active torsions:
REMARK  status: ('A' for Active; 'I' for Inactive)
REMARK    1  A    between atoms: C_5  and  C_16
REMARK    2  A    between atoms: C_6  and  O_10
REMARK    3  A    between atoms: C_7  and  O_12
REMARK    4  A    between atoms: C_8  and  O_14
REMARK    5  A    between atoms: C_16  and  O_17
REMARK                            x       y       z     vdW  Elec       q    Type
REMARK                         _______ _______ _______ _____ _____    ______ ____
ROOT
ATOM      1  N   UNL     1      38.136 -24.429 -12.901  0.00  0.00    -0.212 N 
ATOM      2  N   UNL     1      39.000 -23.736 -12.146  0.00  0.00    -0.043 NA
ATOM      3  N   UNL     1      36.971 -22.807 -12.060  0.00  0.00    -0.110 NA
ATOM      4  N   UNL     1      38.282 -22.740 -11.640  0.00  0.00    -0.023 NA
ATOM      5  C   UNL     1      38.532 -25.592 -13.677  0.00  0.00    +0.167 C 
ATOM      6  C   UNL     1      37.290 -26.371 -14.177  0.00  0.00    +0.165 C 
ATOM      7  C   UNL     1      36.115 -25.467 -14.602  0.00  0.00    +0.173 C 
ATOM      8  C   UNL     1      35.714 -24.445 -13.523  0.00  0.00    +0.200 C 
ATOM      9  C   UNL     1      36.895 -23.866 -12.837  0.00  0.00    +0.190 A 
ENDROOT
BRANCH   6  10
ATOM     10  O   UNL     1      36.851 -27.260 -13.145  0.00  0.00    -0.380 OA
ATOM     11  H   UNL     1      37.622 -27.633 -12.691  0.00  0.00    +0.211 HD
ENDBRANCH   6  10
BRANCH   7  12
ATOM     12  O   UNL     1      36.466 -24.781 -15.801  0.00  0.00    -0.379 OA
ATOM     13  H   UNL     1      36.308 -25.359 -16.563  0.00  0.00    +0.211 HD
ENDBRANCH   7  12
BRANCH   8  14
ATOM     14  O   UNL     1      34.951 -25.083 -12.505  0.00  0.00    -0.375 OA
ATOM     15  H   UNL     1      35.013 -26.046 -12.610  0.00  0.00    +0.211 HD
ENDBRANCH   8  14
BRANCH   5  16
ATOM     16  C   UNL     1      39.450 -25.176 -14.830  0.00  0.00    +0.164 C 
BRANCH  16  17
ATOM     17  O   UNL     1      39.018 -23.918 -15.312  0.00  0.00    -0.380 OA
ATOM     18  H   UNL     1      39.470 -23.212 -14.822  0.00  0.00    +0.211 HD
ENDBRANCH  16  17
ENDBRANCH   5  16
TORSDOF 5
ENDMDL
MODEL 3
REMARK VINA RESULT:      -7.2      2.233      3.816
REMARK  Name = 445245
REMARK  5 active torsions:
REMARK  status: ('A' for Active; 'I' for Inactive)
REMARK    1  A    between atoms: C_5  and  C_16
REMARK    2  A    between atoms: C_6  and  O_10
REMARK    3  A    between atoms: C_7  and  O_12
REMARK    4  A    between atoms: C_8  and  O_14
REMARK    5  A    between atoms: C_16  and  O_17
REMARK                            x       y       z     vdW  Elec       q    Type
REMARK                         _______ _______ _______ _____ _____    ______ ____
ROOT
ATOM      1  N   UNL     1      36.543 -25.199 -12.712  0.00  0.00    -0.212 N 
ATOM      2  N   UNL     1      36.419 -25.676 -11.465  0.00  0.00    -0.043 NA
ATOM      3  N   UNL     1      34.830 -24.165 -11.881  0.00  0.00    -0.110 NA
ATOM      4  N   UNL     1      35.374 -25.034 -10.960  0.00  0.00    -0.023 NA
ATOM      5  C   UNL     1      37.608 -25.615 -13.609  0.00  0.00    +0.167 C 
ATOM      6  C   UNL     1      37.315 -25.162 -15.061  0.00  0.00    +0.165 C 
ATOM      7  C   UNL     1      36.662 -23.769 -15.161  0.00  0.00    +0.173 C 
ATOM      8  C   UNL     1      35.404 -23.624 -14.286  0.00  0.00    +0.200 C 
ATOM      9  C   UNL     1      35.563 -24.284 -12.967  0.00  0.00    +0.190 A 
ENDROOT
BRANCH   6  10
ATOM     10  O   UNL     1      36.466 -26.127 -15.688  0.00  0.00    -0.380 OA
ATOM     11  H   UNL     1      35.576 -26.071 -15.306  0.00  0.00    +0.211 HD
ENDBRANCH   6  10
BRANCH   7  12
ATOM     12  O   UNL     1      37.618 -22.779 -14.788  0.00  0.00    -0.379 OA
ATOM     13  H   UNL     1      37.910 -22.939 -13.878  0.00  0.00    +0.211 HD
ENDBRANCH   7  12
BRANCH   8  14
ATOM     14  O   UNL     1      34.299 -24.268 -14.909  0.00  0.00    -0.375 OA
ATOM     15  H   UNL     1      33.998 -23.737 -15.663  0.00  0.00    +0.211 HD
ENDBRANCH   8  14
BRANCH   5  16
ATOM     16  C   UNL     1      38.959 -25.098 -13.107  0.00  0.00    +0.164 C 
BRANCH  16  17
ATOM     17  O   UNL     1      38.728 -23.961 -12.298  0.00  0.00    -0.380 OA
ATOM     18  H   UNL     1      37.861 -23.582 -12.514  0.00  0.00    +0.211 HD
ENDBRANCH  16  17
ENDBRANCH   5  16
TORSDOF 5
ENDMDL
MODEL 4
REMARK VINA RESULT:      -7.2      2.489      3.805
REMARK  Name = 445245
REMARK  5 active torsions:
REMARK  status: ('A' for Active; 'I' for Inactive)
REMARK    1  A    between atoms: C_5  and  C_16
REMARK    2  A    between atoms: C_6  and  O_10
REMARK    3  A    between atoms: C_7  and  O_12
REMARK    4  A    between atoms: C_8  and  O_14
REMARK    5  A    between atoms: C_16  and  O_17
REMARK                            x       y       z     vdW  Elec       q    Type
REMARK                         _______ _______ _______ _____ _____    ______ ____
ROOT
ATOM      1  N   UNL     1      36.787 -23.559 -12.933  0.00  0.00    -0.212 N 
ATOM      2  N   UNL     1      36.734 -22.689 -11.914  0.00  0.00    -0.043 NA
ATOM      3  N   UNL     1      38.655 -23.827 -11.868  0.00  0.00    -0.110 NA
ATOM      4  N   UNL     1      37.877 -22.863 -11.262  0.00  0.00    -0.023 NA
ATOM      5  C   UNL     1      35.698 -23.724 -13.880  0.00  0.00    +0.167 C 
ATOM      6  C   UNL     1      36.158 -24.538 -15.115  0.00  0.00    +0.165 C 
ATOM      7  C   UNL     1      37.127 -25.690 -14.777  0.00  0.00    +0.173 C 
ATOM      8  C   UNL     1      38.340 -25.237 -13.945  0.00  0.00    +0.200 C 
ATOM      9  C   UNL     1      37.967 -24.244 -12.908  0.00  0.00    +0.190 A 
ENDROOT
BRANCH   6  10
ATOM     10  O   UNL     1      36.783 -23.654 -16.049  0.00  0.00    -0.380 OA
ATOM     11  H   UNL     1      36.579 -23.941 -16.952  0.00  0.00    +0.211 HD
ENDBRANCH   6  10
BRANCH   7  12
ATOM     12  O   UNL     1      36.417 -26.704 -14.071  0.00  0.00    -0.379 OA
ATOM     13  H   UNL     1      37.049 -27.308 -13.652  0.00  0.00    +0.211 HD
ENDBRANCH   7  12
BRANCH   8  14
ATOM     14  O   UNL     1      39.290 -24.584 -14.780  0.00  0.00    -0.375 OA
ATOM     15  H   UNL     1      40.073 -25.147 -14.880  0.00  0.00    +0.211 HD
ENDBRANCH   8  14
BRANCH   5  16
ATOM     16  C   UNL     1      34.486 -24.358 -13.193  0.00  0.00    +0.164 C 
BRANCH  16  17
ATOM     17  O   UNL     1      34.928 -24.998 -12.011  0.00  0.00    -0.380 OA
ATOM     18  H   UNL     1      34.302 -25.700 -11.772  0.00  0.00    +0.211 HD
ENDBRANCH  16  17
ENDBRANCH   5  16
TORSDOF 5
ENDMDL
MODEL 5
REMARK VINA RESULT:      -7.1      2.337      3.409
REMARK  Name = 445245
REMARK  5 active torsions:
REMARK  status: ('A' for Active; 'I' for Inactive)
REMARK    1  A    between atoms: C_5  and  C_16
REMARK    2  A    between atoms: C_6  and  O_10
REMARK    3  A    between atoms: C_7  and  O_12
REMARK    4  A    between atoms: C_8  and  O_14
REMARK    5  A    between atoms: C_16  and  O_17
REMARK                            x       y       z     vdW  Elec       q    Type
REMARK                         _______ _______ _______ _____ _____    ______ ____
ROOT
ATOM      1  N   UNL     1      35.696 -24.303 -12.893  0.00  0.00    -0.212 N 
ATOM      2  N   UNL     1      35.033 -23.892 -11.802  0.00  0.00    -0.043 NA
ATOM      3  N   UNL     1      36.304 -25.662 -11.317  0.00  0.00    -0.110 NA
ATOM      4  N   UNL     1      35.404 -24.731 -10.844  0.00  0.00    -0.023 NA
ATOM      5  C   UNL     1      35.538 -23.672 -14.191  0.00  0.00    +0.167 C 
ATOM      6  C   UNL     1      36.649 -24.132 -15.168  0.00  0.00    +0.165 C 
ATOM      7  C   UNL     1      37.029 -25.620 -15.025  0.00  0.00    +0.173 C 
ATOM      8  C   UNL     1      37.379 -26.020 -13.580  0.00  0.00    +0.200 C 
ATOM      9  C   UNL     1      36.481 -25.378 -12.590  0.00  0.00    +0.190 A 
ENDROOT
BRANCH   6  10
ATOM     10  O   UNL     1      37.813 -23.327 -14.963  0.00  0.00    -0.380 OA
ATOM     11  H   UNL     1      38.607 -23.876 -15.055  0.00  0.00    +0.211 HD
ENDBRANCH   6  10
BRANCH   7  12
ATOM     12  O   UNL     1      35.948 -26.424 -15.493  0.00  0.00    -0.379 OA
ATOM     13  H   UNL     1      35.329 -26.589 -14.766  0.00  0.00    +0.211 HD
ENDBRANCH   7  12
BRANCH   8  14
ATOM     14  O   UNL     1      38.691 -25.578 -13.255  0.00  0.00    -0.375 OA
ATOM     15  H   UNL     1      38.776 -25.495 -12.292  0.00  0.00    +0.211 HD
ENDBRANCH   8  14
BRANCH   5  16
ATOM     16  C   UNL     1      34.137 -23.940 -14.747  0.00  0.00    +0.164 C 
BRANCH  16  17
ATOM     17  O   UNL     1      33.596 -25.058 -14.070  0.00  0.00    -0.380 OA
ATOM     18  H   UNL     1      32.627 -25.026 -14.119  0.00  0.00    +0.211 HD
ENDBRANCH  16  17
ENDBRANCH   5  16
TORSDOF 5
ENDMDL
MODEL 6
REMARK VINA RESULT:      -7.0      2.534      3.458
REMARK  Name = 445245
REMARK  5 active torsions:
REMARK  status: ('A' for Active; 'I' for Inactive)
REMARK    1  A    between atoms: C_5  and  C_16
REMARK    2  A    between atoms: C_6  and  O_10
REMARK    3  A    between atoms: C_7  and  O_12
REMARK    4  A    between atoms: C_8  and  O_14
REMARK    5  A    between atoms: C_16  and  O_17
REMARK                            x       y       z     vdW  Elec       q    Type
REMARK                         _______ _______ _______ _____ _____    ______ ____
ROOT
ATOM      1  N   UNL     1      36.147 -24.743 -12.854  0.00  0.00    -0.212 N 
ATOM      2  N   UNL     1      34.897 -24.851 -12.382  0.00  0.00    -0.043 NA
ATOM      3  N   UNL     1      36.340 -24.564 -10.702  0.00  0.00    -0.110 NA
ATOM      4  N   UNL     1      35.022 -24.748 -11.065  0.00  0.00    -0.023 NA
ATOM      5  C   UNL     1      36.464 -24.847 -14.267  0.00  0.00    +0.167 C 
ATOM      6  C   UNL     1      37.908 -24.363 -14.547  0.00  0.00    +0.165 C 
ATOM      7  C   UNL     1      38.921 -24.757 -13.453  0.00  0.00    +0.173 C 
ATOM      8  C   UNL     1      38.477 -24.344 -12.038  0.00  0.00    +0.200 C 
ATOM      9  C   UNL     1      37.025 -24.556 -11.825  0.00  0.00    +0.190 A 
ENDROOT
BRANCH   6  10
ATOM     10  O   UNL     1      37.903 -22.940 -14.694  0.00  0.00    -0.380 OA
ATOM     11  H   UNL     1      37.404 -22.700 -15.491  0.00  0.00    +0.211 HD
ENDBRANCH   6  10
BRANCH   7  12
ATOM     12  O   UNL     1      39.128 -26.167 -13.496  0.00  0.00    -0.379 OA
ATOM     13  H   UNL     1      39.065 -26.475 -14.413  0.00  0.00    +0.211 HD
ENDBRANCH   7  12
BRANCH   8  14
ATOM     14  O   UNL     1      38.697 -22.952 -11.844  0.00  0.00    -0.375 OA
ATOM     15  H   UNL     1      38.373 -22.462 -12.616  0.00  0.00    +0.211 HD
ENDBRANCH   8  14
BRANCH   5  16
ATOM     16  C   UNL     1      36.232 -26.277 -14.761  0.00  0.00    +0.164 C 
BRANCH  16  17
ATOM     17  O   UNL     1      37.167 -26.552 -15.786  0.00  0.00    -0.380 OA
ATOM     18  H   UNL     1      36.701 -26.636 -16.634  0.00  0.00    +0.211 HD
ENDBRANCH  16  17
ENDBRANCH   5  16
TORSDOF 5
ENDMDL
MODEL 7
REMARK VINA RESULT:      -6.9      2.065      2.784
REMARK  Name = 445245
REMARK  5 active torsions:
REMARK  status: ('A' for Active; 'I' for Inactive)
REMARK    1  A    between atoms: C_5  and  C_16
REMARK    2  A    between atoms: C_6  and  O_10
REMARK    3  A    between atoms: C_7  and  O_12
REMARK    4  A    between atoms: C_8  and  O_14
REMARK    5  A    between atoms: C_16  and  O_17
REMARK                            x       y       z     vdW  Elec       q    Type
REMARK                         _______ _______ _______ _____ _____    ______ ____
ROOT
ATOM      1  N   UNL     1      38.546 -25.965 -14.166  0.00  0.00    -0.212 N 
ATOM      2  N   UNL     1      39.447 -26.751 -14.772  0.00  0.00    -0.043 NA
ATOM      3  N   UNL     1      40.394 -24.832 -14.135  0.00  0.00    -0.110 NA
ATOM      4  N   UNL     1      40.574 -26.049 -14.756  0.00  0.00    -0.023 NA
ATOM      5  C   UNL     1      37.153 -26.344 -14.011  0.00  0.00    +0.167 C 
ATOM      6  C   UNL     1      36.435 -25.412 -13.003  0.00  0.00    +0.165 C 
ATOM      7  C   UNL     1      36.874 -23.936 -13.098  0.00  0.00    +0.173 C 
ATOM      8  C   UNL     1      38.399 -23.750 -13.015  0.00  0.00    +0.200 C 
ATOM      9  C   UNL     1      39.131 -24.798 -13.767  0.00  0.00    +0.190 A 
ENDROOT
BRANCH   6  10
ATOM     10  O   UNL     1      36.672 -25.889 -11.676  0.00  0.00    -0.380 OA
ATOM     11  H   UNL     1      36.174 -26.710 -11.534  0.00  0.00    +0.211 HD
ENDBRANCH   6  10
BRANCH   7  12
ATOM     12  O   UNL     1      36.392 -23.385 -14.321  0.00  0.00    -0.379 OA
ATOM     13  H   UNL     1      36.246 -24.098 -14.961  0.00  0.00    +0.211 HD
ENDBRANCH   7  12
BRANCH   8  14
ATOM     14  O   UNL     1      38.833 -23.869 -11.665  0.00  0.00    -0.375 OA
ATOM     15  H   UNL     1      38.074 -24.073 -11.098  0.00  0.00    +0.211 HD
ENDBRANCH   8  14
BRANCH   5  16
ATOM     16  C   UNL     1      36.452 -26.367 -15.372  0.00  0.00    +0.164 C 
BRANCH  16  17
ATOM     17  O   UNL     1      37.062 -27.362 -16.170  0.00  0.00    -0.380 OA
ATOM     18  H   UNL     1      37.690 -27.869 -15.631  0.00  0.00    +0.211 HD
ENDBRANCH  16  17
ENDBRANCH   5  16
TORSDOF 5
ENDMDL
MODEL 8
REMARK VINA RESULT:      -6.9      1.025      3.211
REMARK  Name = 445245
REMARK  5 active torsions:
REMARK  status: ('A' for Active; 'I' for Inactive)
REMARK    1  A    between atoms: C_5  and  C_16
REMARK    2  A    between atoms: C_6  and  O_10
REMARK    3  A    between atoms: C_7  and  O_12
REMARK    4  A    between atoms: C_8  and  O_14
REMARK    5  A    between atoms: C_16  and  O_17
REMARK                            x       y       z     vdW  Elec       q    Type
REMARK                         _______ _______ _______ _____ _____    ______ ____
ROOT
ATOM      1  N   UNL     1      37.339 -25.756 -14.486  0.00  0.00    -0.212 N 
ATOM      2  N   UNL     1      37.991 -26.878 -14.823  0.00  0.00    -0.043 NA
ATOM      3  N   UNL     1      36.040 -26.759 -15.902  0.00  0.00    -0.110 NA
ATOM      4  N   UNL     1      37.188 -27.491 -15.683  0.00  0.00    -0.023 NA
ATOM      5  C   UNL     1      37.860 -24.806 -13.518  0.00  0.00    +0.167 C 
ATOM      6  C   UNL     1      37.073 -23.473 -13.574  0.00  0.00    +0.165 C 
ATOM      7  C   UNL     1      35.559 -23.651 -13.809  0.00  0.00    +0.173 C 
ATOM      8  C   UNL     1      35.234 -24.522 -15.036  0.00  0.00    +0.200 C 
ATOM      9  C   UNL     1      36.152 -25.681 -15.156  0.00  0.00    +0.190 A 
ENDROOT
BRANCH   6  10
ATOM     10  O   UNL     1      37.618 -22.653 -14.611  0.00  0.00    -0.380 OA
ATOM     11  H   UNL     1      38.273 -22.046 -14.233  0.00  0.00    +0.211 HD
ENDBRANCH   6  10
BRANCH   7  12
ATOM     12  O   UNL     1      34.972 -24.229 -12.646  0.00  0.00    -0.379 OA
ATOM     13  H   UNL     1      34.597 -23.528 -12.091  0.00  0.00    +0.211 HD
ENDBRANCH   7  12
BRANCH   8  14
ATOM     14  O   UNL     1      35.406 -23.767 -16.230  0.00  0.00    -0.375 OA
ATOM     15  H   UNL     1      35.366 -24.361 -16.996  0.00  0.00    +0.211 HD
ENDBRANCH   8  14
BRANCH   5  16
ATOM     16  C   UNL     1      37.854 -25.419 -12.115  0.00  0.00    +0.164 C 
BRANCH  16  17
ATOM     17  O   UNL     1      36.867 -26.431 -12.075  0.00  0.00    -0.380 OA
ATOM     18  H   UNL     1      36.603 -26.587 -11.154  0.00  0.00    +0.211 HD
ENDBRANCH  16  17
ENDBRANCH   5  16
TORSDOF 5
ENDMDL
MODEL 9
REMARK VINA RESULT:      -6.9      2.140      3.396
REMARK  Name = 445245
REMARK  5 active torsions:
REMARK  status: ('A' for Active; 'I' for Inactive)
REMARK    1  A    between atoms: C_5  and  C_16
REMARK    2  A    between atoms: C_6  and  O_10
REMARK    3  A    between atoms: C_7  and  O_12
REMARK    4  A    between atoms: C_8  and  O_14
REMARK    5  A    between atoms: C_16  and  O_17
REMARK                            x       y       z     vdW  Elec       q    Type
REMARK                         _______ _______ _______ _____ _____    ______ ____
ROOT
ATOM      1  N   UNL     1      38.900 -24.859 -14.314  0.00  0.00    -0.212 N 
ATOM      2  N   UNL     1      40.215 -24.604 -14.273  0.00  0.00    -0.043 NA
ATOM      3  N   UNL     1      39.856 -26.778 -14.635  0.00  0.00    -0.110 NA
ATOM      4  N   UNL     1      40.795 -25.783 -14.462  0.00  0.00    -0.023 NA
ATOM      5  C   UNL     1      37.895 -23.832 -14.105  0.00  0.00    +0.167 C 
ATOM      6  C   UNL     1      36.493 -24.336 -14.529  0.00  0.00    +0.165 C 
ATOM      7  C   UNL     1      36.231 -25.816 -14.183  0.00  0.00    +0.173 C 
ATOM      8  C   UNL     1      37.327 -26.763 -14.703  0.00  0.00    +0.200 C 
ATOM      9  C   UNL     1      38.684 -26.187 -14.547  0.00  0.00    +0.190 A 
ENDROOT
BRANCH   6  10
ATOM     10  O   UNL     1      36.335 -24.146 -15.937  0.00  0.00    -0.380 OA
ATOM     11  H   UNL     1      35.512 -23.663 -16.109  0.00  0.00    +0.211 HD
ENDBRANCH   6  10
BRANCH   7  12
ATOM     12  O   UNL     1      36.117 -25.951 -12.768  0.00  0.00    -0.379 OA
ATOM     13  H   UNL     1      36.974 -26.215 -12.399  0.00  0.00    +0.211 HD
ENDBRANCH   7  12
BRANCH   8  14
ATOM     14  O   UNL     1      37.159 -26.984 -16.099  0.00  0.00    -0.375 OA
ATOM     15  H   UNL     1      36.523 -27.701 -16.240  0.00  0.00    +0.211 HD
ENDBRANCH   8  14
BRANCH   5  16
ATOM     16  C   UNL     1      37.917 -23.353 -12.651  0.00  0.00    +0.164 C 
BRANCH  16  17
ATOM     17  O   UNL     1      38.432 -24.396 -11.846  0.00  0.00    -0.380 OA
ATOM     18  H   UNL     1      39.208 -24.075 -11.360  0.00  0.00    +0.211 HD
ENDBRANCH  16  17
ENDBRANCH   5  16
TORSDOF 5
ENDMDL
