MODEL 1
REMARK VINA RESULT:      -9.7      0.000      0.000
REMARK  Name = 15991546
REMARK  3 active torsions:
REMARK  status: ('A' for Active; 'I' for Inactive)
REMARK    1  A    between atoms: N_2  and  C_15
REMARK    2  A    between atoms: C_3  and  C_8
REMARK    3  A    between atoms: C_16  and  O_24
REMARK                            x       y       z     vdW  Elec       q    Type
REMARK                         _______ _______ _______ _____ _____    ______ ____
ROOT
ATOM      1  O   UNL     1      32.599 -23.906 -16.734  0.00  0.00    -0.269 OA
ATOM      2  N   UNL     1      34.883 -23.988 -16.339  0.00  0.00    -0.298 N 
ATOM      3  C   UNL     1      33.744 -23.537 -16.986  0.00  0.00    +0.259 C 
ATOM      4  H   UNL     1      35.758 -23.630 -16.614  0.00  0.00    +0.150 HD
ENDROOT
BRANCH   3   8
ATOM      5 CL   UNL     1      34.984 -18.601 -22.450  0.00  0.00    -0.075 Cl
ATOM      6  S   UNL     1      32.969 -20.081 -20.805  0.00  0.00    -0.061 S 
ATOM      7  N   UNL     1      32.924 -21.966 -18.718  0.00  0.00    -0.304 N 
ATOM      8  C   UNL     1      33.966 -22.553 -18.076  0.00  0.00    +0.103 C 
ATOM      9  C   UNL     1      35.173 -22.137 -18.540  0.00  0.00    +0.021 C 
ATOM     10  C   UNL     1      34.817 -21.236 -19.535  0.00  0.00    +0.022 C 
ATOM     11  C   UNL     1      33.485 -21.141 -19.634  0.00  0.00    +0.080 C 
ATOM     12  C   UNL     1      35.539 -20.439 -20.420  0.00  0.00    +0.020 C 
ATOM     13  C   UNL     1      34.635 -19.727 -21.204  0.00  0.00    +0.088 C 
ATOM     14  H   UNL     1      31.964 -22.111 -18.554  0.00  0.00    +0.153 HD
ENDBRANCH   3   8
BRANCH   2  15
ATOM     15  C   UNL     1      34.831 -24.965 -15.272  0.00  0.00    +0.107 C 
ATOM     16  C   UNL     1      36.196 -25.672 -15.117  0.00  0.00    +0.151 C 
ATOM     17  C   UNL     1      34.526 -24.291 -13.918  0.00  0.00    +0.048 C 
ATOM     18  C   UNL     1      36.840 -24.869 -14.029  0.00  0.00    +0.002 C 
ATOM     19  C   UNL     1      35.899 -24.080 -13.360  0.00  0.00    -0.022 C 
ATOM     20  C   UNL     1      38.174 -24.863 -13.652  0.00  0.00    -0.002 C 
ATOM     21  C   UNL     1      36.269 -23.275 -12.295  0.00  0.00    -0.004 C 
ATOM     22  C   UNL     1      38.558 -24.045 -12.588  0.00  0.00    -0.000 C 
ATOM     23  C   UNL     1      37.613 -23.256 -11.914  0.00  0.00    -0.000 C 
BRANCH  16  24
ATOM     24  O   UNL     1      36.018 -27.006 -14.669  0.00  0.00    -0.378 OA
ATOM     25  H   UNL     1      36.056 -27.610 -15.428  0.00  0.00    +0.211 HD
ENDBRANCH  16  24
ENDBRANCH   2  15
TORSDOF 3
ENDMDL
MODEL 2
REMARK VINA RESULT:      -8.9      6.802      9.426
REMARK  Name = 15991546
REMARK  3 active torsions:
REMARK  status: ('A' for Active; 'I' for Inactive)
REMARK    1  A    between atoms: N_2  and  C_15
REMARK    2  A    between atoms: C_3  and  C_8
REMARK    3  A    between atoms: C_16  and  O_24
REMARK                            x       y       z     vdW  Elec       q    Type
REMARK                         _______ _______ _______ _____ _____    ______ ____
ROOT
ATOM      1  O   UNL     1      33.760 -15.758 -24.319  0.00  0.00    -0.269 OA
ATOM      2  N   UNL     1      34.472 -16.710 -22.328  0.00  0.00    -0.298 N 
ATOM      3  C   UNL     1      33.828 -15.751 -23.092  0.00  0.00    +0.259 C 
ATOM      4  H   UNL     1      34.470 -16.616 -21.348  0.00  0.00    +0.150 HD
ENDROOT
BRANCH   3   8
ATOM      5 CL   UNL     1      30.731 -10.189 -19.190  0.00  0.00    -0.075 Cl
ATOM      6  S   UNL     1      31.407 -11.300 -21.885  0.00  0.00    -0.061 S 
ATOM      7  N   UNL     1      32.655 -13.571 -22.978  0.00  0.00    -0.304 N 
ATOM      8  C   UNL     1      33.207 -14.633 -22.337  0.00  0.00    +0.103 C 
ATOM      9  C   UNL     1      33.116 -14.538 -20.986  0.00  0.00    +0.021 C 
ATOM     10  C   UNL     1      32.461 -13.326 -20.814  0.00  0.00    +0.022 C 
ATOM     11  C   UNL     1      32.192 -12.760 -21.997  0.00  0.00    +0.080 C 
ATOM     12  C   UNL     1      32.040 -12.604 -19.699  0.00  0.00    +0.020 C 
ATOM     13  C   UNL     1      31.428 -11.434 -20.141  0.00  0.00    +0.088 C 
ATOM     14  H   UNL     1      32.604 -13.421 -23.950  0.00  0.00    +0.153 HD
ENDBRANCH   3   8
BRANCH   2  15
ATOM     15  C   UNL     1      35.145 -17.848 -22.920  0.00  0.00    +0.107 C 
ATOM     16  C   UNL     1      36.466 -18.143 -22.176  0.00  0.00    +0.151 C 
ATOM     17  C   UNL     1      34.281 -19.122 -22.810  0.00  0.00    +0.048 C 
ATOM     18  C   UNL     1      36.046 -19.201 -21.203  0.00  0.00    +0.002 C 
ATOM     19  C   UNL     1      34.806 -19.745 -21.553  0.00  0.00    -0.022 C 
ATOM     20  C   UNL     1      36.737 -19.658 -20.092  0.00  0.00    -0.002 C 
ATOM     21  C   UNL     1      34.234 -20.761 -20.806  0.00  0.00    -0.004 C 
ATOM     22  C   UNL     1      36.163 -20.674 -19.326  0.00  0.00    -0.000 C 
ATOM     23  C   UNL     1      34.921 -21.223 -19.680  0.00  0.00    -0.000 C 
BRANCH  16  24
ATOM     24  O   UNL     1      37.428 -18.685 -23.067  0.00  0.00    -0.378 OA
ATOM     25  H   UNL     1      38.229 -18.922 -22.574  0.00  0.00    +0.211 HD
ENDBRANCH  16  24
ENDBRANCH   2  15
TORSDOF 3
ENDMDL
MODEL 3
REMARK VINA RESULT:      -8.8      3.774      5.594
REMARK  Name = 15991546
REMARK  3 active torsions:
REMARK  status: ('A' for Active; 'I' for Inactive)
REMARK    1  A    between atoms: N_2  and  C_15
REMARK    2  A    between atoms: C_3  and  C_8
REMARK    3  A    between atoms: C_16  and  O_24
REMARK                            x       y       z     vdW  Elec       q    Type
REMARK                         _______ _______ _______ _____ _____    ______ ____
ROOT
ATOM      1  O   UNL     1      33.813 -24.321 -17.730  0.00  0.00    -0.269 OA
ATOM      2  N   UNL     1      32.410 -22.706 -16.836  0.00  0.00    -0.298 N 
ATOM      3  C   UNL     1      33.377 -23.173 -17.710  0.00  0.00    +0.259 C 
ATOM      4  H   UNL     1      32.126 -21.766 -16.899  0.00  0.00    +0.150 HD
ENDROOT
BRANCH   3   8
ATOM      5 CL   UNL     1      36.232 -18.180 -22.474  0.00  0.00    -0.075 Cl
ATOM      6  S   UNL     1      33.773 -19.403 -21.283  0.00  0.00    -0.061 S 
ATOM      7  N   UNL     1      33.100 -21.381 -19.400  0.00  0.00    -0.304 N 
ATOM      8  C   UNL     1      33.922 -22.173 -18.664  0.00  0.00    +0.103 C 
ATOM      9  C   UNL     1      35.237 -21.936 -18.905  0.00  0.00    +0.021 C 
ATOM     10  C   UNL     1      35.191 -20.928 -19.859  0.00  0.00    +0.022 C 
ATOM     11  C   UNL     1      33.923 -20.605 -20.146  0.00  0.00    +0.080 C 
ATOM     12  C   UNL     1      36.160 -20.208 -20.553  0.00  0.00    +0.020 C 
ATOM     13  C   UNL     1      35.516 -19.308 -21.397  0.00  0.00    +0.088 C 
ATOM     14  H   UNL     1      32.117 -21.373 -19.394  0.00  0.00    +0.153 HD
ENDBRANCH   3   8
BRANCH   2  15
ATOM     15  C   UNL     1      31.801 -23.554 -15.832  0.00  0.00    +0.107 C 
ATOM     16  C   UNL     1      31.054 -22.701 -14.783  0.00  0.00    +0.151 C 
ATOM     17  C   UNL     1      30.753 -24.494 -16.464  0.00  0.00    +0.048 C 
ATOM     18  C   UNL     1      29.651 -22.719 -15.307  0.00  0.00    +0.002 C 
ATOM     19  C   UNL     1      29.484 -23.723 -16.266  0.00  0.00    -0.022 C 
ATOM     20  C   UNL     1      28.593 -21.904 -14.935  0.00  0.00    -0.002 C 
ATOM     21  C   UNL     1      28.255 -23.941 -16.867  0.00  0.00    -0.004 C 
ATOM     22  C   UNL     1      27.355 -22.108 -15.545  0.00  0.00    -0.000 C 
ATOM     23  C   UNL     1      27.186 -23.119 -16.503  0.00  0.00    -0.000 C 
BRANCH  16  24
ATOM     24  O   UNL     1      31.086 -23.334 -13.513  0.00  0.00    -0.378 OA
ATOM     25  H   UNL     1      31.781 -24.010 -13.506  0.00  0.00    +0.211 HD
ENDBRANCH  16  24
ENDBRANCH   2  15
TORSDOF 3
ENDMDL
MODEL 4
REMARK VINA RESULT:      -8.3      9.658     14.207
REMARK  Name = 15991546
REMARK  3 active torsions:
REMARK  status: ('A' for Active; 'I' for Inactive)
REMARK    1  A    between atoms: N_2  and  C_15
REMARK    2  A    between atoms: C_3  and  C_8
REMARK    3  A    between atoms: C_16  and  O_24
REMARK                            x       y       z     vdW  Elec       q    Type
REMARK                         _______ _______ _______ _____ _____    ______ ____
ROOT
ATOM      1  O   UNL     1      31.939 -12.641 -19.649  0.00  0.00    -0.269 OA
ATOM      2  N   UNL     1      31.934 -11.587 -21.714  0.00  0.00    -0.298 N 
ATOM      3  C   UNL     1      32.194 -12.637 -20.851  0.00  0.00    +0.259 C 
ATOM      4  H   UNL     1      32.175 -11.680 -22.663  0.00  0.00    +0.150 HD
ENDROOT
BRANCH   3   8
ATOM      5 CL   UNL     1      35.533 -18.640 -23.782  0.00  0.00    -0.075 Cl
ATOM      6  S   UNL     1      34.184 -16.015 -24.281  0.00  0.00    -0.061 S 
ATOM      7  N   UNL     1      33.000 -13.936 -22.802  0.00  0.00    -0.304 N 
ATOM      8  C   UNL     1      32.855 -13.822 -21.456  0.00  0.00    +0.103 C 
ATOM      9  C   UNL     1      33.370 -14.880 -20.779  0.00  0.00    +0.021 C 
ATOM     10  C   UNL     1      33.856 -15.684 -21.802  0.00  0.00    +0.022 C 
ATOM     11  C   UNL     1      33.633 -15.118 -22.996  0.00  0.00    +0.080 C 
ATOM     12  C   UNL     1      34.506 -16.915 -21.839  0.00  0.00    +0.020 C 
ATOM     13  C   UNL     1      34.757 -17.238 -23.169  0.00  0.00    +0.088 C 
ATOM     14  H   UNL     1      32.706 -13.297 -23.490  0.00  0.00    +0.153 HD
ENDBRANCH   3   8
BRANCH   2  15
ATOM     15  C   UNL     1      31.316 -10.354 -21.269  0.00  0.00    +0.107 C 
ATOM     16  C   UNL     1      32.384  -9.375 -20.734  0.00  0.00    +0.151 C 
ATOM     17  C   UNL     1      30.604  -9.639 -22.437  0.00  0.00    +0.048 C 
ATOM     18  C   UNL     1      32.657  -8.525 -21.937  0.00  0.00    +0.002 C 
ATOM     19  C   UNL     1      31.659  -8.683 -22.904  0.00  0.00    -0.022 C 
ATOM     20  C   UNL     1      33.716  -7.654 -22.142  0.00  0.00    -0.002 C 
ATOM     21  C   UNL     1      31.692  -7.970 -24.090  0.00  0.00    -0.004 C 
ATOM     22  C   UNL     1      33.765  -6.940 -23.340  0.00  0.00    -0.000 C 
ATOM     23  C   UNL     1      32.761  -7.096 -24.308  0.00  0.00    -0.000 C 
BRANCH  16  24
ATOM     24  O   UNL     1      31.844  -8.564 -19.703  0.00  0.00    -0.378 OA
ATOM     25  H   UNL     1      30.888  -8.466 -19.835  0.00  0.00    +0.211 HD
ENDBRANCH  16  24
ENDBRANCH   2  15
TORSDOF 3
ENDMDL
MODEL 5
REMARK VINA RESULT:      -8.2      2.918      4.390
REMARK  Name = 15991546
REMARK  3 active torsions:
REMARK  status: ('A' for Active; 'I' for Inactive)
REMARK    1  A    between atoms: N_2  and  C_15
REMARK    2  A    between atoms: C_3  and  C_8
REMARK    3  A    between atoms: C_16  and  O_24
REMARK                            x       y       z     vdW  Elec       q    Type
REMARK                         _______ _______ _______ _____ _____    ______ ____
ROOT
ATOM      1  O   UNL     1      34.172 -23.607 -19.719  0.00  0.00    -0.269 OA
ATOM      2  N   UNL     1      34.170 -22.443 -17.714  0.00  0.00    -0.298 N 
ATOM      3  C   UNL     1      34.234 -22.552 -19.092  0.00  0.00    +0.259 C 
ATOM      4  H   UNL     1      34.229 -21.550 -17.305  0.00  0.00    +0.150 HD
ENDROOT
BRANCH   3   8
ATOM      5 CL   UNL     1      35.028 -16.126 -22.812  0.00  0.00    -0.075 Cl
ATOM      6  S   UNL     1      36.355 -18.552 -21.667  0.00  0.00    -0.061 S 
ATOM      7  N   UNL     1      35.644 -20.878 -20.255  0.00  0.00    -0.304 N 
ATOM      8  C   UNL     1      34.416 -21.278 -19.833  0.00  0.00    +0.103 C 
ATOM      9  C   UNL     1      33.434 -20.402 -20.167  0.00  0.00    +0.021 C 
ATOM     10  C   UNL     1      34.133 -19.406 -20.835  0.00  0.00    +0.022 C 
ATOM     11  C   UNL     1      35.440 -19.695 -20.883  0.00  0.00    +0.080 C 
ATOM     12  C   UNL     1      33.764 -18.210 -21.446  0.00  0.00    +0.020 C 
ATOM     13  C   UNL     1      34.910 -17.611 -21.962  0.00  0.00    +0.088 C 
ATOM     14  H   UNL     1      36.500 -21.346 -20.129  0.00  0.00    +0.153 HD
ENDBRANCH   3   8
BRANCH   2  15
ATOM     15  C   UNL     1      34.019 -23.598 -16.852  0.00  0.00    +0.107 C 
ATOM     16  C   UNL     1      33.939 -23.163 -15.372  0.00  0.00    +0.151 C 
ATOM     17  C   UNL     1      32.708 -24.352 -17.163  0.00  0.00    +0.048 C 
ATOM     18  C   UNL     1      32.460 -23.098 -15.145  0.00  0.00    +0.002 C 
ATOM     19  C   UNL     1      31.764 -23.758 -16.163  0.00  0.00    -0.022 C 
ATOM     20  C   UNL     1      31.786 -22.505 -14.089  0.00  0.00    -0.002 C 
ATOM     21  C   UNL     1      30.382 -23.847 -16.144  0.00  0.00    -0.004 C 
ATOM     22  C   UNL     1      30.393 -22.579 -14.067  0.00  0.00    -0.000 C 
ATOM     23  C   UNL     1      29.695 -23.245 -15.086  0.00  0.00    -0.000 C 
BRANCH  16  24
ATOM     24  O   UNL     1      34.496 -24.161 -14.530  0.00  0.00    -0.378 OA
ATOM     25  H   UNL     1      34.159 -24.047 -13.628  0.00  0.00    +0.211 HD
ENDBRANCH  16  24
ENDBRANCH   2  15
TORSDOF 3
ENDMDL
MODEL 6
REMARK VINA RESULT:      -8.2      4.205      8.494
REMARK  Name = 15991546
REMARK  3 active torsions:
REMARK  status: ('A' for Active; 'I' for Inactive)
REMARK    1  A    between atoms: N_2  and  C_15
REMARK    2  A    between atoms: C_3  and  C_8
REMARK    3  A    between atoms: C_16  and  O_24
REMARK                            x       y       z     vdW  Elec       q    Type
REMARK                         _______ _______ _______ _____ _____    ______ ____
ROOT
ATOM      1  O   UNL     1      37.121 -21.642 -20.303  0.00  0.00    -0.269 OA
ATOM      2  N   UNL     1      35.323 -20.219 -19.961  0.00  0.00    -0.298 N 
ATOM      3  C   UNL     1      36.207 -21.221 -19.598  0.00  0.00    +0.259 C 
ATOM      4  H   UNL     1      34.622 -19.951 -19.324  0.00  0.00    +0.150 HD
ENDROOT
BRANCH   3   8
ATOM      5 CL   UNL     1      35.210 -24.225 -12.834  0.00  0.00    -0.075 Cl
ATOM      6  S   UNL     1      34.034 -23.628 -15.521  0.00  0.00    -0.061 S 
ATOM      7  N   UNL     1      34.800 -22.402 -17.934  0.00  0.00    -0.304 N 
ATOM      8  C   UNL     1      35.986 -21.824 -18.259  0.00  0.00    +0.103 C 
ATOM      9  C   UNL     1      36.890 -21.874 -17.248  0.00  0.00    +0.021 C 
ATOM     10  C   UNL     1      36.186 -22.530 -16.247  0.00  0.00    +0.022 C 
ATOM     11  C   UNL     1      34.951 -22.838 -16.661  0.00  0.00    +0.080 C 
ATOM     12  C   UNL     1      36.493 -22.919 -14.946  0.00  0.00    +0.020 C 
ATOM     13  C   UNL     1      35.378 -23.552 -14.403  0.00  0.00    +0.088 C 
ATOM     14  H   UNL     1      34.001 -22.484 -18.502  0.00  0.00    +0.153 HD
ENDBRANCH   3   8
BRANCH   2  15
ATOM     15  C   UNL     1      35.394 -19.551 -21.244  0.00  0.00    +0.107 C 
ATOM     16  C   UNL     1      33.977 -19.263 -21.785  0.00  0.00    +0.151 C 
ATOM     17  C   UNL     1      36.106 -18.186 -21.118  0.00  0.00    +0.048 C 
ATOM     18  C   UNL     1      33.750 -17.854 -21.332  0.00  0.00    +0.002 C 
ATOM     19  C   UNL     1      34.950 -17.250 -20.943  0.00  0.00    -0.022 C 
ATOM     20  C   UNL     1      32.554 -17.155 -21.290  0.00  0.00    -0.002 C 
ATOM     21  C   UNL     1      34.982 -15.933 -20.513  0.00  0.00    -0.004 C 
ATOM     22  C   UNL     1      32.575 -15.832 -20.846  0.00  0.00    -0.000 C 
ATOM     23  C   UNL     1      33.779 -15.224 -20.460  0.00  0.00    -0.000 C 
BRANCH  16  24
ATOM     24  O   UNL     1      33.968 -19.303 -23.204  0.00  0.00    -0.378 OA
ATOM     25  H   UNL     1      34.718 -19.833 -23.517  0.00  0.00    +0.211 HD
ENDBRANCH  16  24
ENDBRANCH   2  15
TORSDOF 3
ENDMDL
MODEL 7
REMARK VINA RESULT:      -7.9      1.590      2.244
REMARK  Name = 15991546
REMARK  3 active torsions:
REMARK  status: ('A' for Active; 'I' for Inactive)
REMARK    1  A    between atoms: N_2  and  C_15
REMARK    2  A    between atoms: C_3  and  C_8
REMARK    3  A    between atoms: C_16  and  O_24
REMARK                            x       y       z     vdW  Elec       q    Type
REMARK                         _______ _______ _______ _____ _____    ______ ____
ROOT
ATOM      1  O   UNL     1      33.806 -23.912 -17.271  0.00  0.00    -0.269 OA
ATOM      2  N   UNL     1      35.085 -22.515 -15.934  0.00  0.00    -0.298 N 
ATOM      3  C   UNL     1      34.497 -22.907 -17.125  0.00  0.00    +0.259 C 
ATOM      4  H   UNL     1      35.622 -21.690 -15.919  0.00  0.00    +0.150 HD
ENDROOT
BRANCH   3   8
ATOM      5 CL   UNL     1      35.724 -18.524 -23.045  0.00  0.00    -0.075 Cl
ATOM      6  S   UNL     1      36.882 -19.921 -20.665  0.00  0.00    -0.061 S 
ATOM      7  N   UNL     1      36.015 -21.575 -18.561  0.00  0.00    -0.304 N 
ATOM      8  C   UNL     1      34.765 -22.034 -18.296  0.00  0.00    +0.103 C 
ATOM      9  C   UNL     1      33.845 -21.610 -19.201  0.00  0.00    +0.021 C 
ATOM     10  C   UNL     1      34.610 -20.839 -20.067  0.00  0.00    +0.022 C 
ATOM     11  C   UNL     1      35.892 -20.824 -19.681  0.00  0.00    +0.080 C 
ATOM     12  C   UNL     1      34.324 -20.105 -21.215  0.00  0.00    +0.020 C 
ATOM     13  C   UNL     1      35.506 -19.527 -21.670  0.00  0.00    +0.088 C 
ATOM     14  H   UNL     1      36.836 -21.750 -18.048  0.00  0.00    +0.153 HD
ENDBRANCH   3   8
BRANCH   2  15
ATOM     15  C   UNL     1      34.936 -23.275 -14.710  0.00  0.00    +0.107 C 
ATOM     16  C   UNL     1      34.749 -24.775 -15.023  0.00  0.00    +0.151 C 
ATOM     17  C   UNL     1      36.200 -23.161 -13.831  0.00  0.00    +0.048 C 
ATOM     18  C   UNL     1      36.147 -25.297 -14.897  0.00  0.00    +0.002 C 
ATOM     19  C   UNL     1      36.970 -24.380 -14.235  0.00  0.00    -0.022 C 
ATOM     20  C   UNL     1      36.642 -26.518 -15.327  0.00  0.00    -0.002 C 
ATOM     21  C   UNL     1      38.301 -24.666 -13.982  0.00  0.00    -0.004 C 
ATOM     22  C   UNL     1      37.986 -26.810 -15.088  0.00  0.00    -0.000 C 
ATOM     23  C   UNL     1      38.810 -25.892 -14.420  0.00  0.00    -0.000 C 
BRANCH  16  24
ATOM     24  O   UNL     1      33.931 -25.391 -14.040  0.00  0.00    -0.378 OA
ATOM     25  H   UNL     1      34.441 -26.072 -13.575  0.00  0.00    +0.211 HD
ENDBRANCH  16  24
ENDBRANCH   2  15
TORSDOF 3
ENDMDL
MODEL 8
REMARK VINA RESULT:      -7.8      4.298      8.393
REMARK  Name = 15991546
REMARK  3 active torsions:
REMARK  status: ('A' for Active; 'I' for Inactive)
REMARK    1  A    between atoms: N_2  and  C_15
REMARK    2  A    between atoms: C_3  and  C_8
REMARK    3  A    between atoms: C_16  and  O_24
REMARK                            x       y       z     vdW  Elec       q    Type
REMARK                         _______ _______ _______ _____ _____    ______ ____
ROOT
ATOM      1  O   UNL     1      35.907 -22.291 -20.013  0.00  0.00    -0.269 OA
ATOM      2  N   UNL     1      34.444 -20.496 -20.125  0.00  0.00    -0.298 N 
ATOM      3  C   UNL     1      34.925 -21.682 -19.597  0.00  0.00    +0.259 C 
ATOM      4  H   UNL     1      33.649 -20.083 -19.719  0.00  0.00    +0.150 HD
ENDROOT
BRANCH   3   8
ATOM      5 CL   UNL     1      31.156 -24.519 -13.808  0.00  0.00    -0.075 Cl
ATOM      6  S   UNL     1      31.028 -23.214 -16.498  0.00  0.00    -0.061 S 
ATOM      7  N   UNL     1      32.796 -22.250 -18.462  0.00  0.00    -0.304 N 
ATOM      8  C   UNL     1      34.154 -22.240 -18.457  0.00  0.00    +0.103 C 
ATOM      9  C   UNL     1      34.680 -22.784 -17.329  0.00  0.00    +0.021 C 
ATOM     10  C   UNL     1      33.547 -23.141 -16.610  0.00  0.00    +0.022 C 
ATOM     11  C   UNL     1      32.437 -22.821 -17.288  0.00  0.00    +0.080 C 
ATOM     12  C   UNL     1      33.337 -23.743 -15.373  0.00  0.00    +0.020 C 
ATOM     13  C   UNL     1      31.965 -23.853 -15.166  0.00  0.00    +0.088 C 
ATOM     14  H   UNL     1      32.200 -21.912 -19.168  0.00  0.00    +0.153 HD
ENDBRANCH   3   8
BRANCH   2  15
ATOM     15  C   UNL     1      35.073 -19.840 -21.253  0.00  0.00    +0.107 C 
ATOM     16  C   UNL     1      34.007 -19.214 -22.179  0.00  0.00    +0.151 C 
ATOM     17  C   UNL     1      35.986 -18.687 -20.785  0.00  0.00    +0.048 C 
ATOM     18  C   UNL     1      33.961 -17.799 -21.688  0.00  0.00    +0.002 C 
ATOM     19  C   UNL     1      35.072 -17.506 -20.891  0.00  0.00    -0.022 C 
ATOM     20  C   UNL     1      33.000 -16.837 -21.955  0.00  0.00    -0.002 C 
ATOM     21  C   UNL     1      35.250 -16.243 -20.350  0.00  0.00    -0.004 C 
ATOM     22  C   UNL     1      33.165 -15.565 -21.404  0.00  0.00    -0.000 C 
ATOM     23  C   UNL     1      34.282 -15.269 -20.607  0.00  0.00    -0.000 C 
BRANCH  16  24
ATOM     24  O   UNL     1      34.450 -19.225 -23.527  0.00  0.00    -0.378 OA
ATOM     25  H   UNL     1      33.702 -19.420 -24.112  0.00  0.00    +0.211 HD
ENDBRANCH  16  24
ENDBRANCH   2  15
TORSDOF 3
ENDMDL
MODEL 9
REMARK VINA RESULT:      -7.8      3.943      4.826
REMARK  Name = 15991546
REMARK  3 active torsions:
REMARK  status: ('A' for Active; 'I' for Inactive)
REMARK    1  A    between atoms: N_2  and  C_15
REMARK    2  A    between atoms: C_3  and  C_8
REMARK    3  A    between atoms: C_16  and  O_24
REMARK                            x       y       z     vdW  Elec       q    Type
REMARK                         _______ _______ _______ _____ _____    ______ ____
ROOT
ATOM      1  O   UNL     1      33.848 -23.523 -17.887  0.00  0.00    -0.269 OA
ATOM      2  N   UNL     1      34.268 -23.677 -15.612  0.00  0.00    -0.298 N 
ATOM      3  C   UNL     1      33.461 -23.494 -16.721  0.00  0.00    +0.259 C 
ATOM      4  H   UNL     1      33.862 -23.636 -14.716  0.00  0.00    +0.150 HD
ENDROOT
BRANCH   3   8
ATOM      5 CL   UNL     1      26.287 -22.094 -15.188  0.00  0.00    -0.075 Cl
ATOM      6  S   UNL     1      28.300 -22.985 -17.215  0.00  0.00    -0.061 S 
ATOM      7  N   UNL     1      31.077 -23.399 -17.392  0.00  0.00    -0.304 N 
ATOM      8  C   UNL     1      32.028 -23.222 -16.439  0.00  0.00    +0.103 C 
ATOM      9  C   UNL     1      31.517 -22.788 -15.259  0.00  0.00    +0.021 C 
ATOM     10  C   UNL     1      30.158 -22.699 -15.534  0.00  0.00    +0.022 C 
ATOM     11  C   UNL     1      29.907 -23.062 -16.798  0.00  0.00    +0.080 C 
ATOM     12  C   UNL     1      29.044 -22.324 -14.789  0.00  0.00    +0.020 C 
ATOM     13  C   UNL     1      27.918 -22.431 -15.600  0.00  0.00    +0.088 C 
ATOM     14  H   UNL     1      31.209 -23.705 -18.318  0.00  0.00    +0.153 HD
ENDBRANCH   3   8
BRANCH   2  15
ATOM     15  C   UNL     1      35.691 -23.928 -15.723  0.00  0.00    +0.107 C 
ATOM     16  C   UNL     1      36.494 -22.826 -14.997  0.00  0.00    +0.151 C 
ATOM     17  C   UNL     1      36.071 -25.266 -15.053  0.00  0.00    +0.048 C 
ATOM     18  C   UNL     1      36.731 -23.445 -13.655  0.00  0.00    +0.002 C 
ATOM     19  C   UNL     1      36.480 -24.821 -13.683  0.00  0.00    -0.022 C 
ATOM     20  C   UNL     1      37.162 -22.823 -12.494  0.00  0.00    -0.002 C 
ATOM     21  C   UNL     1      36.662 -25.605 -12.555  0.00  0.00    -0.004 C 
ATOM     22  C   UNL     1      37.336 -23.602 -11.349  0.00  0.00    -0.000 C 
ATOM     23  C   UNL     1      37.089 -24.983 -11.379  0.00  0.00    -0.000 C 
BRANCH  16  24
ATOM     24  O   UNL     1      37.741 -22.614 -15.640  0.00  0.00    -0.378 OA
ATOM     25  H   UNL     1      38.452 -22.990 -15.099  0.00  0.00    +0.211 HD
ENDBRANCH  16  24
ENDBRANCH   2  15
TORSDOF 3
ENDMDL
