MODEL 1
REMARK VINA RESULT:     -10.1      0.000      0.000
REMARK  Name = 11682175
REMARK  5 active torsions:
REMARK  status: ('A' for Active; 'I' for Inactive)
REMARK    1  A    between atoms: N_2  and  C_24
REMARK    2  A    between atoms: C_4  and  C_14
REMARK    3  A    between atoms: C_5  and  C_7
REMARK    4  A    between atoms: C_17  and  S_20
REMARK    5  A    between atoms: C_24  and  C_25
REMARK                            x       y       z     vdW  Elec       q    Type
REMARK                         _______ _______ _______ _____ _____    ______ ____
ROOT
ATOM      1  O   UNL     1      30.896 -22.562 -17.412  0.00  0.00    -0.270 OA
ATOM      2  N   UNL     1      30.921 -23.730 -15.374  0.00  0.00    -0.272 N 
ATOM      3  C   UNL     1      31.918 -24.273 -14.492  0.00  0.00    +0.121 C 
ATOM      4  C   UNL     1      33.180 -23.855 -15.183  0.00  0.00    +0.002 C 
ATOM      5  C   UNL     1      32.950 -23.201 -16.339  0.00  0.00    +0.051 C 
ATOM      6  C   UNL     1      31.470 -23.100 -16.479  0.00  0.00    +0.249 C 
ENDROOT
BRANCH   5   7
ATOM      7  C   UNL     1      33.901 -22.672 -17.318  0.00  0.00    +0.004 C 
ATOM      8  C   UNL     1      35.234 -22.444 -16.959  0.00  0.00    -0.000 C 
ATOM      9  C   UNL     1      33.485 -22.389 -18.624  0.00  0.00    -0.000 C 
ATOM     10  C   UNL     1      36.139 -21.940 -17.893  0.00  0.00    -0.004 C 
ATOM     11  C   UNL     1      34.391 -21.884 -19.558  0.00  0.00    -0.004 C 
ATOM     12  C   UNL     1      35.717 -21.660 -19.193  0.00  0.00    -0.022 C 
ATOM     13  C   UNL     1      36.685 -21.120 -20.190  0.00  0.00    +0.031 C 
ENDBRANCH   5   7
BRANCH   4  14
ATOM     14  C   UNL     1      34.481 -24.178 -14.577  0.00  0.00    -0.002 C 
ATOM     15  C   UNL     1      34.920 -23.489 -13.442  0.00  0.00    +0.001 C 
ATOM     16  C   UNL     1      35.287 -25.177 -15.130  0.00  0.00    +0.001 C 
ATOM     17  C   UNL     1      36.955 -24.792 -13.425  0.00  0.00    +0.106 C 
ATOM     18  C   UNL     1      36.154 -23.794 -12.869  0.00  0.00    +0.018 C 
ATOM     19  C   UNL     1      36.521 -25.484 -14.556  0.00  0.00    +0.018 C 
BRANCH  17  20
ATOM     20  S   UNL     1      38.499 -25.174 -12.707  0.00  0.00    +0.010 S 
ATOM     21  O   UNL     1      39.060 -23.945 -12.166  0.00  0.00    -0.169 OA
ATOM     22  O   UNL     1      38.343 -26.339 -11.844  0.00  0.00    -0.169 OA
ATOM     23  C   UNL     1      39.512 -25.680 -14.080  0.00  0.00    +0.182 C 
ENDBRANCH  17  20
ENDBRANCH   4  14
BRANCH   2  24
ATOM     24  C   UNL     1      29.506 -23.874 -15.101  0.00  0.00    +0.094 C 
BRANCH  24  25
ATOM     25  C   UNL     1      28.783 -22.533 -15.062  0.00  0.00    +0.022 C 
ATOM     26  C   UNL     1      27.589 -22.481 -16.005  0.00  0.00    +0.002 C 
ENDBRANCH  24  25
ENDBRANCH   2  24
TORSDOF 5
ENDMDL
MODEL 2
REMARK VINA RESULT:     -10.0      2.903      6.731
REMARK  Name = 11682175
REMARK  5 active torsions:
REMARK  status: ('A' for Active; 'I' for Inactive)
REMARK    1  A    between atoms: N_2  and  C_24
REMARK    2  A    between atoms: C_4  and  C_14
REMARK    3  A    between atoms: C_5  and  C_7
REMARK    4  A    between atoms: C_17  and  S_20
REMARK    5  A    between atoms: C_24  and  C_25
REMARK                            x       y       z     vdW  Elec       q    Type
REMARK                         _______ _______ _______ _____ _____    ______ ____
ROOT
ATOM      1  O   UNL     1      38.395 -23.194 -15.816  0.00  0.00    -0.270 OA
ATOM      2  N   UNL     1      36.962 -23.992 -14.135  0.00  0.00    -0.272 N 
ATOM      3  C   UNL     1      35.545 -24.016 -13.893  0.00  0.00    +0.121 C 
ATOM      4  C   UNL     1      35.023 -23.374 -15.142  0.00  0.00    +0.002 C 
ATOM      5  C   UNL     1      36.006 -22.981 -15.977  0.00  0.00    +0.051 C 
ATOM      6  C   UNL     1      37.289 -23.387 -15.337  0.00  0.00    +0.249 C 
ENDROOT
BRANCH   5   7
ATOM      7  C   UNL     1      35.919 -22.287 -17.262  0.00  0.00    +0.004 C 
ATOM      8  C   UNL     1      34.852 -22.540 -18.132  0.00  0.00    -0.000 C 
ATOM      9  C   UNL     1      36.902 -21.362 -17.633  0.00  0.00    -0.000 C 
ATOM     10  C   UNL     1      34.771 -21.878 -19.357  0.00  0.00    -0.004 C 
ATOM     11  C   UNL     1      36.820 -20.701 -18.859  0.00  0.00    -0.004 C 
ATOM     12  C   UNL     1      35.755 -20.958 -19.721  0.00  0.00    -0.022 C 
ATOM     13  C   UNL     1      35.666 -20.251 -21.031  0.00  0.00    +0.031 C 
ENDBRANCH   5   7
BRANCH   4  14
ATOM     14  C   UNL     1      33.572 -23.234 -15.335  0.00  0.00    -0.002 C 
ATOM     15  C   UNL     1      32.998 -23.493 -16.583  0.00  0.00    +0.001 C 
ATOM     16  C   UNL     1      32.755 -22.840 -14.270  0.00  0.00    +0.001 C 
ATOM     17  C   UNL     1      30.812 -22.965 -15.701  0.00  0.00    +0.106 C 
ATOM     18  C   UNL     1      31.622 -23.358 -16.766  0.00  0.00    +0.018 C 
ATOM     19  C   UNL     1      31.378 -22.705 -14.452  0.00  0.00    +0.018 C 
BRANCH  17  20
ATOM     20  S   UNL     1      29.089 -22.797 -15.929  0.00  0.00    +0.010 S 
ATOM     21  O   UNL     1      28.592 -21.866 -14.926  0.00  0.00    -0.169 OA
ATOM     22  O   UNL     1      28.822 -22.550 -17.340  0.00  0.00    -0.169 OA
ATOM     23  C   UNL     1      28.435 -24.408 -15.554  0.00  0.00    +0.182 C 
ENDBRANCH  17  20
ENDBRANCH   4  14
BRANCH   2  24
ATOM     24  C   UNL     1      37.904 -24.536 -13.179  0.00  0.00    +0.094 C 
BRANCH  24  25
ATOM     25  C   UNL     1      38.558 -25.820 -13.675  0.00  0.00    +0.022 C 
ATOM     26  C   UNL     1      40.027 -25.634 -14.027  0.00  0.00    +0.002 C 
ENDBRANCH  24  25
ENDBRANCH   2  24
TORSDOF 5
ENDMDL
MODEL 3
REMARK VINA RESULT:      -9.6      1.662      2.231
REMARK  Name = 11682175
REMARK  5 active torsions:
REMARK  status: ('A' for Active; 'I' for Inactive)
REMARK    1  A    between atoms: N_2  and  C_24
REMARK    2  A    between atoms: C_4  and  C_14
REMARK    3  A    between atoms: C_5  and  C_7
REMARK    4  A    between atoms: C_17  and  S_20
REMARK    5  A    between atoms: C_24  and  C_25
REMARK                            x       y       z     vdW  Elec       q    Type
REMARK                         _______ _______ _______ _____ _____    ______ ____
ROOT
ATOM      1  O   UNL     1      31.463 -22.775 -16.168  0.00  0.00    -0.270 OA
ATOM      2  N   UNL     1      32.225 -24.113 -14.394  0.00  0.00    -0.272 N 
ATOM      3  C   UNL     1      33.476 -24.693 -13.984  0.00  0.00    +0.121 C 
ATOM      4  C   UNL     1      34.402 -24.170 -15.040  0.00  0.00    +0.002 C 
ATOM      5  C   UNL     1      33.768 -23.428 -15.969  0.00  0.00    +0.051 C 
ATOM      6  C   UNL     1      32.337 -23.370 -15.558  0.00  0.00    +0.249 C 
ENDROOT
BRANCH   5   7
ATOM      7  C   UNL     1      34.299 -22.782 -17.170  0.00  0.00    +0.004 C 
ATOM      8  C   UNL     1      33.497 -22.635 -18.308  0.00  0.00    -0.000 C 
ATOM      9  C   UNL     1      35.614 -22.304 -17.192  0.00  0.00    -0.000 C 
ATOM     10  C   UNL     1      34.004 -22.020 -19.452  0.00  0.00    -0.004 C 
ATOM     11  C   UNL     1      36.121 -21.689 -18.338  0.00  0.00    -0.004 C 
ATOM     12  C   UNL     1      35.317 -21.547 -19.467  0.00  0.00    -0.022 C 
ATOM     13  C   UNL     1      35.858 -20.889 -20.691  0.00  0.00    +0.031 C 
ENDBRANCH   5   7
BRANCH   4  14
ATOM     14  C   UNL     1      35.834 -24.497 -14.974  0.00  0.00    -0.002 C 
ATOM     15  C   UNL     1      36.764 -23.520 -14.605  0.00  0.00    +0.001 C 
ATOM     16  C   UNL     1      36.277 -25.787 -15.280  0.00  0.00    +0.001 C 
ATOM     17  C   UNL     1      38.559 -25.118 -14.852  0.00  0.00    +0.106 C 
ATOM     18  C   UNL     1      38.122 -23.828 -14.545  0.00  0.00    +0.018 C 
ATOM     19  C   UNL     1      37.636 -26.097 -15.220  0.00  0.00    +0.018 C 
BRANCH  17  20
ATOM     20  S   UNL     1      40.260 -25.505 -14.776  0.00  0.00    +0.010 S 
ATOM     21  O   UNL     1      40.651 -26.062 -16.062  0.00  0.00    -0.169 OA
ATOM     22  O   UNL     1      40.981 -24.360 -14.234  0.00  0.00    -0.169 OA
ATOM     23  C   UNL     1      40.363 -26.802 -13.563  0.00  0.00    +0.182 C 
ENDBRANCH  17  20
ENDBRANCH   4  14
BRANCH   2  24
ATOM     24  C   UNL     1      31.005 -24.332 -13.646  0.00  0.00    +0.094 C 
BRANCH  24  25
ATOM     25  C   UNL     1      30.112 -25.386 -14.290  0.00  0.00    +0.022 C 
ATOM     26  C   UNL     1      28.967 -24.779 -15.088  0.00  0.00    +0.002 C 
ENDBRANCH  24  25
ENDBRANCH   2  24
TORSDOF 5
ENDMDL
MODEL 4
REMARK VINA RESULT:      -9.6      9.556     12.060
REMARK  Name = 11682175
REMARK  5 active torsions:
REMARK  status: ('A' for Active; 'I' for Inactive)
REMARK    1  A    between atoms: N_2  and  C_24
REMARK    2  A    between atoms: C_4  and  C_14
REMARK    3  A    between atoms: C_5  and  C_7
REMARK    4  A    between atoms: C_17  and  S_20
REMARK    5  A    between atoms: C_24  and  C_25
REMARK                            x       y       z     vdW  Elec       q    Type
REMARK                         _______ _______ _______ _____ _____    ______ ____
ROOT
ATOM      1  O   UNL     1      31.578 -10.449 -22.436  0.00  0.00    -0.270 OA
ATOM      2  N   UNL     1      31.603 -11.654 -20.421  0.00  0.00    -0.272 N 
ATOM      3  C   UNL     1      32.007 -12.966 -19.991  0.00  0.00    +0.121 C 
ATOM      4  C   UNL     1      32.558 -13.535 -21.264  0.00  0.00    +0.002 C 
ATOM      5  C   UNL     1      32.444 -12.688 -22.306  0.00  0.00    +0.051 C 
ATOM      6  C   UNL     1      31.827 -11.441 -21.771  0.00  0.00    +0.249 C 
ENDROOT
BRANCH   5   7
ATOM      7  C   UNL     1      32.817 -12.876 -23.708  0.00  0.00    +0.004 C 
ATOM      8  C   UNL     1      33.556 -11.897 -24.382  0.00  0.00    -0.000 C 
ATOM      9  C   UNL     1      32.439 -14.039 -24.389  0.00  0.00    -0.000 C 
ATOM     10  C   UNL     1      33.911 -12.078 -25.718  0.00  0.00    -0.004 C 
ATOM     11  C   UNL     1      32.794 -14.219 -25.727  0.00  0.00    -0.004 C 
ATOM     12  C   UNL     1      33.530 -13.239 -26.391  0.00  0.00    -0.022 C 
ATOM     13  C   UNL     1      33.909 -13.431 -27.821  0.00  0.00    +0.031 C 
ENDBRANCH   5   7
BRANCH   4  14
ATOM     14  C   UNL     1      33.136 -14.887 -21.263  0.00  0.00    -0.002 C 
ATOM     15  C   UNL     1      34.478 -15.079 -21.607  0.00  0.00    +0.001 C 
ATOM     16  C   UNL     1      32.349 -15.989 -20.919  0.00  0.00    +0.001 C 
ATOM     17  C   UNL     1      34.235 -17.459 -21.265  0.00  0.00    +0.106 C 
ATOM     18  C   UNL     1      35.026 -16.362 -21.609  0.00  0.00    +0.018 C 
ATOM     19  C   UNL     1      32.896 -17.273 -20.920  0.00  0.00    +0.018 C 
BRANCH  17  20
ATOM     20  S   UNL     1      34.921 -19.064 -21.267  0.00  0.00    +0.010 S 
ATOM     21  O   UNL     1      35.053 -19.495 -22.651  0.00  0.00    -0.169 OA
ATOM     22  O   UNL     1      36.085 -19.081 -20.390  0.00  0.00    -0.169 OA
ATOM     23  C   UNL     1      33.678 -20.076 -20.495  0.00  0.00    +0.182 C 
ENDBRANCH  17  20
ENDBRANCH   4  14
BRANCH   2  24
ATOM     24  C   UNL     1      31.011 -10.704 -19.503  0.00  0.00    +0.094 C 
BRANCH  24  25
ATOM     25  C   UNL     1      32.025  -9.697 -18.975  0.00  0.00    +0.022 C 
ATOM     26  C   UNL     1      32.070  -8.419 -19.801  0.00  0.00    +0.002 C 
ENDBRANCH  24  25
ENDBRANCH   2  24
TORSDOF 5
ENDMDL
MODEL 5
REMARK VINA RESULT:      -9.6      2.906      5.606
REMARK  Name = 11682175
REMARK  5 active torsions:
REMARK  status: ('A' for Active; 'I' for Inactive)
REMARK    1  A    between atoms: N_2  and  C_24
REMARK    2  A    between atoms: C_4  and  C_14
REMARK    3  A    between atoms: C_5  and  C_7
REMARK    4  A    between atoms: C_17  and  S_20
REMARK    5  A    between atoms: C_24  and  C_25
REMARK                            x       y       z     vdW  Elec       q    Type
REMARK                         _______ _______ _______ _____ _____    ______ ____
ROOT
ATOM      1  O   UNL     1      32.107 -25.323 -13.151  0.00  0.00    -0.270 OA
ATOM      2  N   UNL     1      31.020 -24.257 -14.939  0.00  0.00    -0.272 N 
ATOM      3  C   UNL     1      31.408 -23.486 -16.090  0.00  0.00    +0.121 C 
ATOM      4  C   UNL     1      32.902 -23.517 -15.972  0.00  0.00    +0.002 C 
ATOM      5  C   UNL     1      33.326 -24.173 -14.874  0.00  0.00    +0.051 C 
ATOM      6  C   UNL     1      32.104 -24.676 -14.186  0.00  0.00    +0.249 C 
ENDROOT
BRANCH   5   7
ATOM      7  C   UNL     1      34.687 -24.388 -14.381  0.00  0.00    +0.004 C 
ATOM      8  C   UNL     1      35.503 -25.366 -14.960  0.00  0.00    -0.000 C 
ATOM      9  C   UNL     1      35.186 -23.616 -13.326  0.00  0.00    -0.000 C 
ATOM     10  C   UNL     1      36.800 -25.570 -14.490  0.00  0.00    -0.004 C 
ATOM     11  C   UNL     1      36.483 -23.820 -12.855  0.00  0.00    -0.004 C 
ATOM     12  C   UNL     1      37.290 -24.797 -13.437  0.00  0.00    -0.022 C 
ATOM     13  C   UNL     1      38.677 -25.016 -12.934  0.00  0.00    +0.031 C 
ENDBRANCH   5   7
BRANCH   4  14
ATOM     14  C   UNL     1      33.723 -22.864 -17.003  0.00  0.00    -0.002 C 
ATOM     15  C   UNL     1      35.077 -22.606 -16.765  0.00  0.00    +0.001 C 
ATOM     16  C   UNL     1      33.157 -22.497 -18.227  0.00  0.00    +0.001 C 
ATOM     17  C   UNL     1      35.285 -21.620 -18.962  0.00  0.00    +0.106 C 
ATOM     18  C   UNL     1      35.856 -21.985 -17.741  0.00  0.00    +0.018 C 
ATOM     19  C   UNL     1      33.936 -21.876 -19.205  0.00  0.00    +0.018 C 
BRANCH  17  20
ATOM     20  S   UNL     1      36.260 -20.844 -20.184  0.00  0.00    +0.010 S 
ATOM     21  O   UNL     1      37.007 -19.768 -19.547  0.00  0.00    -0.169 OA
ATOM     22  O   UNL     1      36.970 -21.866 -20.942  0.00  0.00    -0.169 OA
ATOM     23  C   UNL     1      35.077 -20.108 -21.290  0.00  0.00    +0.182 C 
ENDBRANCH  17  20
ENDBRANCH   4  14
BRANCH   2  24
ATOM     24  C   UNL     1      29.628 -24.519 -14.636  0.00  0.00    +0.094 C 
BRANCH  24  25
ATOM     25  C   UNL     1      28.716 -24.261 -15.829  0.00  0.00    +0.022 C 
ATOM     26  C   UNL     1      27.983 -22.931 -15.732  0.00  0.00    +0.002 C 
ENDBRANCH  24  25
ENDBRANCH   2  24
TORSDOF 5
ENDMDL
MODEL 6
REMARK VINA RESULT:      -9.3      1.791      5.143
REMARK  Name = 11682175
REMARK  5 active torsions:
REMARK  status: ('A' for Active; 'I' for Inactive)
REMARK    1  A    between atoms: N_2  and  C_24
REMARK    2  A    between atoms: C_4  and  C_14
REMARK    3  A    between atoms: C_5  and  C_7
REMARK    4  A    between atoms: C_17  and  S_20
REMARK    5  A    between atoms: C_24  and  C_25
REMARK                            x       y       z     vdW  Elec       q    Type
REMARK                         _______ _______ _______ _____ _____    ______ ____
ROOT
ATOM      1  O   UNL     1      32.731 -21.985 -19.474  0.00  0.00    -0.270 OA
ATOM      2  N   UNL     1      35.043 -21.921 -19.065  0.00  0.00    -0.272 N 
ATOM      3  C   UNL     1      35.925 -22.274 -17.985  0.00  0.00    +0.121 C 
ATOM      4  C   UNL     1      34.958 -22.842 -16.991  0.00  0.00    +0.002 C 
ATOM      5  C   UNL     1      33.680 -22.782 -17.414  0.00  0.00    +0.051 C 
ATOM      6  C   UNL     1      33.715 -22.188 -18.780  0.00  0.00    +0.249 C 
ENDROOT
BRANCH   5   7
ATOM      7  C   UNL     1      32.450 -23.188 -16.732  0.00  0.00    +0.004 C 
ATOM      8  C   UNL     1      32.491 -24.138 -15.704  0.00  0.00    -0.000 C 
ATOM      9  C   UNL     1      31.221 -22.629 -17.100  0.00  0.00    -0.000 C 
ATOM     10  C   UNL     1      31.319 -24.523 -15.055  0.00  0.00    -0.004 C 
ATOM     11  C   UNL     1      30.048 -23.016 -16.450  0.00  0.00    -0.004 C 
ATOM     12  C   UNL     1      30.097 -23.963 -15.428  0.00  0.00    -0.022 C 
ATOM     13  C   UNL     1      28.844 -24.377 -14.734  0.00  0.00    +0.031 C 
ENDBRANCH   5   7
BRANCH   4  14
ATOM     14  C   UNL     1      35.460 -23.381 -15.718  0.00  0.00    -0.002 C 
ATOM     15  C   UNL     1      35.649 -24.757 -15.560  0.00  0.00    +0.001 C 
ATOM     16  C   UNL     1      35.750 -22.520 -14.655  0.00  0.00    +0.001 C 
ATOM     17  C   UNL     1      36.411 -24.405 -13.295  0.00  0.00    +0.106 C 
ATOM     18  C   UNL     1      36.122 -25.268 -14.352  0.00  0.00    +0.018 C 
ATOM     19  C   UNL     1      36.225 -23.030 -13.446  0.00  0.00    +0.018 C 
BRANCH  17  20
ATOM     20  S   UNL     1      37.004 -25.044 -11.783  0.00  0.00    +0.010 S 
ATOM     21  O   UNL     1      36.970 -26.497 -11.865  0.00  0.00    -0.169 OA
ATOM     22  O   UNL     1      38.248 -24.368 -11.440  0.00  0.00    -0.169 OA
ATOM     23  C   UNL     1      35.792 -24.535 -10.583  0.00  0.00    +0.182 C 
ENDBRANCH  17  20
ENDBRANCH   4  14
BRANCH   2  24
ATOM     24  C   UNL     1      35.542 -21.331 -20.290  0.00  0.00    +0.094 C 
BRANCH  24  25
ATOM     25  C   UNL     1      36.595 -20.260 -20.031  0.00  0.00    +0.022 C 
ATOM     26  C   UNL     1      36.451 -19.059 -20.955  0.00  0.00    +0.002 C 
ENDBRANCH  24  25
ENDBRANCH   2  24
TORSDOF 5
ENDMDL
MODEL 7
REMARK VINA RESULT:      -8.9      2.908      6.551
REMARK  Name = 11682175
REMARK  5 active torsions:
REMARK  status: ('A' for Active; 'I' for Inactive)
REMARK    1  A    between atoms: N_2  and  C_24
REMARK    2  A    between atoms: C_4  and  C_14
REMARK    3  A    between atoms: C_5  and  C_7
REMARK    4  A    between atoms: C_17  and  S_20
REMARK    5  A    between atoms: C_24  and  C_25
REMARK                            x       y       z     vdW  Elec       q    Type
REMARK                         _______ _______ _______ _____ _____    ______ ____
ROOT
ATOM      1  O   UNL     1      37.418 -23.811 -14.876  0.00  0.00    -0.270 OA
ATOM      2  N   UNL     1      35.705 -24.436 -13.397  0.00  0.00    -0.272 N 
ATOM      3  C   UNL     1      34.269 -24.354 -13.364  0.00  0.00    +0.121 C 
ATOM      4  C   UNL     1      33.980 -23.733 -14.697  0.00  0.00    +0.002 C 
ATOM      5  C   UNL     1      35.099 -23.444 -15.392  0.00  0.00    +0.051 C 
ATOM      6  C   UNL     1      36.244 -23.908 -14.558  0.00  0.00    +0.249 C 
ENDROOT
BRANCH   5   7
ATOM      7  C   UNL     1      35.247 -22.802 -16.698  0.00  0.00    +0.004 C 
ATOM      8  C   UNL     1      36.381 -22.031 -16.982  0.00  0.00    -0.000 C 
ATOM      9  C   UNL     1      34.258 -22.953 -17.676  0.00  0.00    -0.000 C 
ATOM     10  C   UNL     1      36.521 -21.419 -18.228  0.00  0.00    -0.004 C 
ATOM     11  C   UNL     1      34.399 -22.339 -18.922  0.00  0.00    -0.004 C 
ATOM     12  C   UNL     1      35.530 -21.573 -19.197  0.00  0.00    -0.022 C 
ATOM     13  C   UNL     1      35.681 -20.917 -20.528  0.00  0.00    +0.031 C 
ENDBRANCH   5   7
BRANCH   4  14
ATOM     14  C   UNL     1      32.585 -23.504 -15.103  0.00  0.00    -0.002 C 
ATOM     15  C   UNL     1      31.617 -23.180 -14.148  0.00  0.00    +0.001 C 
ATOM     16  C   UNL     1      32.217 -23.608 -16.448  0.00  0.00    +0.001 C 
ATOM     17  C   UNL     1      29.932 -23.071 -15.876  0.00  0.00    +0.106 C 
ATOM     18  C   UNL     1      30.294 -22.965 -14.533  0.00  0.00    +0.018 C 
ATOM     19  C   UNL     1      30.894 -23.392 -16.834  0.00  0.00    +0.018 C 
BRANCH  17  20
ATOM     20  S   UNL     1      28.276 -22.801 -16.358  0.00  0.00    +0.010 S 
ATOM     21  O   UNL     1      28.268 -21.754 -17.370  0.00  0.00    -0.169 OA
ATOM     22  O   UNL     1      27.652 -24.086 -16.642  0.00  0.00    -0.169 OA
ATOM     23  C   UNL     1      27.491 -22.156 -14.897  0.00  0.00    +0.182 C 
ENDBRANCH  17  20
ENDBRANCH   4  14
BRANCH   2  24
ATOM     24  C   UNL     1      36.458 -25.001 -12.297  0.00  0.00    +0.094 C 
BRANCH  24  25
ATOM     25  C   UNL     1      36.595 -24.030 -11.130  0.00  0.00    +0.022 C 
ATOM     26  C   UNL     1      37.317 -22.746 -11.514  0.00  0.00    +0.002 C 
ENDBRANCH  24  25
ENDBRANCH   2  24
TORSDOF 5
ENDMDL
MODEL 8
REMARK VINA RESULT:      -8.9     10.334     13.057
REMARK  Name = 11682175
REMARK  5 active torsions:
REMARK  status: ('A' for Active; 'I' for Inactive)
REMARK    1  A    between atoms: N_2  and  C_24
REMARK    2  A    between atoms: C_4  and  C_14
REMARK    3  A    between atoms: C_5  and  C_7
REMARK    4  A    between atoms: C_17  and  S_20
REMARK    5  A    between atoms: C_24  and  C_25
REMARK                            x       y       z     vdW  Elec       q    Type
REMARK                         _______ _______ _______ _____ _____    ______ ____
ROOT
ATOM      1  O   UNL     1      31.786  -9.715 -22.704  0.00  0.00    -0.270 OA
ATOM      2  N   UNL     1      31.332 -11.480 -21.223  0.00  0.00    -0.272 N 
ATOM      3  C   UNL     1      31.724 -12.858 -21.085  0.00  0.00    +0.121 C 
ATOM      4  C   UNL     1      32.689 -13.003 -22.223  0.00  0.00    +0.002 C 
ATOM      5  C   UNL     1      32.805 -11.878 -22.956  0.00  0.00    +0.051 C 
ATOM      6  C   UNL     1      31.928 -10.861 -22.310  0.00  0.00    +0.249 C 
ENDROOT
BRANCH   5   7
ATOM      7  C   UNL     1      33.600 -11.624 -24.158  0.00  0.00    +0.004 C 
ATOM      8  C   UNL     1      34.587 -10.630 -24.156  0.00  0.00    -0.000 C 
ATOM      9  C   UNL     1      33.383 -12.372 -25.320  0.00  0.00    -0.000 C 
ATOM     10  C   UNL     1      35.344 -10.389 -25.302  0.00  0.00    -0.004 C 
ATOM     11  C   UNL     1      34.140 -12.129 -26.467  0.00  0.00    -0.004 C 
ATOM     12  C   UNL     1      35.120 -11.138 -26.458  0.00  0.00    -0.022 C 
ATOM     13  C   UNL     1      35.930 -10.879 -27.683  0.00  0.00    +0.031 C 
ENDBRANCH   5   7
BRANCH   4  14
ATOM     14  C   UNL     1      33.380 -14.285 -22.428  0.00  0.00    -0.002 C 
ATOM     15  C   UNL     1      33.370 -14.897 -23.685  0.00  0.00    +0.001 C 
ATOM     16  C   UNL     1      34.051 -14.901 -21.368  0.00  0.00    +0.001 C 
ATOM     17  C   UNL     1      34.692 -16.724 -22.818  0.00  0.00    +0.106 C 
ATOM     18  C   UNL     1      34.024 -16.114 -23.880  0.00  0.00    +0.018 C 
ATOM     19  C   UNL     1      34.705 -16.118 -21.561  0.00  0.00    +0.018 C 
BRANCH  17  20
ATOM     20  S   UNL     1      35.510 -18.247 -23.061  0.00  0.00    +0.010 S 
ATOM     21  O   UNL     1      35.343 -18.629 -24.456  0.00  0.00    -0.169 OA
ATOM     22  O   UNL     1      36.848 -18.160 -22.490  0.00  0.00    -0.169 OA
ATOM     23  C   UNL     1      34.597 -19.403 -22.064  0.00  0.00    +0.182 C 
ENDBRANCH  17  20
ENDBRANCH   4  14
BRANCH   2  24
ATOM     24  C   UNL     1      30.394 -10.864 -20.309  0.00  0.00    +0.094 C 
BRANCH  24  25
ATOM     25  C   UNL     1      31.018 -10.565 -18.952  0.00  0.00    +0.022 C 
ATOM     26  C   UNL     1      32.249  -9.675 -19.053  0.00  0.00    +0.002 C 
ENDBRANCH  24  25
ENDBRANCH   2  24
TORSDOF 5
ENDMDL
MODEL 9
REMARK VINA RESULT:      -8.5      1.712      4.878
REMARK  Name = 11682175
REMARK  5 active torsions:
REMARK  status: ('A' for Active; 'I' for Inactive)
REMARK    1  A    between atoms: N_2  and  C_24
REMARK    2  A    between atoms: C_4  and  C_14
REMARK    3  A    between atoms: C_5  and  C_7
REMARK    4  A    between atoms: C_17  and  S_20
REMARK    5  A    between atoms: C_24  and  C_25
REMARK                            x       y       z     vdW  Elec       q    Type
REMARK                         _______ _______ _______ _____ _____    ______ ____
ROOT
ATOM      1  O   UNL     1      31.638 -22.143 -18.348  0.00  0.00    -0.270 OA
ATOM      2  N   UNL     1      33.934 -21.994 -18.821  0.00  0.00    -0.272 N 
ATOM      3  C   UNL     1      35.164 -22.316 -18.149  0.00  0.00    +0.121 C 
ATOM      4  C   UNL     1      34.652 -22.923 -16.878  0.00  0.00    +0.002 C 
ATOM      5  C   UNL     1      33.307 -22.909 -16.797  0.00  0.00    +0.051 C 
ATOM      6  C   UNL     1      32.815 -22.310 -18.069  0.00  0.00    +0.249 C 
ENDROOT
BRANCH   5   7
ATOM      7  C   UNL     1      32.431 -23.362 -15.715  0.00  0.00    +0.004 C 
ATOM      8  C   UNL     1      31.391 -24.262 -15.977  0.00  0.00    -0.000 C 
ATOM      9  C   UNL     1      32.625 -22.899 -14.409  0.00  0.00    -0.000 C 
ATOM     10  C   UNL     1      30.557 -24.692 -14.945  0.00  0.00    -0.004 C 
ATOM     11  C   UNL     1      31.789 -23.329 -13.377  0.00  0.00    -0.004 C 
ATOM     12  C   UNL     1      30.756 -24.225 -13.645  0.00  0.00    -0.022 C 
ATOM     13  C   UNL     1      29.863 -24.686 -12.543  0.00  0.00    +0.031 C 
ENDBRANCH   5   7
BRANCH   4  14
ATOM     14  C   UNL     1      35.607 -23.446 -15.888  0.00  0.00    -0.002 C 
ATOM     15  C   UNL     1      36.709 -22.679 -15.499  0.00  0.00    +0.001 C 
ATOM     16  C   UNL     1      35.419 -24.713 -15.330  0.00  0.00    +0.001 C 
ATOM     17  C   UNL     1      37.424 -24.441 -14.009  0.00  0.00    +0.106 C 
ATOM     18  C   UNL     1      37.616 -23.175 -14.563  0.00  0.00    +0.018 C 
ATOM     19  C   UNL     1      36.325 -25.210 -14.392  0.00  0.00    +0.018 C 
BRANCH  17  20
ATOM     20  S   UNL     1      38.558 -25.062 -12.836  0.00  0.00    +0.010 S 
ATOM     21  O   UNL     1      39.002 -23.950 -12.008  0.00  0.00    -0.169 OA
ATOM     22  O   UNL     1      37.987 -26.248 -12.210  0.00  0.00    -0.169 OA
ATOM     23  C   UNL     1      39.944 -25.607 -13.808  0.00  0.00    +0.182 C 
ENDBRANCH  17  20
ENDBRANCH   4  14
BRANCH   2  24
ATOM     24  C   UNL     1      33.924 -21.383 -20.134  0.00  0.00    +0.094 C 
BRANCH  24  25
ATOM     25  C   UNL     1      35.075 -20.402 -20.325  0.00  0.00    +0.022 C 
ATOM     26  C   UNL     1      35.033 -19.703 -21.677  0.00  0.00    +0.002 C 
ENDBRANCH  24  25
ENDBRANCH   2  24
TORSDOF 5
ENDMDL
