MODEL 1
REMARK VINA RESULT:      -6.9      0.000      0.000
REMARK  Name = 547
REMARK  5 active torsions:
REMARK  status: ('A' for Active; 'I' for Inactive)
REMARK    1  A    between atoms: C_1  and  C_11
REMARK    2  A    between atoms: C_4  and  O_7
REMARK    3  A    between atoms: C_6  and  O_9
REMARK    4  A    between atoms: C_11  and  C_13
REMARK    5  A    between atoms: C_13  and  O_14
REMARK                            x       y       z     vdW  Elec       q    Type
REMARK                         _______ _______ _______ _____ _____    ______ ____
ROOT
ATOM      1  C   UNL     1      34.926 -19.550 -21.006  0.00  0.00    -0.008 C 
ATOM      2  C   UNL     1      35.612 -20.499 -20.247  0.00  0.00    +0.036 C 
ATOM      3  C   UNL     1      33.531 -19.542 -21.016  0.00  0.00    -0.000 C 
ATOM      4  C   UNL     1      34.902 -21.438 -19.499  0.00  0.00    +0.167 C 
ATOM      5  C   UNL     1      32.822 -20.482 -20.269  0.00  0.00    +0.039 C 
ATOM      6  C   UNL     1      33.507 -21.430 -19.509  0.00  0.00    +0.167 C 
ENDROOT
BRANCH   4   7
ATOM      7  O   UNL     1      35.584 -22.358 -18.760  0.00  0.00    -0.503 OA
ATOM      8  H   UNL     1      36.356 -22.105 -18.293  0.00  0.00    +0.292 HD
ENDBRANCH   4   7
BRANCH   6   9
ATOM      9  O   UNL     1      32.805 -22.342 -18.783  0.00  0.00    -0.503 OA
ATOM     10  H   UNL     1      32.832 -23.249 -19.015  0.00  0.00    +0.292 HD
ENDBRANCH   6   9
BRANCH   1  11
ATOM     11  C   UNL     1      35.683 -18.546 -21.807  0.00  0.00    +0.136 C 
BRANCH  11  13
ATOM     12  O   UNL     1      35.194 -16.615 -20.407  0.00  0.00    -0.250 OA
ATOM     13  C   UNL     1      35.277 -17.114 -21.520  0.00  0.00    +0.318 C 
BRANCH  13  14
ATOM     14  O   UNL     1      35.008 -16.426 -22.661  0.00  0.00    -0.480 OA
ATOM     15  H   UNL     1      34.916 -16.883 -23.474  0.00  0.00    +0.295 HD
ENDBRANCH  13  14
ENDBRANCH  11  13
ENDBRANCH   1  11
TORSDOF 5
ENDMDL
MODEL 2
REMARK VINA RESULT:      -6.9      0.754      1.938
REMARK  Name = 547
REMARK  5 active torsions:
REMARK  status: ('A' for Active; 'I' for Inactive)
REMARK    1  A    between atoms: C_1  and  C_11
REMARK    2  A    between atoms: C_4  and  O_7
REMARK    3  A    between atoms: C_6  and  O_9
REMARK    4  A    between atoms: C_11  and  C_13
REMARK    5  A    between atoms: C_13  and  O_14
REMARK                            x       y       z     vdW  Elec       q    Type
REMARK                         _______ _______ _______ _____ _____    ______ ____
ROOT
ATOM      1  C   UNL     1      34.611 -19.872 -20.918  0.00  0.00    -0.008 C 
ATOM      2  C   UNL     1      33.490 -20.451 -20.326  0.00  0.00    +0.036 C 
ATOM      3  C   UNL     1      35.890 -20.285 -20.544  0.00  0.00    -0.000 C 
ATOM      4  C   UNL     1      33.647 -21.445 -19.359  0.00  0.00    +0.167 C 
ATOM      5  C   UNL     1      36.048 -21.277 -19.577  0.00  0.00    +0.039 C 
ATOM      6  C   UNL     1      34.926 -21.858 -18.985  0.00  0.00    +0.167 C 
ENDROOT
BRANCH   4   7
ATOM      7  O   UNL     1      32.544 -22.005 -18.789  0.00  0.00    -0.503 OA
ATOM      8  H   UNL     1      32.574 -22.297 -17.899  0.00  0.00    +0.292 HD
ENDBRANCH   4   7
BRANCH   6   9
ATOM      9  O   UNL     1      35.092 -22.827 -18.042  0.00  0.00    -0.503 OA
ATOM     10  H   UNL     1      35.266 -22.591 -17.153  0.00  0.00    +0.292 HD
ENDBRANCH   6   9
BRANCH   1  11
ATOM     11  C   UNL     1      34.445 -18.809 -21.951  0.00  0.00    +0.136 C 
BRANCH  11  13
ATOM     12  O   UNL     1      35.311 -17.021 -20.544  0.00  0.00    -0.250 OA
ATOM     13  C   UNL     1      35.220 -17.542 -21.646  0.00  0.00    +0.318 C 
BRANCH  13  14
ATOM     14  O   UNL     1      35.817 -17.035 -22.756  0.00  0.00    -0.480 OA
ATOM     15  H   UNL     1      36.362 -17.582 -23.287  0.00  0.00    +0.295 HD
ENDBRANCH  13  14
ENDBRANCH  11  13
ENDBRANCH   1  11
TORSDOF 5
ENDMDL
MODEL 3
REMARK VINA RESULT:      -6.5      6.622      8.059
REMARK  Name = 547
REMARK  5 active torsions:
REMARK  status: ('A' for Active; 'I' for Inactive)
REMARK    1  A    between atoms: C_1  and  C_11
REMARK    2  A    between atoms: C_4  and  O_7
REMARK    3  A    between atoms: C_6  and  O_9
REMARK    4  A    between atoms: C_11  and  C_13
REMARK    5  A    between atoms: C_13  and  O_14
REMARK                            x       y       z     vdW  Elec       q    Type
REMARK                         _______ _______ _______ _____ _____    ______ ____
ROOT
ATOM      1  C   UNL     1      30.066 -23.516 -15.481  0.00  0.00    -0.008 C 
ATOM      2  C   UNL     1      30.504 -23.351 -14.167  0.00  0.00    +0.036 C 
ATOM      3  C   UNL     1      30.980 -23.459 -16.534  0.00  0.00    -0.000 C 
ATOM      4  C   UNL     1      31.857 -23.129 -13.906  0.00  0.00    +0.167 C 
ATOM      5  C   UNL     1      32.331 -23.237 -16.273  0.00  0.00    +0.039 C 
ATOM      6  C   UNL     1      32.771 -23.073 -14.959  0.00  0.00    +0.167 C 
ENDROOT
BRANCH   4   7
ATOM      7  O   UNL     1      32.274 -22.972 -12.618  0.00  0.00    -0.503 OA
ATOM      8  H   UNL     1      31.897 -23.494 -11.937  0.00  0.00    +0.292 HD
ENDBRANCH   4   7
BRANCH   6   9
ATOM      9  O   UNL     1      34.093 -22.858 -14.716  0.00  0.00    -0.503 OA
ATOM     10  H   UNL     1      34.571 -23.446 -14.166  0.00  0.00    +0.292 HD
ENDBRANCH   6   9
BRANCH   1  11
ATOM     11  C   UNL     1      28.620 -23.751 -15.761  0.00  0.00    +0.136 C 
BRANCH  11  13
ATOM     12  O   UNL     1      27.894 -21.632 -16.715  0.00  0.00    -0.250 OA
ATOM     13  C   UNL     1      28.056 -22.838 -16.832  0.00  0.00    +0.318 C 
BRANCH  13  14
ATOM     14  O   UNL     1      27.740 -23.520 -17.964  0.00  0.00    -0.480 OA
ATOM     15  H   UNL     1      28.036 -23.209 -18.797  0.00  0.00    +0.295 HD
ENDBRANCH  13  14
ENDBRANCH  11  13
ENDBRANCH   1  11
TORSDOF 5
ENDMDL
MODEL 4
REMARK VINA RESULT:      -6.5      2.200      5.436
REMARK  Name = 547
REMARK  5 active torsions:
REMARK  status: ('A' for Active; 'I' for Inactive)
REMARK    1  A    between atoms: C_1  and  C_11
REMARK    2  A    between atoms: C_4  and  O_7
REMARK    3  A    between atoms: C_6  and  O_9
REMARK    4  A    between atoms: C_11  and  C_13
REMARK    5  A    between atoms: C_13  and  O_14
REMARK                            x       y       z     vdW  Elec       q    Type
REMARK                         _______ _______ _______ _____ _____    ______ ____
ROOT
ATOM      1  C   UNL     1      34.993 -18.773 -22.338  0.00  0.00    -0.008 C 
ATOM      2  C   UNL     1      35.088 -17.382 -22.288  0.00  0.00    +0.036 C 
ATOM      3  C   UNL     1      34.769 -19.413 -23.557  0.00  0.00    -0.000 C 
ATOM      4  C   UNL     1      34.958 -16.632 -23.457  0.00  0.00    +0.167 C 
ATOM      5  C   UNL     1      34.638 -18.663 -24.726  0.00  0.00    +0.039 C 
ATOM      6  C   UNL     1      34.733 -17.272 -24.676  0.00  0.00    +0.167 C 
ENDROOT
BRANCH   4   7
ATOM      7  O   UNL     1      35.054 -15.274 -23.395  0.00  0.00    -0.503 OA
ATOM      8  H   UNL     1      35.723 -14.829 -23.879  0.00  0.00    +0.292 HD
ENDBRANCH   4   7
BRANCH   6   9
ATOM      9  O   UNL     1      34.605 -16.550 -25.823  0.00  0.00    -0.503 OA
ATOM     10  H   UNL     1      35.100 -16.783 -26.583  0.00  0.00    +0.292 HD
ENDBRANCH   6   9
BRANCH   1  11
ATOM     11  C   UNL     1      35.131 -19.576 -21.089  0.00  0.00    +0.136 C 
BRANCH  11  13
ATOM     12  O   UNL     1      32.722 -19.568 -20.739  0.00  0.00    -0.250 OA
ATOM     13  C   UNL     1      33.810 -20.093 -20.555  0.00  0.00    +0.318 C 
BRANCH  13  14
ATOM     14  O   UNL     1      33.968 -21.232 -19.830  0.00  0.00    -0.480 OA
ATOM     15  H   UNL     1      34.538 -21.238 -19.085  0.00  0.00    +0.295 HD
ENDBRANCH  13  14
ENDBRANCH  11  13
ENDBRANCH   1  11
TORSDOF 5
ENDMDL
MODEL 5
REMARK VINA RESULT:      -6.5      8.828      9.796
REMARK  Name = 547
REMARK  5 active torsions:
REMARK  status: ('A' for Active; 'I' for Inactive)
REMARK    1  A    between atoms: C_1  and  C_11
REMARK    2  A    between atoms: C_4  and  O_7
REMARK    3  A    between atoms: C_6  and  O_9
REMARK    4  A    between atoms: C_11  and  C_13
REMARK    5  A    between atoms: C_13  and  O_14
REMARK                            x       y       z     vdW  Elec       q    Type
REMARK                         _______ _______ _______ _____ _____    ______ ____
ROOT
ATOM      1  C   UNL     1      37.962 -25.605 -13.642  0.00  0.00    -0.008 C 
ATOM      2  C   UNL     1      37.915 -25.157 -12.322  0.00  0.00    +0.036 C 
ATOM      3  C   UNL     1      36.889 -25.360 -14.499  0.00  0.00    -0.000 C 
ATOM      4  C   UNL     1      36.796 -24.463 -11.860  0.00  0.00    +0.167 C 
ATOM      5  C   UNL     1      35.770 -24.668 -14.038  0.00  0.00    +0.039 C 
ATOM      6  C   UNL     1      35.724 -24.218 -12.718  0.00  0.00    +0.167 C 
ENDROOT
BRANCH   4   7
ATOM      7  O   UNL     1      36.764 -24.028 -10.569  0.00  0.00    -0.503 OA
ATOM      8  H   UNL     1      37.359 -23.363 -10.284  0.00  0.00    +0.292 HD
ENDBRANCH   4   7
BRANCH   6   9
ATOM      9  O   UNL     1      34.627 -23.543 -12.278  0.00  0.00    -0.503 OA
ATOM     10  H   UNL     1      34.727 -22.728 -11.827  0.00  0.00    +0.292 HD
ENDBRANCH   6   9
BRANCH   1  11
ATOM     11  C   UNL     1      39.157 -26.347 -14.136  0.00  0.00    +0.136 C 
BRANCH  11  13
ATOM     12  O   UNL     1      40.799 -24.557 -14.289  0.00  0.00    -0.250 OA
ATOM     13  C   UNL     1      40.176 -25.461 -14.825  0.00  0.00    +0.318 C 
BRANCH  13  14
ATOM     14  O   UNL     1      40.327 -25.788 -16.136  0.00  0.00    -0.480 OA
ATOM     15  H   UNL     1      40.796 -25.215 -16.710  0.00  0.00    +0.295 HD
ENDBRANCH  13  14
ENDBRANCH  11  13
ENDBRANCH   1  11
TORSDOF 5
ENDMDL
MODEL 6
REMARK VINA RESULT:      -6.3      2.752      4.383
REMARK  Name = 547
REMARK  5 active torsions:
REMARK  status: ('A' for Active; 'I' for Inactive)
REMARK    1  A    between atoms: C_1  and  C_11
REMARK    2  A    between atoms: C_4  and  O_7
REMARK    3  A    between atoms: C_6  and  O_9
REMARK    4  A    between atoms: C_11  and  C_13
REMARK    5  A    between atoms: C_13  and  O_14
REMARK                            x       y       z     vdW  Elec       q    Type
REMARK                         _______ _______ _______ _____ _____    ______ ____
ROOT
ATOM      1  C   UNL     1      34.892 -17.253 -24.004  0.00  0.00    -0.008 C 
ATOM      2  C   UNL     1      35.051 -16.586 -22.790  0.00  0.00    +0.036 C 
ATOM      3  C   UNL     1      34.756 -18.642 -24.024  0.00  0.00    -0.000 C 
ATOM      4  C   UNL     1      35.075 -17.307 -21.596  0.00  0.00    +0.167 C 
ATOM      5  C   UNL     1      34.780 -19.363 -22.831  0.00  0.00    +0.039 C 
ATOM      6  C   UNL     1      34.938 -18.695 -21.616  0.00  0.00    +0.167 C 
ENDROOT
BRANCH   4   7
ATOM      7  O   UNL     1      35.229 -16.643 -20.416  0.00  0.00    -0.503 OA
ATOM      8  H   UNL     1      35.137 -15.711 -20.387  0.00  0.00    +0.292 HD
ENDBRANCH   4   7
BRANCH   6   9
ATOM      9  O   UNL     1      34.960 -19.409 -20.457  0.00  0.00    -0.503 OA
ATOM     10  H   UNL     1      35.726 -19.890 -20.216  0.00  0.00    +0.292 HD
ENDBRANCH   6   9
BRANCH   1  11
ATOM     11  C   UNL     1      34.867 -16.484 -25.281  0.00  0.00    +0.136 C 
BRANCH  11  13
ATOM     12  O   UNL     1      33.208 -14.765 -24.814  0.00  0.00    -0.250 OA
ATOM     13  C   UNL     1      33.583 -15.708 -25.495  0.00  0.00    +0.318 C 
BRANCH  13  14
ATOM     14  O   UNL     1      32.874 -16.185 -26.552  0.00  0.00    -0.480 OA
ATOM     15  H   UNL     1      33.178 -16.037 -27.426  0.00  0.00    +0.295 HD
ENDBRANCH  13  14
ENDBRANCH  11  13
ENDBRANCH   1  11
TORSDOF 5
ENDMDL
MODEL 7
REMARK VINA RESULT:      -6.2      8.677      9.436
REMARK  Name = 547
REMARK  5 active torsions:
REMARK  status: ('A' for Active; 'I' for Inactive)
REMARK    1  A    between atoms: C_1  and  C_11
REMARK    2  A    between atoms: C_4  and  O_7
REMARK    3  A    between atoms: C_6  and  O_9
REMARK    4  A    between atoms: C_11  and  C_13
REMARK    5  A    between atoms: C_13  and  O_14
REMARK                            x       y       z     vdW  Elec       q    Type
REMARK                         _______ _______ _______ _____ _____    ______ ____
ROOT
ATOM      1  C   UNL     1      36.513 -24.345 -13.634  0.00  0.00    -0.008 C 
ATOM      2  C   UNL     1      37.716 -25.047 -13.703  0.00  0.00    +0.036 C 
ATOM      3  C   UNL     1      35.451 -24.698 -14.467  0.00  0.00    -0.000 C 
ATOM      4  C   UNL     1      37.857 -26.102 -14.604  0.00  0.00    +0.167 C 
ATOM      5  C   UNL     1      35.592 -25.752 -15.369  0.00  0.00    +0.039 C 
ATOM      6  C   UNL     1      36.795 -26.456 -15.437  0.00  0.00    +0.167 C 
ENDROOT
BRANCH   4   7
ATOM      7  O   UNL     1      39.037 -26.782 -14.660  0.00  0.00    -0.503 OA
ATOM      8  H   UNL     1      39.314 -27.299 -13.930  0.00  0.00    +0.292 HD
ENDBRANCH   4   7
BRANCH   6   9
ATOM      9  O   UNL     1      36.921 -27.483 -16.320  0.00  0.00    -0.503 OA
ATOM     10  H   UNL     1      37.248 -28.312 -16.033  0.00  0.00    +0.292 HD
ENDBRANCH   6   9
BRANCH   1  11
ATOM     11  C   UNL     1      36.361 -23.216 -12.672  0.00  0.00    +0.136 C 
BRANCH  11  13
ATOM     12  O   UNL     1      38.460 -22.725 -11.539  0.00  0.00    -0.250 OA
ATOM     13  C   UNL     1      37.359 -23.256 -11.531  0.00  0.00    +0.318 C 
BRANCH  13  14
ATOM     14  O   UNL     1      36.887 -23.963 -10.470  0.00  0.00    -0.480 OA
ATOM     15  H   UNL     1      37.465 -24.206  -9.774  0.00  0.00    +0.295 HD
ENDBRANCH  13  14
ENDBRANCH  11  13
ENDBRANCH   1  11
TORSDOF 5
ENDMDL
MODEL 8
REMARK VINA RESULT:      -6.2      3.014      6.273
REMARK  Name = 547
REMARK  5 active torsions:
REMARK  status: ('A' for Active; 'I' for Inactive)
REMARK    1  A    between atoms: C_1  and  C_11
REMARK    2  A    between atoms: C_4  and  O_7
REMARK    3  A    between atoms: C_6  and  O_9
REMARK    4  A    between atoms: C_11  and  C_13
REMARK    5  A    between atoms: C_13  and  O_14
REMARK                            x       y       z     vdW  Elec       q    Type
REMARK                         _______ _______ _______ _____ _____    ______ ____
ROOT
ATOM      1  C   UNL     1      35.035 -17.185 -23.445  0.00  0.00    -0.008 C 
ATOM      2  C   UNL     1      34.568 -17.109 -24.757  0.00  0.00    +0.036 C 
ATOM      3  C   UNL     1      34.838 -16.114 -22.572  0.00  0.00    -0.000 C 
ATOM      4  C   UNL     1      33.904 -15.964 -25.197  0.00  0.00    +0.167 C 
ATOM      5  C   UNL     1      34.175 -14.969 -23.011  0.00  0.00    +0.039 C 
ATOM      6  C   UNL     1      33.707 -14.894 -24.324  0.00  0.00    +0.167 C 
ENDROOT
BRANCH   4   7
ATOM      7  O   UNL     1      33.450 -15.903 -26.480  0.00  0.00    -0.503 OA
ATOM      8  H   UNL     1      33.588 -15.128 -26.989  0.00  0.00    +0.292 HD
ENDBRANCH   4   7
BRANCH   6   9
ATOM      9  O   UNL     1      33.060 -13.771 -24.741  0.00  0.00    -0.503 OA
ATOM     10  H   UNL     1      33.258 -12.943 -24.351  0.00  0.00    +0.292 HD
ENDBRANCH   6   9
BRANCH   1  11
ATOM     11  C   UNL     1      35.746 -18.408 -22.975  0.00  0.00    +0.136 C 
BRANCH  11  13
ATOM     12  O   UNL     1      34.057 -19.612 -21.700  0.00  0.00    -0.250 OA
ATOM     13  C   UNL     1      35.130 -19.026 -21.736  0.00  0.00    +0.318 C 
BRANCH  13  14
ATOM     14  O   UNL     1      35.917 -18.856 -20.641  0.00  0.00    -0.480 OA
ATOM     15  H   UNL     1      36.350 -18.037 -20.497  0.00  0.00    +0.295 HD
ENDBRANCH  13  14
ENDBRANCH  11  13
ENDBRANCH   1  11
TORSDOF 5
ENDMDL
MODEL 9
REMARK VINA RESULT:      -6.2     10.028     11.636
REMARK  Name = 547
REMARK  5 active torsions:
REMARK  status: ('A' for Active; 'I' for Inactive)
REMARK    1  A    between atoms: C_1  and  C_11
REMARK    2  A    between atoms: C_4  and  O_7
REMARK    3  A    between atoms: C_6  and  O_9
REMARK    4  A    between atoms: C_11  and  C_13
REMARK    5  A    between atoms: C_13  and  O_14
REMARK                            x       y       z     vdW  Elec       q    Type
REMARK                         _______ _______ _______ _____ _____    ______ ____
ROOT
ATOM      1  C   UNL     1      32.942  -8.367 -22.430  0.00  0.00    -0.008 C 
ATOM      2  C   UNL     1      32.740  -9.688 -22.832  0.00  0.00    +0.036 C 
ATOM      3  C   UNL     1      34.026  -7.644 -22.929  0.00  0.00    -0.000 C 
ATOM      4  C   UNL     1      33.622 -10.285 -23.733  0.00  0.00    +0.167 C 
ATOM      5  C   UNL     1      34.908  -8.242 -23.828  0.00  0.00    +0.039 C 
ATOM      6  C   UNL     1      34.706  -9.562 -24.231  0.00  0.00    +0.167 C 
ENDROOT
BRANCH   4   7
ATOM      7  O   UNL     1      33.413 -11.575 -24.120  0.00  0.00    -0.503 OA
ATOM      8  H   UNL     1      34.132 -12.096 -24.419  0.00  0.00    +0.292 HD
ENDBRANCH   4   7
BRANCH   6   9
ATOM      9  O   UNL     1      35.574 -10.134 -25.111  0.00  0.00    -0.503 OA
ATOM     10  H   UNL     1      36.294 -10.644 -24.796  0.00  0.00    +0.292 HD
ENDBRANCH   6   9
BRANCH   1  11
ATOM     11  C   UNL     1      32.000  -7.728 -21.467  0.00  0.00    +0.136 C 
BRANCH  11  13
ATOM     12  O   UNL     1      31.900  -8.997 -19.392  0.00  0.00    -0.250 OA
ATOM     13  C   UNL     1      32.319  -8.034 -20.017  0.00  0.00    +0.318 C 
BRANCH  13  14
ATOM     14  O   UNL     1      33.140  -7.098 -19.471  0.00  0.00    -0.480 OA
ATOM     15  H   UNL     1      32.793  -6.272 -19.198  0.00  0.00    +0.295 HD
ENDBRANCH  13  14
ENDBRANCH  11  13
ENDBRANCH   1  11
TORSDOF 5
ENDMDL
