MODEL 1
REMARK VINA RESULT:      -8.5      0.000      0.000
REMARK  Name = 6915944
REMARK  7 active torsions:
REMARK  status: ('A' for Active; 'I' for Inactive)
REMARK    1  A    between atoms: N_2  and  C_9
REMARK    2  A    between atoms: C_3  and  C_21
REMARK    3  A    between atoms: C_11  and  C_15
REMARK    4  A    between atoms: C_13  and  C_18
REMARK    5  A    between atoms: C_15  and  O_16
REMARK    6  A    between atoms: N_20  and  O_30
REMARK    7  A    between atoms: C_21  and  C_25
REMARK                            x       y       z     vdW  Elec       q    Type
REMARK                         _______ _______ _______ _____ _____    ______ ____
ROOT
ATOM      1  O   UNK A   0      36.493 -22.896 -12.467  0.00  0.00    -0.268 OA
ATOM      2  N   UNK A   1      35.745 -23.986 -14.406  0.00  0.00    -0.291 N 
ATOM      3  C   UNK A   0      36.463 -23.848 -13.231  0.00  0.00    +0.269 C 
ATOM      4  H   UNK A   1      35.829 -24.825 -14.915  0.00  0.00    +0.150 HD
ENDROOT
BRANCH   2   9
ATOM      5  S   UNK A   1      37.213 -22.054 -16.284  0.00  0.00    -0.114 S 
ATOM      6  O   UNK A   1      33.085 -24.194 -16.276  0.00  0.00    -0.273 OA
ATOM      7  N   UNK A   1      34.704 -22.614 -16.946  0.00  0.00    -0.242 N 
ATOM      8  C   UNK A   1      35.450 -21.909 -15.919  0.00  0.00    +0.155 C 
ATOM      9  C   UNK A   1      34.868 -22.938 -14.925  0.00  0.00    +0.179 C 
ATOM     10  C   UNK A   1      33.983 -23.402 -16.117  0.00  0.00    +0.251 C 
ATOM     11  C   UNK A   1      34.845 -22.382 -18.278  0.00  0.00    +0.128 C 
ATOM     12  C   UNK A   1      37.060 -21.197 -17.890  0.00  0.00    +0.087 C 
ATOM     13  C   UNK A   1      35.905 -21.689 -18.760  0.00  0.00    +0.009 C 
BRANCH  11  15
ATOM     14  O   UNK A   1      33.894 -24.054 -19.675  0.00  0.00    -0.244 OA
ATOM     15  C   UNK A   1      33.815 -22.960 -19.158  0.00  0.00    +0.352 C 
BRANCH  15  16
ATOM     16  O   UNK A   1      32.800 -22.085 -19.288  0.00  0.00    -0.476 OA
ATOM     17  H   UNK A   1      31.989 -22.361 -19.667  0.00  0.00    +0.295 HD
ENDBRANCH  15  16
ENDBRANCH  11  15
BRANCH  13  18
ATOM     18  C   UNK A   1      36.095 -21.344 -20.157  0.00  0.00    -0.002 C 
ATOM     19  C   UNK A   1      35.777 -20.155 -20.658  0.00  0.00    -0.000 C 
ENDBRANCH  13  18
ENDBRANCH   2   9
BRANCH   3  21
ATOM     20  N   UNK A   0      36.920 -25.871 -11.957  0.00  0.00    -0.079 NA
ATOM     21  C   UNK A   0      37.294 -25.060 -12.900  0.00  0.00    +0.198 C 
BRANCH  21  25
ATOM     22  S   UNK A   0      40.361 -25.375 -15.342  0.00  0.00    -0.060 S 
ATOM     23  N   UNK A   0      39.411 -26.263 -13.108  0.00  0.00    -0.383 NA
ATOM     24  N   UNK A   0      41.502 -27.166 -13.741  0.00  0.00    -0.328 N 
ATOM     25  C   UNK A   0      38.532 -25.357 -13.629  0.00  0.00    +0.148 C 
ATOM     26  C   UNK A   0      38.847 -24.766 -14.816  0.00  0.00    +0.127 C 
ATOM     27  C   UNK A   0      40.428 -26.356 -13.935  0.00  0.00    +0.204 C 
ATOM     28  H   UNK A   0      42.230 -27.186 -14.403  0.00  0.00    +0.145 HD
ATOM     29  H   UNK A   0      41.552 -27.733 -12.937  0.00  0.00    +0.145 HD
ENDBRANCH  21  25
BRANCH  20  30
ATOM     30  O   UNK A   0      35.724 -25.460 -11.362  0.00  0.00    -0.409 OA
ATOM     31  H   UNK A   0      35.738 -24.832 -10.668  0.00  0.00    +0.328 HD
ENDBRANCH  20  30
ENDBRANCH   3  21
TORSDOF 7
ENDMDL
MODEL 2
REMARK VINA RESULT:      -8.3      5.201      8.450
REMARK  Name = 6915944
REMARK  7 active torsions:
REMARK  status: ('A' for Active; 'I' for Inactive)
REMARK    1  A    between atoms: N_2  and  C_9
REMARK    2  A    between atoms: C_3  and  C_21
REMARK    3  A    between atoms: C_11  and  C_15
REMARK    4  A    between atoms: C_13  and  C_18
REMARK    5  A    between atoms: C_15  and  O_16
REMARK    6  A    between atoms: N_20  and  O_30
REMARK    7  A    between atoms: C_21  and  C_25
REMARK                            x       y       z     vdW  Elec       q    Type
REMARK                         _______ _______ _______ _____ _____    ______ ____
ROOT
ATOM      1  O   UNK A   0      36.083 -20.881 -20.652  0.00  0.00    -0.268 OA
ATOM      2  N   UNK A   1      34.684 -19.001 -20.513  0.00  0.00    -0.291 N 
ATOM      3  C   UNK A   0      35.033 -20.332 -20.357  0.00  0.00    +0.269 C 
ATOM      4  H   UNK A   1      33.789 -18.711 -20.223  0.00  0.00    +0.150 HD
ENDROOT
BRANCH   2   9
ATOM      5  S   UNK A   1      34.600 -18.987 -23.580  0.00  0.00    -0.114 S 
ATOM      6  O   UNK A   1      34.710 -15.755 -20.239  0.00  0.00    -0.273 OA
ATOM      7  N   UNK A   1      34.896 -16.613 -22.428  0.00  0.00    -0.242 N 
ATOM      8  C   UNK A   1      35.630 -17.850 -22.626  0.00  0.00    +0.155 C 
ATOM      9  C   UNK A   1      35.589 -18.009 -21.091  0.00  0.00    +0.179 C 
ATOM     10  C   UNK A   1      35.014 -16.564 -21.082  0.00  0.00    +0.251 C 
ATOM     11  C   UNK A   1      34.349 -15.887 -23.439  0.00  0.00    +0.128 C 
ATOM     12  C   UNK A   1      34.514 -17.869 -25.022  0.00  0.00    +0.087 C 
ATOM     13  C   UNK A   1      34.191 -16.417 -24.676  0.00  0.00    +0.009 C 
BRANCH  11  15
ATOM     14  O   UNK A   1      32.744 -14.171 -23.081  0.00  0.00    -0.244 OA
ATOM     15  C   UNK A   1      33.904 -14.524 -23.102  0.00  0.00    +0.352 C 
BRANCH  15  16
ATOM     16  O   UNK A   1      34.979 -13.759 -22.832  0.00  0.00    -0.476 OA
ATOM     17  H   UNK A   1      34.872 -12.844 -22.664  0.00  0.00    +0.295 HD
ENDBRANCH  15  16
ENDBRANCH  11  15
BRANCH  13  18
ATOM     18  C   UNK A   1      33.678 -15.689 -25.822  0.00  0.00    -0.002 C 
ATOM     19  C   UNK A   1      32.575 -16.044 -26.471  0.00  0.00    -0.000 C 
ENDBRANCH  13  18
ENDBRANCH   2   9
BRANCH   3  21
ATOM     20  N   UNK A   0      32.745 -21.153 -20.248  0.00  0.00    -0.079 NA
ATOM     21  C   UNK A   0      33.938 -21.161 -19.737  0.00  0.00    +0.198 C 
BRANCH  21  25
ATOM     22  S   UNK A   0      33.911 -23.577 -16.634  0.00  0.00    -0.060 S 
ATOM     23  N   UNK A   0      35.439 -22.004 -18.003  0.00  0.00    -0.383 NA
ATOM     24  N   UNK A   0      36.481 -23.076 -16.171  0.00  0.00    -0.328 N 
ATOM     25  C   UNK A   0      34.190 -21.994 -18.557  0.00  0.00    +0.148 C 
ATOM     26  C   UNK A   0      33.225 -22.764 -17.979  0.00  0.00    +0.127 C 
ATOM     27  C   UNK A   0      35.411 -22.815 -16.969  0.00  0.00    +0.204 C 
ATOM     28  H   UNK A   0      36.389 -23.695 -15.412  0.00  0.00    +0.145 HD
ATOM     29  H   UNK A   0      37.348 -22.645 -16.353  0.00  0.00    +0.145 HD
ENDBRANCH  21  25
BRANCH  20  30
ATOM     30  O   UNK A   0      32.664 -20.321 -21.368  0.00  0.00    -0.409 OA
ATOM     31  H   UNK A   0      32.414 -20.676 -22.199  0.00  0.00    +0.328 HD
ENDBRANCH  20  30
ENDBRANCH   3  21
TORSDOF 7
ENDMDL
MODEL 3
REMARK VINA RESULT:      -8.1      9.406     12.943
REMARK  Name = 6915944
REMARK  7 active torsions:
REMARK  status: ('A' for Active; 'I' for Inactive)
REMARK    1  A    between atoms: N_2  and  C_9
REMARK    2  A    between atoms: C_3  and  C_21
REMARK    3  A    between atoms: C_11  and  C_15
REMARK    4  A    between atoms: C_13  and  C_18
REMARK    5  A    between atoms: C_15  and  O_16
REMARK    6  A    between atoms: N_20  and  O_30
REMARK    7  A    between atoms: C_21  and  C_25
REMARK                            x       y       z     vdW  Elec       q    Type
REMARK                         _______ _______ _______ _____ _____    ______ ____
ROOT
ATOM      1  O   UNK A   0      33.888 -15.802 -23.467  0.00  0.00    -0.268 OA
ATOM      2  N   UNK A   1      33.010 -14.301 -21.890  0.00  0.00    -0.291 N 
ATOM      3  C   UNK A   0      33.746 -15.390 -22.327  0.00  0.00    +0.269 C 
ATOM      4  H   UNK A   1      32.995 -14.097 -20.927  0.00  0.00    +0.150 HD
ENDROOT
BRANCH   2   9
ATOM      5  S   UNK A   1      31.750 -11.900 -20.455  0.00  0.00    -0.114 S 
ATOM      6  O   UNK A   1      33.996 -12.573 -24.470  0.00  0.00    -0.273 OA
ATOM      7  N   UNK A   1      32.648 -11.430 -22.909  0.00  0.00    -0.242 N 
ATOM      8  C   UNK A   1      31.593 -12.166 -22.235  0.00  0.00    +0.155 C 
ATOM      9  C   UNK A   1      32.254 -13.443 -22.799  0.00  0.00    +0.179 C 
ATOM     10  C   UNK A   1      33.147 -12.466 -23.618  0.00  0.00    +0.251 C 
ATOM     11  C   UNK A   1      32.875 -10.101 -22.733  0.00  0.00    +0.128 C 
ATOM     12  C   UNK A   1      31.502 -10.097 -20.593  0.00  0.00    +0.087 C 
ATOM     13  C   UNK A   1      32.327  -9.428 -21.692  0.00  0.00    +0.009 C 
BRANCH  11  15
ATOM     14  O   UNK A   1      33.469  -8.508 -24.393  0.00  0.00    -0.244 OA
ATOM     15  C   UNK A   1      33.776  -9.455 -23.701  0.00  0.00    +0.352 C 
BRANCH  15  16
ATOM     16  O   UNK A   1      34.968 -10.083 -23.687  0.00  0.00    -0.476 OA
ATOM     17  H   UNK A   1      35.718  -9.673 -24.070  0.00  0.00    +0.295 HD
ENDBRANCH  15  16
ENDBRANCH  11  15
BRANCH  13  18
ATOM     18  C   UNK A   1      32.466  -8.001 -21.471  0.00  0.00    -0.002 C 
ATOM     19  C   UNK A   1      32.396  -7.444 -20.267  0.00  0.00    -0.000 C 
ENDBRANCH  13  18
ENDBRANCH   2   9
BRANCH   3  21
ATOM     20  N   UNK A   0      35.042 -15.456 -20.268  0.00  0.00    -0.079 NA
ATOM     21  C   UNK A   0      34.441 -16.121 -21.207  0.00  0.00    +0.198 C 
BRANCH  21  25
ATOM     22  S   UNK A   0      35.187 -19.981 -21.161  0.00  0.00    -0.060 S 
ATOM     23  N   UNK A   0      33.279 -18.253 -20.934  0.00  0.00    -0.383 NA
ATOM     24  N   UNK A   0      32.617 -20.514 -20.734  0.00  0.00    -0.328 N 
ATOM     25  C   UNK A   0      34.453 -17.586 -21.146  0.00  0.00    +0.148 C 
ATOM     26  C   UNK A   0      35.591 -18.320 -21.294  0.00  0.00    +0.127 C 
ATOM     27  C   UNK A   0      33.547 -19.539 -20.922  0.00  0.00    +0.204 C 
ATOM     28  H   UNK A   0      32.888 -21.460 -20.737  0.00  0.00    +0.145 HD
ATOM     29  H   UNK A   0      31.672 -20.273 -20.596  0.00  0.00    +0.145 HD
ENDBRANCH  21  25
BRANCH  20  30
ATOM     30  O   UNK A   0      34.938 -14.075 -20.460  0.00  0.00    -0.409 OA
ATOM     31  H   UNK A   0      35.681 -13.586 -20.754  0.00  0.00    +0.328 HD
ENDBRANCH  20  30
ENDBRANCH   3  21
TORSDOF 7
ENDMDL
MODEL 4
REMARK VINA RESULT:      -8.0     11.216     15.483
REMARK  Name = 6915944
REMARK  7 active torsions:
REMARK  status: ('A' for Active; 'I' for Inactive)
REMARK    1  A    between atoms: N_2  and  C_9
REMARK    2  A    between atoms: C_3  and  C_21
REMARK    3  A    between atoms: C_11  and  C_15
REMARK    4  A    between atoms: C_13  and  C_18
REMARK    5  A    between atoms: C_15  and  O_16
REMARK    6  A    between atoms: N_20  and  O_30
REMARK    7  A    between atoms: C_21  and  C_25
REMARK                            x       y       z     vdW  Elec       q    Type
REMARK                         _______ _______ _______ _____ _____    ______ ____
ROOT
ATOM      1  O   UNK A   0      30.575  -9.810 -22.449  0.00  0.00    -0.268 OA
ATOM      2  N   UNK A   1      32.355 -11.143 -21.698  0.00  0.00    -0.291 N 
ATOM      3  C   UNK A   0      31.703  -9.961 -22.006  0.00  0.00    +0.269 C 
ATOM      4  H   UNK A   1      33.274 -11.097 -21.345  0.00  0.00    +0.150 HD
ENDROOT
BRANCH   2   9
ATOM      5  S   UNK A   1      33.459 -12.634 -24.142  0.00  0.00    -0.114 S 
ATOM      6  O   UNK A   1      32.379 -13.764 -19.763  0.00  0.00    -0.273 OA
ATOM      7  N   UNK A   1      32.897 -14.144 -22.032  0.00  0.00    -0.242 N 
ATOM      8  C   UNK A   1      32.219 -13.349 -23.040  0.00  0.00    +0.155 C 
ATOM      9  C   UNK A   1      31.739 -12.456 -21.875  0.00  0.00    +0.179 C 
ATOM     10  C   UNK A   1      32.339 -13.554 -20.952  0.00  0.00    +0.251 C 
ATOM     11  C   UNK A   1      33.781 -15.137 -22.319  0.00  0.00    +0.128 C 
ATOM     12  C   UNK A   1      34.069 -14.265 -24.690  0.00  0.00    +0.087 C 
ATOM     13  C   UNK A   1      34.320 -15.258 -23.557  0.00  0.00    +0.009 C 
BRANCH  11  15
ATOM     14  O   UNK A   1      33.752 -17.174 -21.094  0.00  0.00    -0.244 OA
ATOM     15  C   UNK A   1      34.146 -16.032 -21.209  0.00  0.00    +0.352 C 
BRANCH  15  16
ATOM     16  O   UNK A   1      34.970 -15.381 -20.366  0.00  0.00    -0.476 OA
ATOM     17  H   UNK A   1      35.688 -14.884 -20.703  0.00  0.00    +0.295 HD
ENDBRANCH  15  16
ENDBRANCH  11  15
BRANCH  13  18
ATOM     18  C   UNK A   1      35.217 -16.326 -23.961  0.00  0.00    -0.002 C 
ATOM     19  C   UNK A   1      34.811 -17.395 -24.635  0.00  0.00    -0.000 C 
ENDBRANCH  13  18
ENDBRANCH   2   9
BRANCH   3  21
ATOM     20  N   UNK A   0      32.813  -8.389 -20.516  0.00  0.00    -0.079 NA
ATOM     21  C   UNK A   0      32.539  -8.737 -21.737  0.00  0.00    +0.198 C 
BRANCH  21  25
ATOM     22  S   UNK A   0      34.550  -6.934 -24.595  0.00  0.00    -0.060 S 
ATOM     23  N   UNK A   0      32.267  -6.953 -23.385  0.00  0.00    -0.383 NA
ATOM     24  N   UNK A   0      32.479  -5.346 -25.106  0.00  0.00    -0.328 N 
ATOM     25  C   UNK A   0      33.063  -7.917 -22.834  0.00  0.00    +0.148 C 
ATOM     26  C   UNK A   0      34.321  -8.073 -23.334  0.00  0.00    +0.127 C 
ATOM     27  C   UNK A   0      32.954  -6.362 -24.336  0.00  0.00    +0.204 C 
ATOM     28  H   UNK A   0      33.050  -4.948 -25.802  0.00  0.00    +0.145 HD
ATOM     29  H   UNK A   0      31.565  -5.009 -24.967  0.00  0.00    +0.145 HD
ENDBRANCH  21  25
BRANCH  20  30
ATOM     30  O   UNK A   0      32.252  -9.268 -19.586  0.00  0.00    -0.409 OA
ATOM     31  H   UNK A   0      32.191 -10.182 -19.782  0.00  0.00    +0.328 HD
ENDBRANCH  20  30
ENDBRANCH   3  21
TORSDOF 7
ENDMDL
MODEL 5
REMARK VINA RESULT:      -7.9     10.873     15.275
REMARK  Name = 6915944
REMARK  7 active torsions:
REMARK  status: ('A' for Active; 'I' for Inactive)
REMARK    1  A    between atoms: N_2  and  C_9
REMARK    2  A    between atoms: C_3  and  C_21
REMARK    3  A    between atoms: C_11  and  C_15
REMARK    4  A    between atoms: C_13  and  C_18
REMARK    5  A    between atoms: C_15  and  O_16
REMARK    6  A    between atoms: N_20  and  O_30
REMARK    7  A    between atoms: C_21  and  C_25
REMARK                            x       y       z     vdW  Elec       q    Type
REMARK                         _______ _______ _______ _____ _____    ______ ____
ROOT
ATOM      1  O   UNK A   0      30.737 -10.371 -22.816  0.00  0.00    -0.268 OA
ATOM      2  N   UNK A   1      32.621 -11.745 -22.542  0.00  0.00    -0.291 N 
ATOM      3  C   UNK A   0      31.941 -10.552 -22.717  0.00  0.00    +0.269 C 
ATOM      4  H   UNK A   1      33.604 -11.724 -22.481  0.00  0.00    +0.150 HD
ENDROOT
BRANCH   2   9
ATOM      5  S   UNK A   1      33.454 -13.677 -24.776  0.00  0.00    -0.114 S 
ATOM      6  O   UNK A   1      32.709 -14.006 -20.198  0.00  0.00    -0.273 OA
ATOM      7  N   UNK A   1      33.016 -14.784 -22.403  0.00  0.00    -0.242 N 
ATOM      8  C   UNK A   1      32.286 -14.133 -23.476  0.00  0.00    +0.155 C 
ATOM      9  C   UNK A   1      31.941 -13.035 -22.446  0.00  0.00    +0.179 C 
ATOM     10  C   UNK A   1      32.576 -13.995 -21.399  0.00  0.00    +0.251 C 
ATOM     11  C   UNK A   1      33.833 -15.856 -22.585  0.00  0.00    +0.128 C 
ATOM     12  C   UNK A   1      33.951 -15.406 -25.085  0.00  0.00    +0.087 C 
ATOM     13  C   UNK A   1      34.260 -16.209 -23.823  0.00  0.00    +0.009 C 
BRANCH  11  15
ATOM     14  O   UNK A   1      33.908 -17.699 -21.086  0.00  0.00    -0.244 OA
ATOM     15  C   UNK A   1      34.257 -16.573 -21.371  0.00  0.00    +0.352 C 
BRANCH  15  16
ATOM     16  O   UNK A   1      35.076 -15.782 -20.652  0.00  0.00    -0.476 OA
ATOM     17  H   UNK A   1      35.839 -15.412 -21.050  0.00  0.00    +0.295 HD
ENDBRANCH  15  16
ENDBRANCH  11  15
BRANCH  13  18
ATOM     18  C   UNK A   1      35.077 -17.374 -24.109  0.00  0.00    -0.002 C 
ATOM     19  C   UNK A   1      34.578 -18.509 -24.584  0.00  0.00    -0.000 C 
ENDBRANCH  13  18
ENDBRANCH   2   9
BRANCH   3  21
ATOM     20  N   UNK A   0      33.882  -9.364 -23.580  0.00  0.00    -0.079 NA
ATOM     21  C   UNK A   0      32.855  -9.356 -22.786  0.00  0.00    +0.198 C 
BRANCH  21  25
ATOM     22  S   UNK A   0      32.379  -6.581 -20.040  0.00  0.00    -0.060 S 
ATOM     23  N   UNK A   0      32.206  -7.008 -22.583  0.00  0.00    -0.383 NA
ATOM     24  N   UNK A   0      31.658  -4.815 -21.893  0.00  0.00    -0.328 N 
ATOM     25  C   UNK A   0      32.608  -8.162 -21.971  0.00  0.00    +0.148 C 
ATOM     26  C   UNK A   0      32.762  -8.149 -20.617  0.00  0.00    +0.127 C 
ATOM     27  C   UNK A   0      32.052  -6.094 -21.652  0.00  0.00    +0.204 C 
ATOM     28  H   UNK A   0      31.563  -4.181 -21.146  0.00  0.00    +0.145 HD
ATOM     29  H   UNK A   0      31.468  -4.523 -22.814  0.00  0.00    +0.145 HD
ENDBRANCH  21  25
BRANCH  20  30
ATOM     30  O   UNK A   0      33.979 -10.562 -24.293  0.00  0.00    -0.409 OA
ATOM     31  H   UNK A   0      33.704 -10.599 -25.187  0.00  0.00    +0.328 HD
ENDBRANCH  20  30
ENDBRANCH   3  21
TORSDOF 7
ENDMDL
MODEL 6
REMARK VINA RESULT:      -7.8     10.555     14.349
REMARK  Name = 6915944
REMARK  7 active torsions:
REMARK  status: ('A' for Active; 'I' for Inactive)
REMARK    1  A    between atoms: N_2  and  C_9
REMARK    2  A    between atoms: C_3  and  C_21
REMARK    3  A    between atoms: C_11  and  C_15
REMARK    4  A    between atoms: C_13  and  C_18
REMARK    5  A    between atoms: C_15  and  O_16
REMARK    6  A    between atoms: N_20  and  O_30
REMARK    7  A    between atoms: C_21  and  C_25
REMARK                            x       y       z     vdW  Elec       q    Type
REMARK                         _______ _______ _______ _____ _____    ______ ____
ROOT
ATOM      1  O   UNK A   0      30.390 -10.813 -21.710  0.00  0.00    -0.268 OA
ATOM      2  N   UNK A   1      32.396 -12.030 -21.804  0.00  0.00    -0.291 N 
ATOM      3  C   UNK A   0      31.608 -10.894 -21.712  0.00  0.00    +0.269 C 
ATOM      4  H   UNK A   1      33.375 -11.927 -21.792  0.00  0.00    +0.150 HD
ENDROOT
BRANCH   2   9
ATOM      5  S   UNK A   1      33.526 -13.567 -24.207  0.00  0.00    -0.114 S 
ATOM      6  O   UNK A   1      32.562 -14.569 -19.770  0.00  0.00    -0.273 OA
ATOM      7  N   UNK A   1      33.061 -15.016 -22.032  0.00  0.00    -0.242 N 
ATOM      8  C   UNK A   1      32.335 -14.290 -23.058  0.00  0.00    +0.155 C 
ATOM      9  C   UNK A   1      31.834 -13.374 -21.920  0.00  0.00    +0.179 C 
ATOM     10  C   UNK A   1      32.495 -14.408 -20.965  0.00  0.00    +0.251 C 
ATOM     11  C   UNK A   1      33.983 -15.981 -22.295  0.00  0.00    +0.128 C 
ATOM     12  C   UNK A   1      34.197 -15.191 -24.702  0.00  0.00    +0.087 C 
ATOM     13  C   UNK A   1      34.508 -16.128 -23.536  0.00  0.00    +0.009 C 
BRANCH  11  15
ATOM     14  O   UNK A   1      35.254 -16.497 -20.355  0.00  0.00    -0.244 OA
ATOM     15  C   UNK A   1      34.403 -16.816 -21.157  0.00  0.00    +0.352 C 
BRANCH  15  16
ATOM     16  O   UNK A   1      33.699 -17.964 -21.165  0.00  0.00    -0.476 OA
ATOM     17  H   UNK A   1      33.113 -18.158 -20.460  0.00  0.00    +0.295 HD
ENDBRANCH  15  16
ENDBRANCH  11  15
BRANCH  13  18
ATOM     18  C   UNK A   1      35.444 -17.171 -23.914  0.00  0.00    -0.002 C 
ATOM     19  C   UNK A   1      35.059 -18.355 -24.375  0.00  0.00    -0.000 C 
ENDBRANCH  13  18
ENDBRANCH   2   9
BRANCH   3  21
ATOM     20  N   UNK A   0      32.333  -8.895 -20.527  0.00  0.00    -0.079 NA
ATOM     21  C   UNK A   0      32.413  -9.625 -21.599  0.00  0.00    +0.198 C 
BRANCH  21  25
ATOM     22  S   UNK A   0      34.627  -7.781 -24.275  0.00  0.00    -0.060 S 
ATOM     23  N   UNK A   0      33.912 -10.128 -23.462  0.00  0.00    -0.383 NA
ATOM     24  N   UNK A   0      35.401 -10.111 -25.298  0.00  0.00    -0.328 N 
ATOM     25  C   UNK A   0      33.301  -9.188 -22.680  0.00  0.00    +0.148 C 
ATOM     26  C   UNK A   0      33.548  -7.875 -22.946  0.00  0.00    +0.127 C 
ATOM     27  C   UNK A   0      34.646  -9.495 -24.349  0.00  0.00    +0.204 C 
ATOM     28  H   UNK A   0      35.927  -9.574 -25.933  0.00  0.00    +0.145 HD
ATOM     29  H   UNK A   0      35.420 -11.094 -25.350  0.00  0.00    +0.145 HD
ENDBRANCH  21  25
BRANCH  20  30
ATOM     30  O   UNK A   0      31.456  -9.443 -19.588  0.00  0.00    -0.409 OA
ATOM     31  H   UNK A   0      31.190  -8.939 -18.845  0.00  0.00    +0.328 HD
ENDBRANCH  20  30
ENDBRANCH   3  21
TORSDOF 7
ENDMDL
MODEL 7
REMARK VINA RESULT:      -7.7     11.071     14.685
REMARK  Name = 6915944
REMARK  7 active torsions:
REMARK  status: ('A' for Active; 'I' for Inactive)
REMARK    1  A    between atoms: N_2  and  C_9
REMARK    2  A    between atoms: C_3  and  C_21
REMARK    3  A    between atoms: C_11  and  C_15
REMARK    4  A    between atoms: C_13  and  C_18
REMARK    5  A    between atoms: C_15  and  O_16
REMARK    6  A    between atoms: N_20  and  O_30
REMARK    7  A    between atoms: C_21  and  C_25
REMARK                            x       y       z     vdW  Elec       q    Type
REMARK                         _______ _______ _______ _____ _____    ______ ____
ROOT
ATOM      1  O   UNK A   0      31.998 -14.088 -23.620  0.00  0.00    -0.268 OA
ATOM      2  N   UNK A   1      33.736 -12.556 -23.239  0.00  0.00    -0.291 N 
ATOM      3  C   UNK A   0      32.978 -13.693 -23.009  0.00  0.00    +0.269 C 
ATOM      4  H   UNK A   1      34.505 -12.374 -22.651  0.00  0.00    +0.150 HD
ENDROOT
BRANCH   2   9
ATOM      5  S   UNK A   1      31.549 -10.545 -22.475  0.00  0.00    -0.114 S 
ATOM      6  O   UNK A   1      35.637 -10.338 -24.681  0.00  0.00    -0.273 OA
ATOM      7  N   UNK A   1      33.509  -9.590 -23.989  0.00  0.00    -0.242 N 
ATOM      8  C   UNK A   1      32.391 -10.512 -24.073  0.00  0.00    +0.155 C 
ATOM      9  C   UNK A   1      33.442 -11.616 -24.318  0.00  0.00    +0.179 C 
ATOM     10  C   UNK A   1      34.463 -10.446 -24.419  0.00  0.00    +0.251 C 
ATOM     11  C   UNK A   1      33.397  -8.297 -23.582  0.00  0.00    +0.128 C 
ATOM     12  C   UNK A   1      31.127  -8.769 -22.539  0.00  0.00    +0.087 C 
ATOM     13  C   UNK A   1      32.287  -7.859 -22.940  0.00  0.00    +0.009 C 
BRANCH  11  15
ATOM     14  O   UNK A   1      34.642  -6.660 -24.774  0.00  0.00    -0.244 OA
ATOM     15  C   UNK A   1      34.556  -7.426 -23.837  0.00  0.00    +0.352 C 
BRANCH  15  16
ATOM     16  O   UNK A   1      35.479  -7.622 -22.876  0.00  0.00    -0.476 OA
ATOM     17  H   UNK A   1      35.220  -7.950 -22.037  0.00  0.00    +0.295 HD
ENDBRANCH  15  16
ENDBRANCH  11  15
BRANCH  13  18
ATOM     18  C   UNK A   1      32.061  -6.485 -22.533  0.00  0.00    -0.002 C 
ATOM     19  C   UNK A   1      31.944  -6.116 -21.263  0.00  0.00    -0.000 C 
ENDBRANCH  13  18
ENDBRANCH   2   9
BRANCH   3  21
ATOM     20  N   UNK A   0      33.177 -14.160 -20.629  0.00  0.00    -0.079 NA
ATOM     21  C   UNK A   0      33.476 -14.508 -21.844  0.00  0.00    +0.198 C 
BRANCH  21  25
ATOM     22  S   UNK A   0      35.694 -17.507 -23.088  0.00  0.00    -0.060 S 
ATOM     23  N   UNK A   0      34.578 -16.510 -20.980  0.00  0.00    -0.383 NA
ATOM     24  N   UNK A   0      35.791 -18.509 -20.626  0.00  0.00    -0.328 N 
ATOM     25  C   UNK A   0      34.297 -15.706 -22.048  0.00  0.00    +0.148 C 
ATOM     26  C   UNK A   0      34.797 -16.057 -23.266  0.00  0.00    +0.127 C 
ATOM     27  C   UNK A   0      35.319 -17.506 -21.414  0.00  0.00    +0.204 C 
ATOM     28  H   UNK A   0      36.341 -19.224 -21.018  0.00  0.00    +0.145 HD
ATOM     29  H   UNK A   0      35.583 -18.518 -19.664  0.00  0.00    +0.145 HD
ENDBRANCH  21  25
BRANCH  20  30
ATOM     30  O   UNK A   0      32.387 -13.008 -20.597  0.00  0.00    -0.409 OA
ATOM     31  H   UNK A   0      31.497 -13.042 -20.887  0.00  0.00    +0.328 HD
ENDBRANCH  20  30
ENDBRANCH   3  21
TORSDOF 7
ENDMDL
MODEL 8
REMARK VINA RESULT:      -7.7      4.651      6.561
REMARK  Name = 6915944
REMARK  7 active torsions:
REMARK  status: ('A' for Active; 'I' for Inactive)
REMARK    1  A    between atoms: N_2  and  C_9
REMARK    2  A    between atoms: C_3  and  C_21
REMARK    3  A    between atoms: C_11  and  C_15
REMARK    4  A    between atoms: C_13  and  C_18
REMARK    5  A    between atoms: C_15  and  O_16
REMARK    6  A    between atoms: N_20  and  O_30
REMARK    7  A    between atoms: C_21  and  C_25
REMARK                            x       y       z     vdW  Elec       q    Type
REMARK                         _______ _______ _______ _____ _____    ______ ____
ROOT
ATOM      1  O   UNK A   0      34.726 -24.301 -16.685  0.00  0.00    -0.268 OA
ATOM      2  N   UNK A   1      33.520 -22.697 -17.902  0.00  0.00    -0.291 N 
ATOM      3  C   UNK A   0      33.836 -23.474 -16.800  0.00  0.00    +0.269 C 
ATOM      4  H   UNK A   1      32.764 -22.069 -17.835  0.00  0.00    +0.150 HD
ENDROOT
BRANCH   2   9
ATOM      5  S   UNK A   1      32.588 -20.594 -19.932  0.00  0.00    -0.114 S 
ATOM      6  O   UNK A   1      36.690 -22.258 -18.511  0.00  0.00    -0.273 OA
ATOM      7  N   UNK A   1      35.193 -21.107 -19.923  0.00  0.00    -0.242 N 
ATOM      8  C   UNK A   1      33.937 -21.747 -20.270  0.00  0.00    +0.155 C 
ATOM      9  C   UNK A   1      34.261 -22.769 -19.159  0.00  0.00    +0.179 C 
ATOM     10  C   UNK A   1      35.652 -22.076 -19.101  0.00  0.00    +0.251 C 
ATOM     11  C   UNK A   1      35.585 -19.897 -20.406  0.00  0.00    +0.128 C 
ATOM     12  C   UNK A   1      33.206 -19.354 -21.121  0.00  0.00    +0.087 C 
ATOM     13  C   UNK A   1      34.702 -19.065 -21.011  0.00  0.00    +0.009 C 
BRANCH  11  15
ATOM     14  O   UNK A   1      37.767 -19.248 -21.086  0.00  0.00    -0.244 OA
ATOM     15  C   UNK A   1      36.995 -19.532 -20.195  0.00  0.00    +0.352 C 
BRANCH  15  16
ATOM     16  O   UNK A   1      37.271 -19.568 -18.877  0.00  0.00    -0.476 OA
ATOM     17  H   UNK A   1      36.738 -19.090 -18.273  0.00  0.00    +0.295 HD
ENDBRANCH  15  16
ENDBRANCH  11  15
BRANCH  13  18
ATOM     18  C   UNK A   1      35.052 -17.790 -21.609  0.00  0.00    -0.002 C 
ATOM     19  C   UNK A   1      34.845 -16.626 -21.006  0.00  0.00    -0.000 C 
ENDBRANCH  13  18
ENDBRANCH   2   9
BRANCH   3  21
ATOM     20  N   UNK A   0      33.424 -22.763 -14.509  0.00  0.00    -0.079 NA
ATOM     21  C   UNK A   0      32.933 -23.221 -15.620  0.00  0.00    +0.198 C 
BRANCH  21  25
ATOM     22  S   UNK A   0      29.193 -24.393 -15.294  0.00  0.00    -0.060 S 
ATOM     23  N   UNK A   0      30.738 -22.784 -16.601  0.00  0.00    -0.383 NA
ATOM     24  N   UNK A   0      28.458 -22.714 -17.221  0.00  0.00    -0.328 N 
ATOM     25  C   UNK A   0      31.491 -23.478 -15.696  0.00  0.00    +0.148 C 
ATOM     26  C   UNK A   0      30.862 -24.387 -14.900  0.00  0.00    +0.127 C 
ATOM     27  C   UNK A   0      29.494 -23.188 -16.478  0.00  0.00    +0.204 C 
ATOM     28  H   UNK A   0      27.549 -23.062 -17.076  0.00  0.00    +0.145 HD
ATOM     29  H   UNK A   0      28.617 -22.023 -17.904  0.00  0.00    +0.145 HD
ENDBRANCH  21  25
BRANCH  20  30
ATOM     30  O   UNK A   0      34.804 -22.563 -14.593  0.00  0.00    -0.409 OA
ATOM     31  H   UNK A   0      35.287 -22.302 -13.834  0.00  0.00    +0.328 HD
ENDBRANCH  20  30
ENDBRANCH   3  21
TORSDOF 7
ENDMDL
MODEL 9
REMARK VINA RESULT:      -7.5      2.680      7.293
REMARK  Name = 6915944
REMARK  7 active torsions:
REMARK  status: ('A' for Active; 'I' for Inactive)
REMARK    1  A    between atoms: N_2  and  C_9
REMARK    2  A    between atoms: C_3  and  C_21
REMARK    3  A    between atoms: C_11  and  C_15
REMARK    4  A    between atoms: C_13  and  C_18
REMARK    5  A    between atoms: C_15  and  O_16
REMARK    6  A    between atoms: N_20  and  O_30
REMARK    7  A    between atoms: C_21  and  C_25
REMARK                            x       y       z     vdW  Elec       q    Type
REMARK                         _______ _______ _______ _____ _____    ______ ____
ROOT
ATOM      1  O   UNK A   0      33.887 -23.980 -19.205  0.00  0.00    -0.268 OA
ATOM      2  N   UNK A   1      33.811 -23.160 -17.006  0.00  0.00    -0.291 N 
ATOM      3  C   UNK A   0      33.649 -23.111 -18.381  0.00  0.00    +0.269 C 
ATOM      4  H   UNK A   1      33.570 -22.366 -16.474  0.00  0.00    +0.150 HD
ENDROOT
BRANCH   2   9
ATOM      5  S   UNK A   1      36.666 -22.752 -15.961  0.00  0.00    -0.114 S 
ATOM      6  O   UNK A   1      32.755 -24.645 -14.306  0.00  0.00    -0.273 OA
ATOM      7  N   UNK A   1      35.067 -24.190 -14.404  0.00  0.00    -0.242 N 
ATOM      8  C   UNK A   1      35.736 -24.276 -15.690  0.00  0.00    +0.155 C 
ATOM      9  C   UNK A   1      34.324 -24.339 -16.313  0.00  0.00    +0.179 C 
ATOM     10  C   UNK A   1      33.820 -24.465 -14.846  0.00  0.00    +0.251 C 
ATOM     11  C   UNK A   1      35.705 -23.912 -13.236  0.00  0.00    +0.128 C 
ATOM     12  C   UNK A   1      37.722 -23.009 -14.494  0.00  0.00    +0.087 C 
ATOM     13  C   UNK A   1      36.960 -23.400 -13.228  0.00  0.00    +0.009 C 
BRANCH  11  15
ATOM     14  O   UNK A   1      35.191 -25.040 -11.209  0.00  0.00    -0.244 OA
ATOM     15  C   UNK A   1      34.945 -24.153 -11.999  0.00  0.00    +0.352 C 
BRANCH  15  16
ATOM     16  O   UNK A   1      33.956 -23.244 -11.900  0.00  0.00    -0.476 OA
ATOM     17  H   UNK A   1      33.173 -23.453 -11.430  0.00  0.00    +0.295 HD
ENDBRANCH  15  16
ENDBRANCH  11  15
BRANCH  13  18
ATOM     18  C   UNK A   1      37.733 -23.138 -12.029  0.00  0.00    -0.002 C 
ATOM     19  C   UNK A   1      38.713 -23.931 -11.611  0.00  0.00    -0.000 C 
ENDBRANCH  13  18
ENDBRANCH   2   9
BRANCH   3  21
ATOM     20  N   UNK A   0      31.934 -21.386 -18.471  0.00  0.00    -0.079 NA
ATOM     21  C   UNK A   0      33.103 -21.792 -18.865  0.00  0.00    +0.198 C 
BRANCH  21  25
ATOM     22  S   UNK A   0      34.518 -19.387 -21.636  0.00  0.00    -0.060 S 
ATOM     23  N   UNK A   0      35.220 -20.820 -19.602  0.00  0.00    -0.383 NA
ATOM     24  N   UNK A   0      36.981 -19.660 -20.671  0.00  0.00    -0.328 N 
ATOM     25  C   UNK A   0      33.870 -20.940 -19.779  0.00  0.00    +0.148 C 
ATOM     26  C   UNK A   0      33.295 -20.258 -20.808  0.00  0.00    +0.127 C 
ATOM     27  C   UNK A   0      35.675 -20.014 -20.535  0.00  0.00    +0.204 C 
ATOM     28  H   UNK A   0      37.253 -19.051 -21.395  0.00  0.00    +0.145 HD
ATOM     29  H   UNK A   0      37.655 -20.013 -20.046  0.00  0.00    +0.145 HD
ENDBRANCH  21  25
BRANCH  20  30
ATOM     30  O   UNK A   0      31.332 -22.298 -17.601  0.00  0.00    -0.409 OA
ATOM     31  H   UNK A   0      31.672 -23.168 -17.525  0.00  0.00    +0.328 HD
ENDBRANCH  20  30
ENDBRANCH   3  21
TORSDOF 7
ENDMDL
