MODEL 1
REMARK VINA RESULT:      -9.6      0.000      0.000
REMARK  Name = 20313
REMARK  3 active torsions:
REMARK  status: ('A' for Active; 'I' for Inactive)
REMARK    1  A    between atoms: C_8  and  C_17
REMARK    2  A    between atoms: C_17  and  C_18
REMARK    3  A    between atoms: C_18  and  N_20
REMARK                            x       y       z     vdW  Elec       q    Type
REMARK                         _______ _______ _______ _____ _____    ______ ____
ROOT
ATOM      1  C   UNL     1      33.265 -13.269 -23.101  0.00  0.00    -0.005 C 
ATOM      2  C   UNL     1      33.311 -10.265 -23.945  0.00  0.00    +0.031 C 
ATOM      3  C   UNL     1      34.402 -11.094 -24.624  0.00  0.00    +0.031 C 
ATOM      4  C   UNL     1      32.577 -12.193 -22.340  0.00  0.00    -0.004 C 
ATOM      5  C   UNL     1      33.279 -13.354 -24.576  0.00  0.00    -0.004 C 
ATOM      6  C   UNL     1      32.602 -10.835 -22.728  0.00  0.00    -0.022 C 
ATOM      7  C   UNL     1      33.834 -12.302 -25.324  0.00  0.00    -0.022 C 
ATOM      8  C   UNL     1      34.008 -14.178 -22.439  0.00  0.00    -0.028 C 
ATOM      9  C   UNL     1      31.819 -12.559 -21.205  0.00  0.00    -0.000 C 
ATOM     10  C   UNL     1      32.740 -14.468 -25.238  0.00  0.00    -0.000 C 
ATOM     11  C   UNL     1      31.878  -9.898 -21.958  0.00  0.00    -0.004 C 
ATOM     12  C   UNL     1      33.848 -12.384 -26.724  0.00  0.00    -0.004 C 
ATOM     13  C   UNL     1      31.121 -11.613 -20.455  0.00  0.00    -0.000 C 
ATOM     14  C   UNL     1      32.759 -14.537 -26.631  0.00  0.00    -0.000 C 
ATOM     15  C   UNL     1      31.152 -10.279 -20.832  0.00  0.00    -0.000 C 
ATOM     16  C   UNL     1      33.314 -13.497 -27.373  0.00  0.00    -0.000 C 
ENDROOT
BRANCH   8  17
ATOM     17  C   UNL     1      34.740 -15.298 -23.108  0.00  0.00    +0.009 C 
BRANCH  17  18
ATOM     18  C   UNL     1      34.988 -16.466 -22.165  0.00  0.00    -0.023 C 
BRANCH  18  20
ATOM     19  O   UNL     1      36.481 -18.153 -22.814  0.00  0.00    -0.290 OA
ATOM     20  N   UNL     1      35.172 -17.734 -22.912  0.00  0.00    +0.428 N 
ATOM     21  C   UNL     1      34.840 -17.536 -24.370  0.00  0.00    -0.045 C 
ATOM     22  C   UNL     1      34.281 -18.811 -22.347  0.00  0.00    -0.045 C 
ENDBRANCH  18  20
ENDBRANCH  17  18
ENDBRANCH   8  17
TORSDOF 3
ENDMDL
MODEL 2
REMARK VINA RESULT:      -9.5      2.868      5.884
REMARK  Name = 20313
REMARK  3 active torsions:
REMARK  status: ('A' for Active; 'I' for Inactive)
REMARK    1  A    between atoms: C_8  and  C_17
REMARK    2  A    between atoms: C_17  and  C_18
REMARK    3  A    between atoms: C_18  and  N_20
REMARK                            x       y       z     vdW  Elec       q    Type
REMARK                         _______ _______ _______ _____ _____    ______ ____
ROOT
ATOM      1  C   UNL     1      33.526 -14.545 -23.148  0.00  0.00    -0.005 C 
ATOM      2  C   UNL     1      33.855 -16.266 -25.730  0.00  0.00    +0.031 C 
ATOM      3  C   UNL     1      32.777 -15.188 -25.862  0.00  0.00    +0.031 C 
ATOM      4  C   UNL     1      34.218 -15.861 -23.174  0.00  0.00    -0.004 C 
ATOM      5  C   UNL     1      33.674 -13.516 -24.198  0.00  0.00    -0.004 C 
ATOM      6  C   UNL     1      34.363 -16.634 -24.347  0.00  0.00    -0.022 C 
ATOM      7  C   UNL     1      33.308 -13.820 -25.520  0.00  0.00    -0.022 C 
ATOM      8  C   UNL     1      32.632 -14.286 -22.174  0.00  0.00    -0.028 C 
ATOM      9  C   UNL     1      34.804 -16.330 -21.977  0.00  0.00    -0.000 C 
ATOM     10  C   UNL     1      34.181 -12.244 -23.892  0.00  0.00    -0.000 C 
ATOM     11  C   UNL     1      35.077 -17.851 -24.272  0.00  0.00    -0.004 C 
ATOM     12  C   UNL     1      33.448 -12.842 -26.516  0.00  0.00    -0.004 C 
ATOM     13  C   UNL     1      35.495 -17.540 -21.926  0.00  0.00    -0.000 C 
ATOM     14  C   UNL     1      34.316 -11.280 -24.892  0.00  0.00    -0.000 C 
ATOM     15  C   UNL     1      35.631 -18.303 -23.076  0.00  0.00    -0.000 C 
ATOM     16  C   UNL     1      33.948 -11.579 -26.201  0.00  0.00    -0.000 C 
ENDROOT
BRANCH   8  17
ATOM     17  C   UNL     1      31.881 -12.998 -22.056  0.00  0.00    +0.009 C 
BRANCH  17  18
ATOM     18  C   UNL     1      32.064 -12.349 -20.692  0.00  0.00    -0.023 C 
BRANCH  18  20
ATOM     19  O   UNL     1      30.016 -11.224 -20.881  0.00  0.00    -0.290 OA
ATOM     20  N   UNL     1      31.356 -11.048 -20.613  0.00  0.00    +0.428 N 
ATOM     21  C   UNL     1      31.923 -10.080 -21.622  0.00  0.00    -0.045 C 
ATOM     22  C   UNL     1      31.496 -10.457 -19.234  0.00  0.00    -0.045 C 
ENDBRANCH  18  20
ENDBRANCH  17  18
ENDBRANCH   8  17
TORSDOF 3
ENDMDL
MODEL 3
REMARK VINA RESULT:      -9.3     10.669     14.202
REMARK  Name = 20313
REMARK  3 active torsions:
REMARK  status: ('A' for Active; 'I' for Inactive)
REMARK    1  A    between atoms: C_8  and  C_17
REMARK    2  A    between atoms: C_17  and  C_18
REMARK    3  A    between atoms: C_18  and  N_20
REMARK                            x       y       z     vdW  Elec       q    Type
REMARK                         _______ _______ _______ _____ _____    ______ ____
ROOT
ATOM      1  C   UNL     1      35.197 -23.903 -15.401  0.00  0.00    -0.005 C 
ATOM      2  C   UNL     1      37.232 -22.125 -16.961  0.00  0.00    +0.031 C 
ATOM      3  C   UNL     1      37.684 -22.442 -15.535  0.00  0.00    +0.031 C 
ATOM      4  C   UNL     1      34.853 -23.157 -16.640  0.00  0.00    -0.004 C 
ATOM      5  C   UNL     1      36.468 -24.628 -15.203  0.00  0.00    -0.004 C 
ATOM      6  C   UNL     1      35.779 -22.354 -17.342  0.00  0.00    -0.022 C 
ATOM      7  C   UNL     1      37.683 -23.924 -15.263  0.00  0.00    -0.022 C 
ATOM      8  C   UNL     1      34.363 -23.851 -14.344  0.00  0.00    -0.028 C 
ATOM      9  C   UNL     1      33.550 -23.305 -17.167  0.00  0.00    -0.000 C 
ATOM     10  C   UNL     1      36.478 -26.011 -14.963  0.00  0.00    -0.000 C 
ATOM     11  C   UNL     1      35.361 -21.723 -18.534  0.00  0.00    -0.004 C 
ATOM     12  C   UNL     1      38.889 -24.614 -15.074  0.00  0.00    -0.004 C 
ATOM     13  C   UNL     1      33.158 -22.662 -18.342  0.00  0.00    -0.000 C 
ATOM     14  C   UNL     1      37.685 -26.686 -14.778  0.00  0.00    -0.000 C 
ATOM     15  C   UNL     1      34.066 -21.868 -19.025  0.00  0.00    -0.000 C 
ATOM     16  C   UNL     1      38.888 -25.988 -14.832  0.00  0.00    -0.000 C 
ENDROOT
BRANCH   8  17
ATOM     17  C   UNL     1      34.614 -24.562 -13.052  0.00  0.00    +0.009 C 
BRANCH  17  18
ATOM     18  C   UNL     1      34.977 -23.602 -11.929  0.00  0.00    -0.023 C 
BRANCH  18  20
ATOM     19  O   UNL     1      36.169 -23.938  -9.938  0.00  0.00    -0.290 OA
ATOM     20  N   UNL     1      36.278 -23.960 -11.311  0.00  0.00    +0.428 N 
ATOM     21  C   UNL     1      37.342 -22.973 -11.723  0.00  0.00    -0.045 C 
ATOM     22  C   UNL     1      36.700 -25.343 -11.738  0.00  0.00    -0.045 C 
ENDBRANCH  18  20
ENDBRANCH  17  18
ENDBRANCH   8  17
TORSDOF 3
ENDMDL
MODEL 4
REMARK VINA RESULT:      -9.3      9.981     13.574
REMARK  Name = 20313
REMARK  3 active torsions:
REMARK  status: ('A' for Active; 'I' for Inactive)
REMARK    1  A    between atoms: C_8  and  C_17
REMARK    2  A    between atoms: C_17  and  C_18
REMARK    3  A    between atoms: C_18  and  N_20
REMARK                            x       y       z     vdW  Elec       q    Type
REMARK                         _______ _______ _______ _____ _____    ______ ____
ROOT
ATOM      1  C   UNL     1      34.734 -23.404 -16.065  0.00  0.00    -0.005 C 
ATOM      2  C   UNL     1      37.321 -21.882 -16.918  0.00  0.00    +0.031 C 
ATOM      3  C   UNL     1      37.280 -22.201 -15.423  0.00  0.00    +0.031 C 
ATOM      4  C   UNL     1      34.865 -22.664 -17.348  0.00  0.00    -0.004 C 
ATOM      5  C   UNL     1      35.803 -24.246 -15.488  0.00  0.00    -0.004 C 
ATOM      6  C   UNL     1      36.039 -21.977 -17.728  0.00  0.00    -0.022 C 
ATOM      7  C   UNL     1      37.043 -23.667 -15.169  0.00  0.00    -0.022 C 
ATOM      8  C   UNL     1      33.627 -23.239 -15.315  0.00  0.00    -0.028 C 
ATOM      9  C   UNL     1      33.778 -22.698 -18.250  0.00  0.00    -0.000 C 
ATOM     10  C   UNL     1      35.596 -25.615 -15.260  0.00  0.00    -0.000 C 
ATOM     11  C   UNL     1      36.073 -21.343 -18.989  0.00  0.00    -0.004 C 
ATOM     12  C   UNL     1      38.055 -24.467 -14.621  0.00  0.00    -0.004 C 
ATOM     13  C   UNL     1      33.833 -22.053 -19.486  0.00  0.00    -0.000 C 
ATOM     14  C   UNL     1      36.612 -26.400 -14.715  0.00  0.00    -0.000 C 
ATOM     15  C   UNL     1      34.983 -21.373 -19.855  0.00  0.00    -0.000 C 
ATOM     16  C   UNL     1      37.839 -25.826 -14.394  0.00  0.00    -0.000 C 
ENDROOT
BRANCH   8  17
ATOM     17  C   UNL     1      33.396 -23.934 -14.010  0.00  0.00    +0.009 C 
BRANCH  17  18
ATOM     18  C   UNL     1      32.225 -24.902 -14.074  0.00  0.00    -0.023 C 
BRANCH  18  20
ATOM     19  O   UNL     1      30.683 -24.114 -12.495  0.00  0.00    -0.290 OA
ATOM     20  N   UNL     1      30.935 -24.206 -13.845  0.00  0.00    +0.428 N 
ATOM     21  C   UNL     1      29.806 -24.969 -14.493  0.00  0.00    -0.045 C 
ATOM     22  C   UNL     1      30.980 -22.814 -14.421  0.00  0.00    -0.045 C 
ENDBRANCH  18  20
ENDBRANCH  17  18
ENDBRANCH   8  17
TORSDOF 3
ENDMDL
MODEL 5
REMARK VINA RESULT:      -9.0      3.153      5.939
REMARK  Name = 20313
REMARK  3 active torsions:
REMARK  status: ('A' for Active; 'I' for Inactive)
REMARK    1  A    between atoms: C_8  and  C_17
REMARK    2  A    between atoms: C_17  and  C_18
REMARK    3  A    between atoms: C_18  and  N_20
REMARK                            x       y       z     vdW  Elec       q    Type
REMARK                         _______ _______ _______ _____ _____    ______ ____
ROOT
ATOM      1  C   UNL     1      33.262 -13.058 -22.892  0.00  0.00    -0.005 C 
ATOM      2  C   UNL     1      33.711 -15.523 -24.751  0.00  0.00    +0.031 C 
ATOM      3  C   UNL     1      32.844 -14.440 -25.393  0.00  0.00    +0.031 C 
ATOM      4  C   UNL     1      33.740 -14.378 -22.402  0.00  0.00    -0.004 C 
ATOM      5  C   UNL     1      33.722 -12.429 -24.147  0.00  0.00    -0.004 C 
ATOM      6  C   UNL     1      33.942 -15.490 -23.250  0.00  0.00    -0.022 C 
ATOM      7  C   UNL     1      33.520 -13.093 -25.368  0.00  0.00    -0.022 C 
ATOM      8  C   UNL     1      32.280 -12.421 -22.224  0.00  0.00    -0.028 C 
ATOM      9  C   UNL     1      34.059 -14.505 -21.031  0.00  0.00    -0.000 C 
ATOM     10  C   UNL     1      34.365 -11.182 -24.132  0.00  0.00    -0.000 C 
ATOM     11  C   UNL     1      34.442 -16.686 -22.689  0.00  0.00    -0.004 C 
ATOM     12  C   UNL     1      33.957 -12.494 -26.558  0.00  0.00    -0.004 C 
ATOM     13  C   UNL     1      34.541 -15.701 -20.501  0.00  0.00    -0.000 C 
ATOM     14  C   UNL     1      34.796 -10.597 -25.323  0.00  0.00    -0.000 C 
ATOM     15  C   UNL     1      34.731 -16.795 -21.331  0.00  0.00    -0.000 C 
ATOM     16  C   UNL     1      34.590 -11.252 -26.535  0.00  0.00    -0.000 C 
ENDROOT
BRANCH   8  17
ATOM     17  C   UNL     1      31.726 -11.092 -22.631  0.00  0.00    +0.009 C 
BRANCH  17  18
ATOM     18  C   UNL     1      31.847 -10.056 -21.524  0.00  0.00    -0.023 C 
BRANCH  18  20
ATOM     19  O   UNL     1      33.429  -8.619 -22.488  0.00  0.00    -0.290 OA
ATOM     20  N   UNL     1      32.118  -8.705 -22.075  0.00  0.00    +0.428 N 
ATOM     21  C   UNL     1      31.878  -7.652 -21.021  0.00  0.00    -0.045 C 
ATOM     22  C   UNL     1      31.223  -8.430 -23.256  0.00  0.00    -0.045 C 
ENDBRANCH  18  20
ENDBRANCH  17  18
ENDBRANCH   8  17
TORSDOF 3
ENDMDL
MODEL 6
REMARK VINA RESULT:      -8.2     10.126     13.205
REMARK  Name = 20313
REMARK  3 active torsions:
REMARK  status: ('A' for Active; 'I' for Inactive)
REMARK    1  A    between atoms: C_8  and  C_17
REMARK    2  A    between atoms: C_17  and  C_18
REMARK    3  A    between atoms: C_18  and  N_20
REMARK                            x       y       z     vdW  Elec       q    Type
REMARK                         _______ _______ _______ _____ _____    ______ ____
ROOT
ATOM      1  C   UNL     1      35.125 -23.135 -16.196  0.00  0.00    -0.005 C 
ATOM      2  C   UNL     1      33.585 -22.678 -18.871  0.00  0.00    +0.031 C 
ATOM      3  C   UNL     1      33.071 -23.883 -18.083  0.00  0.00    +0.031 C 
ATOM      4  C   UNL     1      35.640 -22.288 -17.305  0.00  0.00    -0.004 C 
ATOM      5  C   UNL     1      33.715 -23.148 -15.756  0.00  0.00    -0.004 C 
ATOM      6  C   UNL     1      34.937 -22.085 -18.513  0.00  0.00    -0.022 C 
ATOM      7  C   UNL     1      32.710 -23.514 -16.667  0.00  0.00    -0.022 C 
ATOM      8  C   UNL     1      35.948 -24.023 -15.605  0.00  0.00    -0.028 C 
ATOM      9  C   UNL     1      36.866 -21.612 -17.113  0.00  0.00    -0.000 C 
ATOM     10  C   UNL     1      33.367 -22.792 -14.444  0.00  0.00    -0.000 C 
ATOM     11  C   UNL     1      35.495 -21.225 -19.484  0.00  0.00    -0.004 C 
ATOM     12  C   UNL     1      31.371 -23.527 -16.248  0.00  0.00    -0.004 C 
ATOM     13  C   UNL     1      37.401 -20.776 -18.092  0.00  0.00    -0.000 C 
ATOM     14  C   UNL     1      32.032 -22.808 -14.040  0.00  0.00    -0.000 C 
ATOM     15  C   UNL     1      36.714 -20.583 -19.281  0.00  0.00    -0.000 C 
ATOM     16  C   UNL     1      31.036 -23.176 -14.940  0.00  0.00    -0.000 C 
ENDROOT
BRANCH   8  17
ATOM     17  C   UNL     1      35.531 -24.923 -14.484  0.00  0.00    +0.009 C 
BRANCH  17  18
ATOM     18  C   UNL     1      36.716 -25.633 -13.847  0.00  0.00    -0.023 C 
BRANCH  18  20
ATOM     19  O   UNL     1      36.982 -26.468 -11.673  0.00  0.00    -0.290 OA
ATOM     20  N   UNL     1      36.827 -25.311 -12.403  0.00  0.00    +0.428 N 
ATOM     21  C   UNL     1      35.582 -24.606 -11.927  0.00  0.00    -0.045 C 
ATOM     22  C   UNL     1      38.020 -24.423 -12.154  0.00  0.00    -0.045 C 
ENDBRANCH  18  20
ENDBRANCH  17  18
ENDBRANCH   8  17
TORSDOF 3
ENDMDL
MODEL 7
REMARK VINA RESULT:      -8.1      4.319      6.634
REMARK  Name = 20313
REMARK  3 active torsions:
REMARK  status: ('A' for Active; 'I' for Inactive)
REMARK    1  A    between atoms: C_8  and  C_17
REMARK    2  A    between atoms: C_17  and  C_18
REMARK    3  A    between atoms: C_18  and  N_20
REMARK                            x       y       z     vdW  Elec       q    Type
REMARK                         _______ _______ _______ _____ _____    ______ ____
ROOT
ATOM      1  C   UNL     1      32.610  -7.409 -22.912  0.00  0.00    -0.005 C 
ATOM      2  C   UNL     1      34.456  -6.384 -25.209  0.00  0.00    +0.031 C 
ATOM      3  C   UNL     1      35.181  -7.301 -24.222  0.00  0.00    +0.031 C 
ATOM      4  C   UNL     1      32.277  -6.245 -23.775  0.00  0.00    -0.004 C 
ATOM      5  C   UNL     1      33.214  -8.660 -23.415  0.00  0.00    -0.004 C 
ATOM      6  C   UNL     1      33.118  -5.786 -24.813  0.00  0.00    -0.022 C 
ATOM      7  C   UNL     1      34.466  -8.616 -24.050  0.00  0.00    -0.022 C 
ATOM      8  C   UNL     1      32.453  -7.311 -21.578  0.00  0.00    -0.028 C 
ATOM      9  C   UNL     1      31.033  -5.603 -23.577  0.00  0.00    -0.000 C 
ATOM     10  C   UNL     1      32.550  -9.888 -23.273  0.00  0.00    -0.000 C 
ATOM     11  C   UNL     1      32.686  -4.697 -25.603  0.00  0.00    -0.004 C 
ATOM     12  C   UNL     1      35.039  -9.804 -24.527  0.00  0.00    -0.004 C 
ATOM     13  C   UNL     1      30.635  -4.522 -24.364  0.00  0.00    -0.000 C 
ATOM     14  C   UNL     1      33.130 -11.063 -23.752  0.00  0.00    -0.000 C 
ATOM     15  C   UNL     1      31.464  -4.068 -25.378  0.00  0.00    -0.000 C 
ATOM     16  C   UNL     1      34.374 -11.021 -24.376  0.00  0.00    -0.000 C 
ENDROOT
BRANCH   8  17
ATOM     17  C   UNL     1      32.759  -8.420 -20.622  0.00  0.00    +0.009 C 
BRANCH  17  18
ATOM     18  C   UNL     1      31.515  -8.912 -19.896  0.00  0.00    -0.023 C 
BRANCH  18  20
ATOM     19  O   UNL     1      32.743 -10.895 -20.130  0.00  0.00    -0.290 OA
ATOM     20  N   UNL     1      31.516 -10.390 -19.763  0.00  0.00    +0.428 N 
ATOM     21  C   UNL     1      30.461 -10.997 -20.656  0.00  0.00    -0.045 C 
ATOM     22  C   UNL     1      31.240 -10.789 -18.336  0.00  0.00    -0.045 C 
ENDBRANCH  18  20
ENDBRANCH  17  18
ENDBRANCH   8  17
TORSDOF 3
ENDMDL
MODEL 8
REMARK VINA RESULT:      -8.0      5.193      7.396
REMARK  Name = 20313
REMARK  3 active torsions:
REMARK  status: ('A' for Active; 'I' for Inactive)
REMARK    1  A    between atoms: C_8  and  C_17
REMARK    2  A    between atoms: C_17  and  C_18
REMARK    3  A    between atoms: C_18  and  N_20
REMARK                            x       y       z     vdW  Elec       q    Type
REMARK                         _______ _______ _______ _____ _____    ______ ____
ROOT
ATOM      1  C   UNL     1      32.173  -9.340 -22.577  0.00  0.00    -0.005 C 
ATOM      2  C   UNL     1      32.242 -12.445 -22.280  0.00  0.00    +0.031 C 
ATOM      3  C   UNL     1      32.127 -11.985 -23.734  0.00  0.00    +0.031 C 
ATOM      4  C   UNL     1      31.915 -10.047 -21.295  0.00  0.00    -0.004 C 
ATOM      5  C   UNL     1      33.233  -9.726 -23.531  0.00  0.00    -0.004 C 
ATOM      6  C   UNL     1      31.948 -11.453 -21.168  0.00  0.00    -0.022 C 
ATOM      7  C   UNL     1      33.216 -11.010 -24.101  0.00  0.00    -0.022 C 
ATOM      8  C   UNL     1      31.348  -8.347 -22.963  0.00  0.00    -0.028 C 
ATOM      9  C   UNL     1      31.678  -9.268 -20.139  0.00  0.00    -0.000 C 
ATOM     10  C   UNL     1      34.259  -8.830 -23.868  0.00  0.00    -0.000 C 
ATOM     11  C   UNL     1      31.731 -12.023 -19.893  0.00  0.00    -0.004 C 
ATOM     12  C   UNL     1      34.222 -11.375 -25.007  0.00  0.00    -0.004 C 
ATOM     13  C   UNL     1      31.457  -9.856 -18.894  0.00  0.00    -0.000 C 
ATOM     14  C   UNL     1      35.255  -9.206 -24.770  0.00  0.00    -0.000 C 
ATOM     15  C   UNL     1      31.481 -11.236 -18.771  0.00  0.00    -0.000 C 
ATOM     16  C   UNL     1      35.235 -10.475 -25.340  0.00  0.00    -0.000 C 
ENDROOT
BRANCH   8  17
ATOM     17  C   UNL     1      31.518  -7.573 -24.232  0.00  0.00    +0.009 C 
BRANCH  17  18
ATOM     18  C   UNL     1      30.539  -6.412 -24.333  0.00  0.00    -0.023 C 
BRANCH  18  20
ATOM     19  O   UNL     1      30.446  -4.133 -24.869  0.00  0.00    -0.290 OA
ATOM     20  N   UNL     1      31.244  -5.107 -24.313  0.00  0.00    +0.428 N 
ATOM     21  C   UNL     1      32.524  -5.191 -25.108  0.00  0.00    -0.045 C 
ATOM     22  C   UNL     1      31.572  -4.709 -22.896  0.00  0.00    -0.045 C 
ENDBRANCH  18  20
ENDBRANCH  17  18
ENDBRANCH   8  17
TORSDOF 3
ENDMDL
MODEL 9
REMARK VINA RESULT:      -7.7      1.671      4.070
REMARK  Name = 20313
REMARK  3 active torsions:
REMARK  status: ('A' for Active; 'I' for Inactive)
REMARK    1  A    between atoms: C_8  and  C_17
REMARK    2  A    between atoms: C_17  and  C_18
REMARK    3  A    between atoms: C_18  and  N_20
REMARK                            x       y       z     vdW  Elec       q    Type
REMARK                         _______ _______ _______ _____ _____    ______ ____
ROOT
ATOM      1  C   UNL     1      33.450 -12.498 -23.779  0.00  0.00    -0.005 C 
ATOM      2  C   UNL     1      32.074 -10.177 -22.213  0.00  0.00    +0.031 C 
ATOM      3  C   UNL     1      31.285 -11.486 -22.158  0.00  0.00    +0.031 C 
ATOM      4  C   UNL     1      33.795 -11.064 -23.968  0.00  0.00    -0.004 C 
ATOM      5  C   UNL     1      33.188 -13.116 -22.463  0.00  0.00    -0.004 C 
ATOM      6  C   UNL     1      33.168 -10.018 -23.255  0.00  0.00    -0.022 C 
ATOM      7  C   UNL     1      32.134 -12.632 -21.670  0.00  0.00    -0.022 C 
ATOM      8  C   UNL     1      33.264 -13.282 -24.859  0.00  0.00    -0.028 C 
ATOM      9  C   UNL     1      34.838 -10.741 -24.865  0.00  0.00    -0.000 C 
ATOM     10  C   UNL     1      33.982 -14.173 -21.994  0.00  0.00    -0.000 C 
ATOM     11  C   UNL     1      33.601  -8.692 -23.477  0.00  0.00    -0.004 C 
ATOM     12  C   UNL     1      31.886 -13.219 -20.421  0.00  0.00    -0.004 C 
ATOM     13  C   UNL     1      35.240  -9.423 -25.075  0.00  0.00    -0.000 C 
ATOM     14  C   UNL     1      33.725 -14.749 -20.749  0.00  0.00    -0.000 C 
ATOM     15  C   UNL     1      34.619  -8.396 -24.380  0.00  0.00    -0.000 C 
ATOM     16  C   UNL     1      32.677 -14.273 -19.965  0.00  0.00    -0.000 C 
ENDROOT
BRANCH   8  17
ATOM     17  C   UNL     1      32.914 -14.734 -24.781  0.00  0.00    +0.009 C 
BRANCH  17  18
ATOM     18  C   UNL     1      33.552 -15.540 -25.903  0.00  0.00    -0.023 C 
BRANCH  18  20
ATOM     19  O   UNL     1      35.514 -16.803 -26.120  0.00  0.00    -0.290 OA
ATOM     20  N   UNL     1      34.368 -16.658 -25.370  0.00  0.00    +0.428 N 
ATOM     21  C   UNL     1      33.590 -17.949 -25.428  0.00  0.00    -0.045 C 
ATOM     22  C   UNL     1      34.761 -16.385 -23.940  0.00  0.00    -0.045 C 
ENDBRANCH  18  20
ENDBRANCH  17  18
ENDBRANCH   8  17
TORSDOF 3
ENDMDL
