MODEL 1
REMARK VINA RESULT:      -8.3      0.000      0.000
REMARK  Name = 149790
REMARK  8 active torsions:
REMARK  status: ('A' for Active; 'I' for Inactive)
REMARK    1  A    between atoms: N_1  and  C_13
REMARK    2  A    between atoms: C_13  and  C_14
REMARK    3  A    between atoms: C_13  and  C_18
REMARK    4  A    between atoms: C_14  and  O_16
REMARK    5  A    between atoms: C_18  and  C_19
REMARK    6  A    between atoms: C_19  and  C_20
REMARK    7  A    between atoms: C_20  and  C_21
REMARK    8  A    between atoms: C_21  and  C_22
REMARK                            x       y       z     vdW  Elec       q    Type
REMARK                         _______ _______ _______ _____ _____    ______ ____
ROOT
ATOM      1  N   UNL     1      34.394 -19.229 -21.010  0.00  0.00    -0.271 N 
ATOM      2  N   UNL     1      32.680 -20.475 -20.403  0.00  0.00    -0.242 NA
ATOM      3  N   UNL     1      36.211 -20.386 -19.899  0.00  0.00    -0.228 NA
ATOM      4  N   UNL     1      35.375 -22.319 -18.665  0.00  0.00    -0.229 NA
ATOM      5  C   UNL     1      34.927 -20.199 -20.238  0.00  0.00    +0.151 C 
ATOM      6  C   UNL     1      33.055 -19.417 -21.091  0.00  0.00    +0.221 C 
ATOM      7  C   UNL     1      33.840 -20.974 -19.864  0.00  0.00    +0.140 C 
ATOM      8  C   UNL     1      34.099 -22.070 -19.048  0.00  0.00    +0.143 C 
ATOM      9  C   UNL     1      36.337 -21.474 -19.108  0.00  0.00    +0.253 C 
ATOM     10  N   UNL     1      33.057 -22.911 -18.622  0.00  0.00    -0.342 N 
ATOM     11  H   UNL     1      33.252 -23.684 -18.045  0.00  0.00    +0.144 HD
ATOM     12  H   UNL     1      32.131 -22.728 -18.902  0.00  0.00    +0.144 HD
ENDROOT
BRANCH   1  13
ATOM     13  C   UNL     1      35.136 -18.140 -21.661  0.00  0.00    +0.103 C 
BRANCH  13  14
ATOM     14  C   UNL     1      34.785 -18.021 -23.166  0.00  0.00    +0.129 C 
ATOM     15  C   UNL     1      34.927 -19.342 -23.920  0.00  0.00    +0.033 C 
BRANCH  14  16
ATOM     16  O   UNL     1      35.673 -17.079 -23.770  0.00  0.00    -0.383 OA
ATOM     17  H   UNL     1      36.105 -16.552 -23.079  0.00  0.00    +0.210 HD
ENDBRANCH  14  16
ENDBRANCH  13  14
BRANCH  13  18
ATOM     18  C   UNL     1      34.961 -16.789 -20.922  0.00  0.00    +0.022 C 
BRANCH  18  19
ATOM     19  C   UNL     1      33.686 -16.038 -21.331  0.00  0.00    +0.002 C 
BRANCH  19  20
ATOM     20  C   UNL     1      33.934 -14.529 -21.406  0.00  0.00    +0.000 C 
BRANCH  20  21
ATOM     21  C   UNL     1      34.188 -14.025 -22.829  0.00  0.00    +0.000 C 
BRANCH  21  22
ATOM     22  C   UNL     1      33.004 -14.131 -23.794  0.00  0.00    +0.000 C 
ATOM     23  C   UNL     1      33.335 -14.862 -25.086  0.00  0.00    +0.000 C 
ENDBRANCH  21  22
ENDBRANCH  20  21
ENDBRANCH  19  20
ENDBRANCH  18  19
ENDBRANCH  13  18
ENDBRANCH   1  13
TORSDOF 8
ENDMDL
MODEL 2
REMARK VINA RESULT:      -8.1      1.173      2.223
REMARK  Name = 149790
REMARK  8 active torsions:
REMARK  status: ('A' for Active; 'I' for Inactive)
REMARK    1  A    between atoms: N_1  and  C_13
REMARK    2  A    between atoms: C_13  and  C_14
REMARK    3  A    between atoms: C_13  and  C_18
REMARK    4  A    between atoms: C_14  and  O_16
REMARK    5  A    between atoms: C_18  and  C_19
REMARK    6  A    between atoms: C_19  and  C_20
REMARK    7  A    between atoms: C_20  and  C_21
REMARK    8  A    between atoms: C_21  and  C_22
REMARK                            x       y       z     vdW  Elec       q    Type
REMARK                         _______ _______ _______ _____ _____    ______ ____
ROOT
ATOM      1  N   UNL     1      33.988 -19.706 -21.117  0.00  0.00    -0.271 N 
ATOM      2  N   UNL     1      32.652 -21.035 -19.972  0.00  0.00    -0.242 NA
ATOM      3  N   UNL     1      36.147 -20.369 -20.239  0.00  0.00    -0.228 NA
ATOM      4  N   UNL     1      35.894 -22.126 -18.564  0.00  0.00    -0.229 NA
ATOM      5  C   UNL     1      34.810 -20.428 -20.327  0.00  0.00    +0.151 C 
ATOM      6  C   UNL     1      32.709 -20.088 -20.884  0.00  0.00    +0.221 C 
ATOM      7  C   UNL     1      33.959 -21.258 -19.615  0.00  0.00    +0.140 C 
ATOM      8  C   UNL     1      34.547 -22.131 -18.705  0.00  0.00    +0.143 C 
ATOM      9  C   UNL     1      36.600 -21.258 -19.328  0.00  0.00    +0.253 C 
ATOM     10  N   UNL     1      33.759 -23.010 -17.941  0.00  0.00    -0.342 N 
ATOM     11  H   UNL     1      34.186 -23.623 -17.301  0.00  0.00    +0.144 HD
ATOM     12  H   UNL     1      32.780 -23.012 -18.047  0.00  0.00    +0.144 HD
ENDROOT
BRANCH   1  13
ATOM     13  C   UNL     1      34.400 -18.672 -22.076  0.00  0.00    +0.103 C 
BRANCH  13  14
ATOM     14  C   UNL     1      35.410 -17.676 -21.452  0.00  0.00    +0.129 C 
ATOM     15  C   UNL     1      34.879 -16.246 -21.388  0.00  0.00    +0.033 C 
BRANCH  14  16
ATOM     16  O   UNL     1      36.594 -17.663 -22.253  0.00  0.00    -0.383 OA
ATOM     17  H   UNL     1      37.201 -16.982 -21.921  0.00  0.00    +0.210 HD
ENDBRANCH  14  16
ENDBRANCH  13  14
BRANCH  13  18
ATOM     18  C   UNL     1      34.934 -19.279 -23.398  0.00  0.00    +0.022 C 
BRANCH  18  19
ATOM     19  C   UNL     1      34.187 -18.774 -24.639  0.00  0.00    +0.002 C 
BRANCH  19  20
ATOM     20  C   UNL     1      34.796 -17.469 -25.158  0.00  0.00    +0.000 C 
BRANCH  20  21
ATOM     21  C   UNL     1      33.967 -16.230 -24.809  0.00  0.00    +0.000 C 
BRANCH  21  22
ATOM     22  C   UNL     1      33.375 -15.469 -25.997  0.00  0.00    +0.000 C 
ATOM     23  C   UNL     1      33.079 -14.008 -25.699  0.00  0.00    +0.000 C 
ENDBRANCH  21  22
ENDBRANCH  20  21
ENDBRANCH  19  20
ENDBRANCH  18  19
ENDBRANCH  13  18
ENDBRANCH   1  13
TORSDOF 8
ENDMDL
MODEL 3
REMARK VINA RESULT:      -8.0      3.200      7.102
REMARK  Name = 149790
REMARK  8 active torsions:
REMARK  status: ('A' for Active; 'I' for Inactive)
REMARK    1  A    between atoms: N_1  and  C_13
REMARK    2  A    between atoms: C_13  and  C_14
REMARK    3  A    between atoms: C_13  and  C_18
REMARK    4  A    between atoms: C_14  and  O_16
REMARK    5  A    between atoms: C_18  and  C_19
REMARK    6  A    between atoms: C_19  and  C_20
REMARK    7  A    between atoms: C_20  and  C_21
REMARK    8  A    between atoms: C_21  and  C_22
REMARK                            x       y       z     vdW  Elec       q    Type
REMARK                         _______ _______ _______ _____ _____    ______ ____
ROOT
ATOM      1  N   UNL     1      34.269 -16.160 -22.762  0.00  0.00    -0.271 N 
ATOM      2  N   UNL     1      34.467 -14.088 -22.037  0.00  0.00    -0.242 NA
ATOM      3  N   UNL     1      33.527 -15.776 -25.037  0.00  0.00    -0.228 NA
ATOM      4  N   UNL     1      33.340 -13.385 -25.489  0.00  0.00    -0.229 NA
ATOM      5  C   UNL     1      33.916 -15.391 -23.812  0.00  0.00    +0.151 C 
ATOM      6  C   UNL     1      34.591 -15.359 -21.719  0.00  0.00    +0.221 C 
ATOM      7  C   UNL     1      34.046 -14.093 -23.343  0.00  0.00    +0.140 C 
ATOM      8  C   UNL     1      33.741 -13.068 -24.234  0.00  0.00    +0.143 C 
ATOM      9  C   UNL     1      33.259 -14.699 -25.808  0.00  0.00    +0.253 C 
ATOM     10  N   UNL     1      33.846 -11.722 -23.844  0.00  0.00    -0.342 N 
ATOM     11  H   UNL     1      33.627 -11.006 -24.482  0.00  0.00    +0.144 HD
ATOM     12  H   UNL     1      34.138 -11.496 -22.931  0.00  0.00    +0.144 HD
ENDROOT
BRANCH   1  13
ATOM     13  C   UNL     1      34.301 -17.630 -22.741  0.00  0.00    +0.103 C 
BRANCH  13  14
ATOM     14  C   UNL     1      35.372 -18.197 -23.707  0.00  0.00    +0.129 C 
ATOM     15  C   UNL     1      34.989 -19.553 -24.295  0.00  0.00    +0.033 C 
BRANCH  14  16
ATOM     16  O   UNL     1      36.594 -18.367 -22.987  0.00  0.00    -0.383 OA
ATOM     17  H   UNL     1      37.195 -17.633 -23.191  0.00  0.00    +0.210 HD
ENDBRANCH  14  16
ENDBRANCH  13  14
BRANCH  13  18
ATOM     18  C   UNL     1      34.466 -18.191 -21.306  0.00  0.00    +0.022 C 
BRANCH  18  19
ATOM     19  C   UNL     1      33.438 -19.277 -20.961  0.00  0.00    +0.002 C 
BRANCH  19  20
ATOM     20  C   UNL     1      34.107 -20.476 -20.283  0.00  0.00    +0.000 C 
BRANCH  20  21
ATOM     21  C   UNL     1      35.619 -20.537 -20.510  0.00  0.00    +0.000 C 
BRANCH  21  22
ATOM     22  C   UNL     1      36.429 -21.231 -19.413  0.00  0.00    +0.000 C 
ATOM     23  C   UNL     1      35.572 -21.974 -18.400  0.00  0.00    +0.000 C 
ENDBRANCH  21  22
ENDBRANCH  20  21
ENDBRANCH  19  20
ENDBRANCH  18  19
ENDBRANCH  13  18
ENDBRANCH   1  13
TORSDOF 8
ENDMDL
MODEL 4
REMARK VINA RESULT:      -8.0      5.604      8.634
REMARK  Name = 149790
REMARK  8 active torsions:
REMARK  status: ('A' for Active; 'I' for Inactive)
REMARK    1  A    between atoms: N_1  and  C_13
REMARK    2  A    between atoms: C_13  and  C_14
REMARK    3  A    between atoms: C_13  and  C_18
REMARK    4  A    between atoms: C_14  and  O_16
REMARK    5  A    between atoms: C_18  and  C_19
REMARK    6  A    between atoms: C_19  and  C_20
REMARK    7  A    between atoms: C_20  and  C_21
REMARK    8  A    between atoms: C_21  and  C_22
REMARK                            x       y       z     vdW  Elec       q    Type
REMARK                         _______ _______ _______ _____ _____    ______ ____
ROOT
ATOM      1  N   UNL     1      35.449 -24.235 -14.669  0.00  0.00    -0.271 N 
ATOM      2  N   UNL     1      37.378 -23.407 -13.995  0.00  0.00    -0.242 NA
ATOM      3  N   UNL     1      36.114 -26.479 -15.297  0.00  0.00    -0.228 NA
ATOM      4  N   UNL     1      38.504 -26.807 -14.921  0.00  0.00    -0.229 NA
ATOM      5  C   UNL     1      36.334 -25.241 -14.831  0.00  0.00    +0.151 C 
ATOM      6  C   UNL     1      36.098 -23.155 -14.171  0.00  0.00    +0.221 C 
ATOM      7  C   UNL     1      37.540 -24.707 -14.404  0.00  0.00    +0.140 C 
ATOM      8  C   UNL     1      38.652 -25.542 -14.460  0.00  0.00    +0.143 C 
ATOM      9  C   UNL     1      37.262 -27.191 -15.305  0.00  0.00    +0.253 C 
ATOM     10  N   UNL     1      39.914 -25.084 -14.045  0.00  0.00    -0.342 N 
ATOM     11  H   UNL     1      40.694 -25.683 -14.089  0.00  0.00    +0.144 HD
ATOM     12  H   UNL     1      40.019 -24.164 -13.710  0.00  0.00    +0.144 HD
ENDROOT
BRANCH   1  13
ATOM     13  C   UNL     1      34.014 -24.290 -14.980  0.00  0.00    +0.103 C 
BRANCH  13  14
ATOM     14  C   UNL     1      33.151 -24.436 -13.701  0.00  0.00    +0.129 C 
ATOM     15  C   UNL     1      31.785 -25.064 -13.969  0.00  0.00    +0.033 C 
BRANCH  14  16
ATOM     16  O   UNL     1      32.930 -23.138 -13.147  0.00  0.00    -0.383 OA
ATOM     17  H   UNL     1      33.593 -22.521 -13.495  0.00  0.00    +0.210 HD
ENDBRANCH  14  16
ENDBRANCH  13  14
BRANCH  13  18
ATOM     18  C   UNL     1      33.556 -23.089 -15.847  0.00  0.00    +0.022 C 
BRANCH  18  19
ATOM     19  C   UNL     1      34.035 -23.179 -17.303  0.00  0.00    +0.002 C 
BRANCH  19  20
ATOM     20  C   UNL     1      33.097 -22.416 -18.241  0.00  0.00    +0.000 C 
BRANCH  20  21
ATOM     21  C   UNL     1      33.826 -21.701 -19.382  0.00  0.00    +0.000 C 
BRANCH  21  22
ATOM     22  C   UNL     1      33.050 -20.572 -20.063  0.00  0.00    +0.000 C 
ATOM     23  C   UNL     1      33.927 -19.636 -20.880  0.00  0.00    +0.000 C 
ENDBRANCH  21  22
ENDBRANCH  20  21
ENDBRANCH  19  20
ENDBRANCH  18  19
ENDBRANCH  13  18
ENDBRANCH   1  13
TORSDOF 8
ENDMDL
MODEL 5
REMARK VINA RESULT:      -7.9      3.474      6.975
REMARK  Name = 149790
REMARK  8 active torsions:
REMARK  status: ('A' for Active; 'I' for Inactive)
REMARK    1  A    between atoms: N_1  and  C_13
REMARK    2  A    between atoms: C_13  and  C_14
REMARK    3  A    between atoms: C_13  and  C_18
REMARK    4  A    between atoms: C_14  and  O_16
REMARK    5  A    between atoms: C_18  and  C_19
REMARK    6  A    between atoms: C_19  and  C_20
REMARK    7  A    between atoms: C_20  and  C_21
REMARK    8  A    between atoms: C_21  and  C_22
REMARK                            x       y       z     vdW  Elec       q    Type
REMARK                         _______ _______ _______ _____ _____    ______ ____
ROOT
ATOM      1  N   UNL     1      34.738 -16.439 -23.484  0.00  0.00    -0.271 N 
ATOM      2  N   UNL     1      33.753 -16.630 -25.447  0.00  0.00    -0.242 NA
ATOM      3  N   UNL     1      34.400 -14.081 -23.035  0.00  0.00    -0.228 NA
ATOM      4  N   UNL     1      33.181 -13.023 -24.866  0.00  0.00    -0.229 NA
ATOM      5  C   UNL     1      34.287 -15.199 -23.768  0.00  0.00    +0.151 C 
ATOM      6  C   UNL     1      34.407 -17.271 -24.500  0.00  0.00    +0.221 C 
ATOM      7  C   UNL     1      33.671 -15.335 -25.002  0.00  0.00    +0.140 C 
ATOM      8  C   UNL     1      33.103 -14.189 -25.551  0.00  0.00    +0.143 C 
ATOM      9  C   UNL     1      33.815 -13.041 -23.668  0.00  0.00    +0.253 C 
ATOM     10  N   UNL     1      32.457 -14.234 -26.798  0.00  0.00    -0.342 N 
ATOM     11  H   UNL     1      32.059 -13.418 -27.177  0.00  0.00    +0.144 HD
ATOM     12  H   UNL     1      32.402 -15.083 -27.294  0.00  0.00    +0.144 HD
ENDROOT
BRANCH   1  13
ATOM     13  C   UNL     1      35.470 -16.834 -22.272  0.00  0.00    +0.103 C 
BRANCH  13  14
ATOM     14  C   UNL     1      34.648 -16.565 -20.987  0.00  0.00    +0.129 C 
ATOM     15  C   UNL     1      33.140 -16.605 -21.221  0.00  0.00    +0.033 C 
BRANCH  14  16
ATOM     16  O   UNL     1      34.976 -15.263 -20.498  0.00  0.00    -0.383 OA
ATOM     17  H   UNL     1      34.978 -14.632 -21.235  0.00  0.00    +0.210 HD
ENDBRANCH  14  16
ENDBRANCH  13  14
BRANCH  13  18
ATOM     18  C   UNL     1      35.965 -18.302 -22.341  0.00  0.00    +0.022 C 
BRANCH  18  19
ATOM     19  C   UNL     1      36.301 -18.890 -20.963  0.00  0.00    +0.002 C 
BRANCH  19  20
ATOM     20  C   UNL     1      35.524 -20.185 -20.712  0.00  0.00    +0.000 C 
BRANCH  20  21
ATOM     21  C   UNL     1      34.039 -20.082 -21.070  0.00  0.00    +0.000 C 
BRANCH  21  22
ATOM     22  C   UNL     1      33.061 -20.568 -19.998  0.00  0.00    +0.000 C 
ATOM     23  C   UNL     1      33.513 -21.836 -19.291  0.00  0.00    +0.000 C 
ENDBRANCH  21  22
ENDBRANCH  20  21
ENDBRANCH  19  20
ENDBRANCH  18  19
ENDBRANCH  13  18
ENDBRANCH   1  13
TORSDOF 8
ENDMDL
MODEL 6
REMARK VINA RESULT:      -7.8      1.269      2.280
REMARK  Name = 149790
REMARK  8 active torsions:
REMARK  status: ('A' for Active; 'I' for Inactive)
REMARK    1  A    between atoms: N_1  and  C_13
REMARK    2  A    between atoms: C_13  and  C_14
REMARK    3  A    between atoms: C_13  and  C_18
REMARK    4  A    between atoms: C_14  and  O_16
REMARK    5  A    between atoms: C_18  and  C_19
REMARK    6  A    between atoms: C_19  and  C_20
REMARK    7  A    between atoms: C_20  and  C_21
REMARK    8  A    between atoms: C_21  and  C_22
REMARK                            x       y       z     vdW  Elec       q    Type
REMARK                         _______ _______ _______ _____ _____    ______ ____
ROOT
ATOM      1  N   UNL     1      35.642 -18.717 -21.425  0.00  0.00    -0.271 N 
ATOM      2  N   UNL     1      36.627 -20.202 -20.126  0.00  0.00    -0.242 NA
ATOM      3  N   UNL     1      33.323 -19.379 -21.191  0.00  0.00    -0.228 NA
ATOM      4  N   UNL     1      33.121 -21.298 -19.696  0.00  0.00    -0.229 NA
ATOM      5  C   UNL     1      34.637 -19.480 -20.946  0.00  0.00    +0.151 C 
ATOM      6  C   UNL     1      36.815 -19.169 -20.921  0.00  0.00    +0.221 C 
ATOM      7  C   UNL     1      35.270 -20.407 -20.133  0.00  0.00    +0.140 C 
ATOM      8  C   UNL     1      34.459 -21.341 -19.494  0.00  0.00    +0.143 C 
ATOM      9  C   UNL     1      32.642 -20.334 -20.520  0.00  0.00    +0.253 C 
ATOM     10  N   UNL     1      35.016 -22.316 -18.649  0.00  0.00    -0.342 N 
ATOM     11  H   UNL     1      34.433 -22.971 -18.202  0.00  0.00    +0.144 HD
ATOM     12  H   UNL     1      35.989 -22.344 -18.504  0.00  0.00    +0.144 HD
ENDROOT
BRANCH   1  13
ATOM     13  C   UNL     1      35.499 -17.579 -22.343  0.00  0.00    +0.103 C 
BRANCH  13  14
ATOM     14  C   UNL     1      35.420 -18.036 -23.822  0.00  0.00    +0.129 C 
ATOM     15  C   UNL     1      34.750 -17.009 -24.731  0.00  0.00    +0.033 C 
BRANCH  14  16
ATOM     16  O   UNL     1      34.653 -19.240 -23.888  0.00  0.00    -0.383 OA
ATOM     17  H   UNL     1      35.250 -19.999 -23.989  0.00  0.00    +0.210 HD
ENDBRANCH  14  16
ENDBRANCH  13  14
BRANCH  13  18
ATOM     18  C   UNL     1      34.308 -16.664 -21.960  0.00  0.00    +0.022 C 
BRANCH  18  19
ATOM     19  C   UNL     1      34.599 -15.772 -20.746  0.00  0.00    +0.002 C 
BRANCH  19  20
ATOM     20  C   UNL     1      33.522 -14.696 -20.580  0.00  0.00    +0.000 C 
BRANCH  20  21
ATOM     21  C   UNL     1      32.488 -14.692 -21.710  0.00  0.00    +0.000 C 
BRANCH  21  22
ATOM     22  C   UNL     1      32.431 -13.417 -22.554  0.00  0.00    +0.000 C 
ATOM     23  C   UNL     1      33.418 -13.408 -23.710  0.00  0.00    +0.000 C 
ENDBRANCH  21  22
ENDBRANCH  20  21
ENDBRANCH  19  20
ENDBRANCH  18  19
ENDBRANCH  13  18
ENDBRANCH   1  13
TORSDOF 8
ENDMDL
MODEL 7
REMARK VINA RESULT:      -7.7      7.944      9.628
REMARK  Name = 149790
REMARK  8 active torsions:
REMARK  status: ('A' for Active; 'I' for Inactive)
REMARK    1  A    between atoms: N_1  and  C_13
REMARK    2  A    between atoms: C_13  and  C_14
REMARK    3  A    between atoms: C_13  and  C_18
REMARK    4  A    between atoms: C_14  and  O_16
REMARK    5  A    between atoms: C_18  and  C_19
REMARK    6  A    between atoms: C_19  and  C_20
REMARK    7  A    between atoms: C_20  and  C_21
REMARK    8  A    between atoms: C_21  and  C_22
REMARK                            x       y       z     vdW  Elec       q    Type
REMARK                         _______ _______ _______ _____ _____    ______ ____
ROOT
ATOM      1  N   UNL     1      35.423 -24.229 -14.406  0.00  0.00    -0.271 N 
ATOM      2  N   UNL     1      37.341 -23.609 -13.513  0.00  0.00    -0.242 NA
ATOM      3  N   UNL     1      36.041 -26.364 -15.371  0.00  0.00    -0.228 NA
ATOM      4  N   UNL     1      38.394 -26.853 -14.945  0.00  0.00    -0.229 NA
ATOM      5  C   UNL     1      36.279 -25.231 -14.694  0.00  0.00    +0.151 C 
ATOM      6  C   UNL     1      36.081 -23.277 -13.703  0.00  0.00    +0.221 C 
ATOM      7  C   UNL     1      37.478 -24.829 -14.127  0.00  0.00    +0.140 C 
ATOM      8  C   UNL     1      38.562 -25.690 -14.271  0.00  0.00    +0.143 C 
ATOM      9  C   UNL     1      37.162 -27.114 -15.446  0.00  0.00    +0.253 C 
ATOM     10  N   UNL     1      39.816 -25.363 -13.727  0.00  0.00    -0.342 N 
ATOM     11  H   UNL     1      40.575 -25.980 -13.835  0.00  0.00    +0.144 HD
ATOM     12  H   UNL     1      39.934 -24.517 -13.237  0.00  0.00    +0.144 HD
ENDROOT
BRANCH   1  13
ATOM     13  C   UNL     1      34.005 -24.169 -14.788  0.00  0.00    +0.103 C 
BRANCH  13  14
ATOM     14  C   UNL     1      33.074 -24.121 -13.550  0.00  0.00    +0.129 C 
ATOM     15  C   UNL     1      31.924 -25.122 -13.626  0.00  0.00    +0.033 C 
BRANCH  14  16
ATOM     16  O   UNL     1      32.505 -22.813 -13.456  0.00  0.00    -0.383 OA
ATOM     17  H   UNL     1      33.045 -22.188 -13.965  0.00  0.00    +0.210 HD
ENDBRANCH  14  16
ENDBRANCH  13  14
BRANCH  13  18
ATOM     18  C   UNL     1      33.712 -23.007 -15.772  0.00  0.00    +0.022 C 
BRANCH  18  19
ATOM     19  C   UNL     1      32.797 -23.417 -16.934  0.00  0.00    +0.002 C 
BRANCH  19  20
ATOM     20  C   UNL     1      31.469 -22.656 -16.886  0.00  0.00    +0.000 C 
BRANCH  20  21
ATOM     21  C   UNL     1      30.336 -23.450 -16.231  0.00  0.00    +0.000 C 
BRANCH  21  22
ATOM     22  C   UNL     1      29.399 -22.649 -15.325  0.00  0.00    +0.000 C 
ATOM     23  C   UNL     1      27.945 -22.689 -15.765  0.00  0.00    +0.000 C 
ENDBRANCH  21  22
ENDBRANCH  20  21
ENDBRANCH  19  20
ENDBRANCH  18  19
ENDBRANCH  13  18
ENDBRANCH   1  13
TORSDOF 8
ENDMDL
MODEL 8
REMARK VINA RESULT:      -7.6      5.961      9.113
REMARK  Name = 149790
REMARK  8 active torsions:
REMARK  status: ('A' for Active; 'I' for Inactive)
REMARK    1  A    between atoms: N_1  and  C_13
REMARK    2  A    between atoms: C_13  and  C_14
REMARK    3  A    between atoms: C_13  and  C_18
REMARK    4  A    between atoms: C_14  and  O_16
REMARK    5  A    between atoms: C_18  and  C_19
REMARK    6  A    between atoms: C_19  and  C_20
REMARK    7  A    between atoms: C_20  and  C_21
REMARK    8  A    between atoms: C_21  and  C_22
REMARK                            x       y       z     vdW  Elec       q    Type
REMARK                         _______ _______ _______ _____ _____    ______ ____
ROOT
ATOM      1  N   UNL     1      35.507 -25.011 -14.683  0.00  0.00    -0.271 N 
ATOM      2  N   UNL     1      37.252 -26.317 -15.014  0.00  0.00    -0.242 NA
ATOM      3  N   UNL     1      36.382 -23.503 -12.999  0.00  0.00    -0.228 NA
ATOM      4  N   UNL     1      38.691 -24.074 -12.448  0.00  0.00    -0.229 NA
ATOM      5  C   UNL     1      36.457 -24.537 -13.850  0.00  0.00    +0.151 C 
ATOM      6  C   UNL     1      36.007 -26.070 -15.364  0.00  0.00    +0.221 C 
ATOM      7  C   UNL     1      37.547 -25.366 -14.069  0.00  0.00    +0.140 C 
ATOM      8  C   UNL     1      38.695 -25.104 -13.328  0.00  0.00    +0.143 C 
ATOM      9  C   UNL     1      37.551 -23.349 -12.340  0.00  0.00    +0.253 C 
ATOM     10  N   UNL     1      39.847 -25.894 -13.487  0.00  0.00    -0.342 N 
ATOM     11  H   UNL     1      40.654 -25.699 -12.958  0.00  0.00    +0.144 HD
ATOM     12  H   UNL     1      39.848 -26.641 -14.128  0.00  0.00    +0.144 HD
ENDROOT
BRANCH   1  13
ATOM     13  C   UNL     1      34.148 -24.473 -14.836  0.00  0.00    +0.103 C 
BRANCH  13  14
ATOM     14  C   UNL     1      33.337 -24.570 -13.520  0.00  0.00    +0.129 C 
ATOM     15  C   UNL     1      31.895 -25.025 -13.737  0.00  0.00    +0.033 C 
BRANCH  14  16
ATOM     16  O   UNL     1      33.297 -23.278 -12.910  0.00  0.00    -0.383 OA
ATOM     17  H   UNL     1      33.381 -22.595 -13.594  0.00  0.00    +0.210 HD
ENDBRANCH  14  16
ENDBRANCH  13  14
BRANCH  13  18
ATOM     18  C   UNL     1      34.150 -23.030 -15.404  0.00  0.00    +0.022 C 
BRANCH  18  19
ATOM     19  C   UNL     1      34.590 -22.961 -16.873  0.00  0.00    +0.002 C 
BRANCH  19  20
ATOM     20  C   UNL     1      33.383 -22.821 -17.805  0.00  0.00    +0.000 C 
BRANCH  20  21
ATOM     21  C   UNL     1      33.738 -22.244 -19.177  0.00  0.00    +0.000 C 
BRANCH  21  22
ATOM     22  C   UNL     1      35.222 -21.956 -19.414  0.00  0.00    +0.000 C 
ATOM     23  C   UNL     1      35.481 -20.638 -20.126  0.00  0.00    +0.000 C 
ENDBRANCH  21  22
ENDBRANCH  20  21
ENDBRANCH  19  20
ENDBRANCH  18  19
ENDBRANCH  13  18
ENDBRANCH   1  13
TORSDOF 8
ENDMDL
MODEL 9
REMARK VINA RESULT:      -7.6      1.604      3.127
REMARK  Name = 149790
REMARK  8 active torsions:
REMARK  status: ('A' for Active; 'I' for Inactive)
REMARK    1  A    between atoms: N_1  and  C_13
REMARK    2  A    between atoms: C_13  and  C_14
REMARK    3  A    between atoms: C_13  and  C_18
REMARK    4  A    between atoms: C_14  and  O_16
REMARK    5  A    between atoms: C_18  and  C_19
REMARK    6  A    between atoms: C_19  and  C_20
REMARK    7  A    between atoms: C_20  and  C_21
REMARK    8  A    between atoms: C_21  and  C_22
REMARK                            x       y       z     vdW  Elec       q    Type
REMARK                         _______ _______ _______ _____ _____    ______ ____
ROOT
ATOM      1  N   UNL     1      34.822 -18.100 -21.435  0.00  0.00    -0.271 N 
ATOM      2  N   UNL     1      36.501 -19.328 -20.704  0.00  0.00    -0.242 NA
ATOM      3  N   UNL     1      32.935 -19.464 -20.758  0.00  0.00    -0.228 NA
ATOM      4  N   UNL     1      33.697 -21.487 -19.626  0.00  0.00    -0.229 NA
ATOM      5  C   UNL     1      34.241 -19.179 -20.867  0.00  0.00    +0.151 C 
ATOM      6  C   UNL     1      36.167 -18.216 -21.324  0.00  0.00    +0.221 C 
ATOM      7  C   UNL     1      35.307 -19.940 -20.412  0.00  0.00    +0.140 C 
ATOM      8  C   UNL     1      34.997 -21.135 -19.770  0.00  0.00    +0.143 C 
ATOM      9  C   UNL     1      32.761 -20.643 -20.121  0.00  0.00    +0.253 C 
ATOM     10  N   UNL     1      36.015 -21.969 -19.276  0.00  0.00    -0.342 N 
ATOM     11  H   UNL     1      35.784 -22.812 -18.824  0.00  0.00    +0.144 HD
ATOM     12  H   UNL     1      36.959 -21.710 -19.382  0.00  0.00    +0.144 HD
ENDROOT
BRANCH   1  13
ATOM     13  C   UNL     1      34.119 -16.978 -22.072  0.00  0.00    +0.103 C 
BRANCH  13  14
ATOM     14  C   UNL     1      33.671 -15.915 -21.038  0.00  0.00    +0.129 C 
ATOM     15  C   UNL     1      32.777 -14.834 -21.640  0.00  0.00    +0.033 C 
BRANCH  14  16
ATOM     16  O   UNL     1      34.832 -15.272 -20.509  0.00  0.00    -0.383 OA
ATOM     17  H   UNL     1      34.951 -15.530 -19.581  0.00  0.00    +0.210 HD
ENDBRANCH  14  16
ENDBRANCH  13  14
BRANCH  13  18
ATOM     18  C   UNL     1      34.945 -16.348 -23.223  0.00  0.00    +0.022 C 
BRANCH  18  19
ATOM     19  C   UNL     1      34.927 -17.187 -24.508  0.00  0.00    +0.002 C 
BRANCH  19  20
ATOM     20  C   UNL     1      33.922 -16.626 -25.518  0.00  0.00    +0.000 C 
BRANCH  20  21
ATOM     21  C   UNL     1      33.577 -15.154 -25.280  0.00  0.00    +0.000 C 
BRANCH  21  22
ATOM     22  C   UNL     1      32.678 -14.503 -26.334  0.00  0.00    +0.000 C 
ATOM     23  C   UNL     1      33.322 -13.317 -27.035  0.00  0.00    +0.000 C 
ENDBRANCH  21  22
ENDBRANCH  20  21
ENDBRANCH  19  20
ENDBRANCH  18  19
ENDBRANCH  13  18
ENDBRANCH   1  13
TORSDOF 8
ENDMDL
