MODEL 1
REMARK VINA RESULT:      -9.2      0.000      0.000
REMARK  Name = 54686843
REMARK  8 active torsions:
REMARK  status: ('A' for Active; 'I' for Inactive)
REMARK    1  A    between atoms: N_2  and  C_5
REMARK    2  A    between atoms: C_3  and  C_16
REMARK    3  A    between atoms: C_6  and  C_14
REMARK    4  A    between atoms: C_15  and  O_17
REMARK    5  A    between atoms: C_15  and  C_21
REMARK    6  A    between atoms: C_16  and  C_20
REMARK    7  A    between atoms: C_21  and  C_22
REMARK    8  A    between atoms: C_22  and  C_23
REMARK                            x       y       z     vdW  Elec       q    Type
REMARK                         _______ _______ _______ _____ _____    ______ ____
ROOT
ATOM      1  O   UNL     1      34.957 -16.248 -21.089  0.00  0.00    -0.269 OA
ATOM      2  N   UNL     1      34.143 -18.027 -22.382  0.00  0.00    -0.280 N 
ATOM      3  C   UNL     1      34.532 -16.717 -22.139  0.00  0.00    +0.262 C 
ATOM      4  H   UNL     1      33.823 -18.226 -23.292  0.00  0.00    +0.155 HD
ENDROOT
BRANCH   2   5
ATOM      5  C   UNL     1      34.153 -19.110 -21.469  0.00  0.00    +0.051 C 
ATOM      6  C   UNL     1      34.170 -21.243 -19.670  0.00  0.00    +0.072 C 
ATOM      7  C   UNL     1      35.357 -19.728 -21.133  0.00  0.00    +0.015 C 
ATOM      8  C   UNL     1      32.957 -19.558 -20.906  0.00  0.00    +0.015 C 
ATOM      9  C   UNL     1      35.366 -20.795 -20.233  0.00  0.00    +0.005 C 
ATOM     10  C   UNL     1      32.966 -20.624 -20.007  0.00  0.00    +0.005 C 
BRANCH   6  14
ATOM     11  F   UNL     1      34.115 -23.596 -19.330  0.00  0.00    -0.166 F 
ATOM     12  F   UNL     1      35.302 -22.430 -17.929  0.00  0.00    -0.166 F 
ATOM     13  F   UNL     1      33.136 -22.365 -17.829  0.00  0.00    -0.166 F 
ATOM     14  C   UNL     1      34.181 -22.382 -18.708  0.00  0.00    +0.419 C 
ENDBRANCH   6  14
ENDBRANCH   2   5
BRANCH   3  16
ATOM     15  C   UNL     1      34.026 -14.551 -23.186  0.00  0.00    +0.126 C 
ATOM     16  C   UNL     1      34.381 -15.842 -23.357  0.00  0.00    +0.151 C 
BRANCH  15  17
ATOM     17  O   UNL     1      33.826 -14.033 -21.914  0.00  0.00    -0.509 OA
ATOM     18  H   UNL     1      34.343 -13.311 -21.616  0.00  0.00    +0.292 HD
ENDBRANCH  15  17
BRANCH  16  20
ATOM     19  N   UNL     1      34.797 -16.863 -25.698  0.00  0.00    -0.191 NA
ATOM     20  C   UNL     1      34.614 -16.403 -24.648  0.00  0.00    +0.108 C 
ENDBRANCH  16  20
BRANCH  15  21
ATOM     21  C   UNL     1      33.809 -13.553 -24.306  0.00  0.00    +0.078 C 
BRANCH  21  22
ATOM     22  C   UNL     1      33.503 -12.137 -23.804  0.00  0.00    +0.085 C 
BRANCH  22  23
ATOM     23  C   UNL     1      34.301 -11.116 -24.499  0.00  0.00    -0.077 C 
ATOM     24  C   UNL     1      34.954 -10.282 -25.064  0.00  0.00    -0.014 C 
ENDBRANCH  22  23
ENDBRANCH  21  22
ENDBRANCH  15  21
ENDBRANCH   3  16
TORSDOF 8
ENDMDL
MODEL 2
REMARK VINA RESULT:      -9.1      1.294      1.913
REMARK  Name = 54686843
REMARK  8 active torsions:
REMARK  status: ('A' for Active; 'I' for Inactive)
REMARK    1  A    between atoms: N_2  and  C_5
REMARK    2  A    between atoms: C_3  and  C_16
REMARK    3  A    between atoms: C_6  and  C_14
REMARK    4  A    between atoms: C_15  and  O_17
REMARK    5  A    between atoms: C_15  and  C_21
REMARK    6  A    between atoms: C_16  and  C_20
REMARK    7  A    between atoms: C_21  and  C_22
REMARK    8  A    between atoms: C_22  and  C_23
REMARK                            x       y       z     vdW  Elec       q    Type
REMARK                         _______ _______ _______ _____ _____    ______ ____
ROOT
ATOM      1  O   UNL     1      35.307 -16.764 -20.513  0.00  0.00    -0.269 OA
ATOM      2  N   UNL     1      34.121 -18.321 -21.807  0.00  0.00    -0.280 N 
ATOM      3  C   UNL     1      34.731 -17.101 -21.541  0.00  0.00    +0.262 C 
ATOM      4  H   UNL     1      33.703 -18.416 -22.693  0.00  0.00    +0.155 HD
ENDROOT
BRANCH   2   5
ATOM      5  C   UNL     1      34.032 -19.442 -20.947  0.00  0.00    +0.051 C 
ATOM      6  C   UNL     1      33.859 -21.653 -19.253  0.00  0.00    +0.072 C 
ATOM      7  C   UNL     1      32.790 -19.856 -20.465  0.00  0.00    +0.015 C 
ATOM      8  C   UNL     1      35.188 -20.135 -20.582  0.00  0.00    +0.015 C 
ATOM      9  C   UNL     1      32.703 -20.961 -19.618  0.00  0.00    +0.005 C 
ATOM     10  C   UNL     1      35.101 -21.239 -19.735  0.00  0.00    +0.005 C 
BRANCH   6  14
ATOM     11  F   UNL     1      32.597 -22.864 -17.642  0.00  0.00    -0.166 F 
ATOM     12  F   UNL     1      33.827 -24.032 -19.003  0.00  0.00    -0.166 F 
ATOM     13  F   UNL     1      34.759 -22.888 -17.413  0.00  0.00    -0.166 F 
ATOM     14  C   UNL     1      33.765 -22.835 -18.349  0.00  0.00    +0.419 C 
ENDBRANCH   6  14
ENDBRANCH   2   5
BRANCH   3  16
ATOM     15  C   UNL     1      34.329 -14.853 -22.449  0.00  0.00    +0.126 C 
ATOM     16  C   UNL     1      34.623 -16.146 -22.701  0.00  0.00    +0.151 C 
BRANCH  15  17
ATOM     17  O   UNL     1      34.149 -14.407 -21.148  0.00  0.00    -0.509 OA
ATOM     18  H   UNL     1      33.305 -14.118 -20.864  0.00  0.00    +0.292 HD
ENDBRANCH  15  17
BRANCH  16  20
ATOM     19  N   UNL     1      34.998 -17.032 -25.104  0.00  0.00    -0.191 NA
ATOM     20  C   UNL     1      34.834 -16.634 -24.026  0.00  0.00    +0.108 C 
ENDBRANCH  16  20
BRANCH  15  21
ATOM     21  C   UNL     1      34.161 -13.777 -23.505  0.00  0.00    +0.078 C 
BRANCH  21  22
ATOM     22  C   UNL     1      32.836 -13.881 -24.269  0.00  0.00    +0.085 C 
BRANCH  22  23
ATOM     23  C   UNL     1      33.035 -13.884 -25.726  0.00  0.00    -0.077 C 
ATOM     24  C   UNL     1      33.200 -13.889 -26.916  0.00  0.00    -0.014 C 
ENDBRANCH  22  23
ENDBRANCH  21  22
ENDBRANCH  15  21
ENDBRANCH   3  16
TORSDOF 8
ENDMDL
MODEL 3
REMARK VINA RESULT:      -9.0      1.402      1.733
REMARK  Name = 54686843
REMARK  8 active torsions:
REMARK  status: ('A' for Active; 'I' for Inactive)
REMARK    1  A    between atoms: N_2  and  C_5
REMARK    2  A    between atoms: C_3  and  C_16
REMARK    3  A    between atoms: C_6  and  C_14
REMARK    4  A    between atoms: C_15  and  O_17
REMARK    5  A    between atoms: C_15  and  C_21
REMARK    6  A    between atoms: C_16  and  C_20
REMARK    7  A    between atoms: C_21  and  C_22
REMARK    8  A    between atoms: C_22  and  C_23
REMARK                            x       y       z     vdW  Elec       q    Type
REMARK                         _______ _______ _______ _____ _____    ______ ____
ROOT
ATOM      1  O   UNL     1      36.284 -18.213 -22.515  0.00  0.00    -0.269 OA
ATOM      2  N   UNL     1      34.048 -18.236 -21.807  0.00  0.00    -0.280 N 
ATOM      3  C   UNL     1      35.148 -17.752 -22.502  0.00  0.00    +0.262 C 
ATOM      4  H   UNL     1      33.208 -17.734 -21.915  0.00  0.00    +0.155 HD
ENDROOT
BRANCH   2   5
ATOM      5  C   UNL     1      33.997 -19.371 -20.961  0.00  0.00    +0.051 C 
ATOM      6  C   UNL     1      33.896 -21.606 -19.293  0.00  0.00    +0.072 C 
ATOM      7  C   UNL     1      35.174 -20.027 -20.602  0.00  0.00    +0.015 C 
ATOM      8  C   UNL     1      32.769 -19.833 -20.486  0.00  0.00    +0.015 C 
ATOM      9  C   UNL     1      35.124 -21.144 -19.768  0.00  0.00    +0.005 C 
ATOM     10  C   UNL     1      32.719 -20.949 -19.653  0.00  0.00    +0.005 C 
BRANCH   6  14
ATOM     11  F   UNL     1      33.888 -23.975 -19.095  0.00  0.00    -0.166 F 
ATOM     12  F   UNL     1      34.874 -22.861 -17.508  0.00  0.00    -0.166 F 
ATOM     13  F   UNL     1      32.709 -22.866 -17.643  0.00  0.00    -0.166 F 
ATOM     14  C   UNL     1      33.843 -22.800 -18.402  0.00  0.00    +0.419 C 
ENDBRANCH   6  14
ENDBRANCH   2   5
BRANCH   3  16
ATOM     15  C   UNL     1      34.596 -15.361 -22.645  0.00  0.00    +0.126 C 
ATOM     16  C   UNL     1      34.819 -16.518 -23.302  0.00  0.00    +0.151 C 
BRANCH  15  17
ATOM     17  O   UNL     1      34.689 -15.302 -21.262  0.00  0.00    -0.509 OA
ATOM     18  H   UNL     1      34.153 -15.859 -20.733  0.00  0.00    +0.292 HD
ENDBRANCH  15  17
BRANCH  16  20
ATOM     19  N   UNL     1      34.703 -16.689 -25.882  0.00  0.00    -0.191 NA
ATOM     20  C   UNL     1      34.751 -16.610 -24.725  0.00  0.00    +0.108 C 
ENDBRANCH  16  20
BRANCH  15  21
ATOM     21  C   UNL     1      34.229 -14.044 -23.301  0.00  0.00    +0.078 C 
BRANCH  21  22
ATOM     22  C   UNL     1      32.718 -13.791 -23.350  0.00  0.00    +0.085 C 
BRANCH  22  23
ATOM     23  C   UNL     1      32.238 -13.065 -22.165  0.00  0.00    -0.077 C 
ATOM     24  C   UNL     1      31.849 -12.470 -21.197  0.00  0.00    -0.014 C 
ENDBRANCH  22  23
ENDBRANCH  21  22
ENDBRANCH  15  21
ENDBRANCH   3  16
TORSDOF 8
ENDMDL
MODEL 4
REMARK VINA RESULT:      -8.8      5.776      9.120
REMARK  Name = 54686843
REMARK  8 active torsions:
REMARK  status: ('A' for Active; 'I' for Inactive)
REMARK    1  A    between atoms: N_2  and  C_5
REMARK    2  A    between atoms: C_3  and  C_16
REMARK    3  A    between atoms: C_6  and  C_14
REMARK    4  A    between atoms: C_15  and  O_17
REMARK    5  A    between atoms: C_15  and  C_21
REMARK    6  A    between atoms: C_16  and  C_20
REMARK    7  A    between atoms: C_21  and  C_22
REMARK    8  A    between atoms: C_22  and  C_23
REMARK                            x       y       z     vdW  Elec       q    Type
REMARK                         _______ _______ _______ _____ _____    ______ ____
ROOT
ATOM      1  O   UNL     1      34.900 -14.537 -21.441  0.00  0.00    -0.269 OA
ATOM      2  N   UNL     1      33.589 -14.207 -23.358  0.00  0.00    -0.280 N 
ATOM      3  C   UNL     1      34.399 -14.928 -22.489  0.00  0.00    +0.262 C 
ATOM      4  H   UNL     1      33.275 -14.685 -24.159  0.00  0.00    +0.155 HD
ENDROOT
BRANCH   2   5
ATOM      5  C   UNL     1      33.164 -12.863 -23.221  0.00  0.00    +0.051 C 
ATOM      6  C   UNL     1      32.329 -10.214 -22.952  0.00  0.00    +0.072 C 
ATOM      7  C   UNL     1      32.141 -12.541 -22.329  0.00  0.00    +0.015 C 
ATOM      8  C   UNL     1      33.770 -11.860 -23.978  0.00  0.00    +0.015 C 
ATOM      9  C   UNL     1      31.723 -11.217 -22.194  0.00  0.00    +0.005 C 
ATOM     10  C   UNL     1      33.352 -10.536 -23.844  0.00  0.00    +0.005 C 
BRANCH   6  14
ATOM     11  F   UNL     1      32.808  -7.906 -23.267  0.00  0.00    -0.166 F 
ATOM     12  F   UNL     1      30.732  -8.516 -23.485  0.00  0.00    -0.166 F 
ATOM     13  F   UNL     1      31.634  -8.434 -21.514  0.00  0.00    -0.166 F 
ATOM     14  C   UNL     1      31.883  -8.799 -22.807  0.00  0.00    +0.419 C 
ENDBRANCH   6  14
ENDBRANCH   2   5
BRANCH   3  16
ATOM     15  C   UNL     1      34.964 -17.281 -22.062  0.00  0.00    +0.126 C 
ATOM     16  C   UNL     1      34.637 -16.336 -22.968  0.00  0.00    +0.151 C 
BRANCH  15  17
ATOM     17  O   UNL     1      35.057 -16.968 -20.714  0.00  0.00    -0.509 OA
ATOM     18  H   UNL     1      35.897 -16.868 -20.314  0.00  0.00    +0.292 HD
ENDBRANCH  15  17
BRANCH  16  20
ATOM     19  N   UNL     1      34.419 -16.862 -25.493  0.00  0.00    -0.191 NA
ATOM     20  C   UNL     1      34.513 -16.627 -24.360  0.00  0.00    +0.108 C 
ENDBRANCH  16  20
BRANCH  15  21
ATOM     21  C   UNL     1      35.259 -18.733 -22.386  0.00  0.00    +0.078 C 
BRANCH  21  22
ATOM     22  C   UNL     1      35.357 -19.623 -21.142  0.00  0.00    +0.085 C 
BRANCH  22  23
ATOM     23  C   UNL     1      34.036 -20.057 -20.664  0.00  0.00    -0.077 C 
ATOM     24  C   UNL     1      32.957 -20.414 -20.277  0.00  0.00    -0.014 C 
ENDBRANCH  22  23
ENDBRANCH  21  22
ENDBRANCH  15  21
ENDBRANCH   3  16
TORSDOF 8
ENDMDL
MODEL 5
REMARK VINA RESULT:      -8.8      3.264      4.848
REMARK  Name = 54686843
REMARK  8 active torsions:
REMARK  status: ('A' for Active; 'I' for Inactive)
REMARK    1  A    between atoms: N_2  and  C_5
REMARK    2  A    between atoms: C_3  and  C_16
REMARK    3  A    between atoms: C_6  and  C_14
REMARK    4  A    between atoms: C_15  and  O_17
REMARK    5  A    between atoms: C_15  and  C_21
REMARK    6  A    between atoms: C_16  and  C_20
REMARK    7  A    between atoms: C_21  and  C_22
REMARK    8  A    between atoms: C_22  and  C_23
REMARK                            x       y       z     vdW  Elec       q    Type
REMARK                         _______ _______ _______ _____ _____    ______ ____
ROOT
ATOM      1  O   UNL     1      31.998 -13.197 -22.955  0.00  0.00    -0.269 OA
ATOM      2  N   UNL     1      34.324 -13.431 -23.147  0.00  0.00    -0.280 N 
ATOM      3  C   UNL     1      33.111 -12.761 -23.230  0.00  0.00    +0.262 C 
ATOM      4  H   UNL     1      35.123 -12.921 -23.412  0.00  0.00    +0.155 HD
ENDROOT
BRANCH   2   5
ATOM      5  C   UNL     1      34.542 -14.765 -22.725  0.00  0.00    +0.051 C 
ATOM      6  C   UNL     1      34.972 -17.393 -21.892  0.00  0.00    +0.072 C 
ATOM      7  C   UNL     1      34.803 -15.761 -23.666  0.00  0.00    +0.015 C 
ATOM      8  C   UNL     1      34.497 -15.083 -21.367  0.00  0.00    +0.015 C 
ATOM      9  C   UNL     1      35.018 -17.075 -23.250  0.00  0.00    +0.005 C 
ATOM     10  C   UNL     1      34.711 -16.397 -20.951  0.00  0.00    +0.005 C 
BRANCH   6  14
ATOM     11  F   UNL     1      34.314 -19.200 -20.492  0.00  0.00    -0.166 F 
ATOM     12  F   UNL     1      35.097 -19.714 -22.455  0.00  0.00    -0.166 F 
ATOM     13  F   UNL     1      36.440 -19.004 -20.906  0.00  0.00    -0.166 F 
ATOM     14  C   UNL     1      35.203 -18.798 -21.448  0.00  0.00    +0.419 C 
ENDBRANCH   6  14
ENDBRANCH   2   5
BRANCH   3  16
ATOM     15  C   UNL     1      32.549 -10.370 -23.138  0.00  0.00    +0.126 C 
ATOM     16  C   UNL     1      33.273 -11.347 -23.724  0.00  0.00    +0.151 C 
BRANCH  15  17
ATOM     17  O   UNL     1      31.688 -10.658 -22.089  0.00  0.00    -0.509 OA
ATOM     18  H   UNL     1      32.019 -11.052 -21.307  0.00  0.00    +0.292 HD
ENDBRANCH  15  17
BRANCH  16  20
ATOM     19  N   UNL     1      34.921 -10.862 -25.660  0.00  0.00    -0.191 NA
ATOM     20  C   UNL     1      34.182 -11.084 -24.792  0.00  0.00    +0.108 C 
ENDBRANCH  16  20
BRANCH  15  21
ATOM     21  C   UNL     1      32.579  -8.907 -23.536  0.00  0.00    +0.078 C 
BRANCH  21  22
ATOM     22  C   UNL     1      33.577  -8.078 -22.719  0.00  0.00    +0.085 C 
BRANCH  22  23
ATOM     23  C   UNL     1      33.042  -7.704 -21.401  0.00  0.00    -0.077 C 
ATOM     24  C   UNL     1      32.602  -7.400 -20.326  0.00  0.00    -0.014 C 
ENDBRANCH  22  23
ENDBRANCH  21  22
ENDBRANCH  15  21
ENDBRANCH   3  16
TORSDOF 8
ENDMDL
MODEL 6
REMARK VINA RESULT:      -8.8      2.149      2.718
REMARK  Name = 54686843
REMARK  8 active torsions:
REMARK  status: ('A' for Active; 'I' for Inactive)
REMARK    1  A    between atoms: N_2  and  C_5
REMARK    2  A    between atoms: C_3  and  C_16
REMARK    3  A    between atoms: C_6  and  C_14
REMARK    4  A    between atoms: C_15  and  O_17
REMARK    5  A    between atoms: C_15  and  C_21
REMARK    6  A    between atoms: C_16  and  C_20
REMARK    7  A    between atoms: C_21  and  C_22
REMARK    8  A    between atoms: C_22  and  C_23
REMARK                            x       y       z     vdW  Elec       q    Type
REMARK                         _______ _______ _______ _____ _____    ______ ____
ROOT
ATOM      1  O   UNL     1      35.232 -16.973 -24.451  0.00  0.00    -0.269 OA
ATOM      2  N   UNL     1      34.053 -16.917 -22.424  0.00  0.00    -0.280 N 
ATOM      3  C   UNL     1      34.405 -16.478 -23.693  0.00  0.00    +0.262 C 
ATOM      4  H   UNL     1      33.365 -16.392 -21.955  0.00  0.00    +0.155 HD
ENDROOT
BRANCH   2   5
ATOM      5  C   UNL     1      34.572 -18.036 -21.727  0.00  0.00    +0.051 C 
ATOM      6  C   UNL     1      35.597 -20.239 -20.355  0.00  0.00    +0.072 C 
ATOM      7  C   UNL     1      33.710 -19.023 -21.251  0.00  0.00    +0.015 C 
ATOM      8  C   UNL     1      35.947 -18.150 -21.517  0.00  0.00    +0.015 C 
ATOM      9  C   UNL     1      34.222 -20.125 -20.565  0.00  0.00    +0.005 C 
ATOM     10  C   UNL     1      36.458 -19.251 -20.831  0.00  0.00    +0.005 C 
BRANCH   6  14
ATOM     11  F   UNL     1      35.309 -22.497 -19.667  0.00  0.00    -0.166 F 
ATOM     12  F   UNL     1      37.340 -21.858 -20.110  0.00  0.00    -0.166 F 
ATOM     13  F   UNL     1      36.364 -21.181 -18.295  0.00  0.00    -0.166 F 
ATOM     14  C   UNL     1      36.143 -21.417 -19.622  0.00  0.00    +0.419 C 
ENDBRANCH   6  14
ENDBRANCH   2   5
BRANCH   3  16
ATOM     15  C   UNL     1      33.351 -15.071 -25.411  0.00  0.00    +0.126 C 
ATOM     16  C   UNL     1      33.637 -15.249 -24.104  0.00  0.00    +0.151 C 
BRANCH  15  17
ATOM     17  O   UNL     1      33.737 -16.011 -26.355  0.00  0.00    -0.509 OA
ATOM     18  H   UNL     1      33.902 -16.896 -26.095  0.00  0.00    +0.292 HD
ENDBRANCH  15  17
BRANCH  16  20
ATOM     19  N   UNL     1      32.912 -13.556 -22.285  0.00  0.00    -0.191 NA
ATOM     20  C   UNL     1      33.237 -14.312 -23.103  0.00  0.00    +0.108 C 
ENDBRANCH  16  20
BRANCH  15  21
ATOM     21  C   UNL     1      32.611 -13.878 -25.986  0.00  0.00    +0.078 C 
BRANCH  21  22
ATOM     22  C   UNL     1      33.541 -12.838 -26.619  0.00  0.00    +0.085 C 
BRANCH  22  23
ATOM     23  C   UNL     1      33.944 -11.796 -25.662  0.00  0.00    -0.077 C 
ATOM     24  C   UNL     1      34.271 -10.948 -24.878  0.00  0.00    -0.014 C 
ENDBRANCH  22  23
ENDBRANCH  21  22
ENDBRANCH  15  21
ENDBRANCH   3  16
TORSDOF 8
ENDMDL
MODEL 7
REMARK VINA RESULT:      -8.8      5.790      9.107
REMARK  Name = 54686843
REMARK  8 active torsions:
REMARK  status: ('A' for Active; 'I' for Inactive)
REMARK    1  A    between atoms: N_2  and  C_5
REMARK    2  A    between atoms: C_3  and  C_16
REMARK    3  A    between atoms: C_6  and  C_14
REMARK    4  A    between atoms: C_15  and  O_17
REMARK    5  A    between atoms: C_15  and  C_21
REMARK    6  A    between atoms: C_16  and  C_20
REMARK    7  A    between atoms: C_21  and  C_22
REMARK    8  A    between atoms: C_22  and  C_23
REMARK                            x       y       z     vdW  Elec       q    Type
REMARK                         _______ _______ _______ _____ _____    ______ ____
ROOT
ATOM      1  O   UNL     1      34.904 -14.532 -21.471  0.00  0.00    -0.269 OA
ATOM      2  N   UNL     1      33.607 -14.197 -23.397  0.00  0.00    -0.280 N 
ATOM      3  C   UNL     1      34.401 -14.923 -22.519  0.00  0.00    +0.262 C 
ATOM      4  H   UNL     1      33.289 -14.676 -24.196  0.00  0.00    +0.155 HD
ENDROOT
BRANCH   2   5
ATOM      5  C   UNL     1      33.203 -12.845 -23.272  0.00  0.00    +0.051 C 
ATOM      6  C   UNL     1      32.405 -10.182 -23.027  0.00  0.00    +0.072 C 
ATOM      7  C   UNL     1      33.799 -11.863 -24.063  0.00  0.00    +0.015 C 
ATOM      8  C   UNL     1      32.207 -12.496 -22.359  0.00  0.00    +0.015 C 
ATOM      9  C   UNL     1      33.400 -10.531 -23.941  0.00  0.00    +0.005 C 
ATOM     10  C   UNL     1      31.809 -11.166 -22.236  0.00  0.00    +0.005 C 
BRANCH   6  14
ATOM     11  F   UNL     1      33.007  -7.883 -23.096  0.00  0.00    -0.166 F 
ATOM     12  F   UNL     1      31.009  -8.395 -23.787  0.00  0.00    -0.166 F 
ATOM     13  F   UNL     1      31.468  -8.452 -21.668  0.00  0.00    -0.166 F 
ATOM     14  C   UNL     1      31.979  -8.760 -22.897  0.00  0.00    +0.419 C 
ENDBRANCH   6  14
ENDBRANCH   2   5
BRANCH   3  16
ATOM     15  C   UNL     1      34.947 -17.277 -22.073  0.00  0.00    +0.126 C 
ATOM     16  C   UNL     1      34.619 -16.338 -22.986  0.00  0.00    +0.151 C 
BRANCH  15  17
ATOM     17  O   UNL     1      35.060 -16.951 -20.730  0.00  0.00    -0.509 OA
ATOM     18  H   UNL     1      35.320 -17.603 -20.110  0.00  0.00    +0.292 HD
ENDBRANCH  15  17
BRANCH  16  20
ATOM     19  N   UNL     1      34.360 -16.884 -25.502  0.00  0.00    -0.191 NA
ATOM     20  C   UNL     1      34.475 -16.643 -24.373  0.00  0.00    +0.108 C 
ENDBRANCH  16  20
BRANCH  15  21
ATOM     21  C   UNL     1      35.224 -18.736 -22.385  0.00  0.00    +0.078 C 
BRANCH  21  22
ATOM     22  C   UNL     1      35.354 -19.609 -21.132  0.00  0.00    +0.085 C 
BRANCH  22  23
ATOM     23  C   UNL     1      34.049 -20.075 -20.642  0.00  0.00    -0.077 C 
ATOM     24  C   UNL     1      32.984 -20.460 -20.243  0.00  0.00    -0.014 C 
ENDBRANCH  22  23
ENDBRANCH  21  22
ENDBRANCH  15  21
ENDBRANCH   3  16
TORSDOF 8
ENDMDL
MODEL 8
REMARK VINA RESULT:      -8.7      5.567     10.212
REMARK  Name = 54686843
REMARK  8 active torsions:
REMARK  status: ('A' for Active; 'I' for Inactive)
REMARK    1  A    between atoms: N_2  and  C_5
REMARK    2  A    between atoms: C_3  and  C_16
REMARK    3  A    between atoms: C_6  and  C_14
REMARK    4  A    between atoms: C_15  and  O_17
REMARK    5  A    between atoms: C_15  and  C_21
REMARK    6  A    between atoms: C_16  and  C_20
REMARK    7  A    between atoms: C_21  and  C_22
REMARK    8  A    between atoms: C_22  and  C_23
REMARK                            x       y       z     vdW  Elec       q    Type
REMARK                         _______ _______ _______ _____ _____    ______ ____
ROOT
ATOM      1  O   UNL     1      37.194 -21.286 -16.500  0.00  0.00    -0.269 OA
ATOM      2  N   UNL     1      35.621 -22.397 -17.839  0.00  0.00    -0.280 N 
ATOM      3  C   UNL     1      36.438 -22.223 -16.730  0.00  0.00    +0.262 C 
ATOM      4  H   UNL     1      35.077 -23.218 -17.856  0.00  0.00    +0.155 HD
ENDROOT
BRANCH   2   5
ATOM      5  C   UNL     1      35.482 -21.528 -18.949  0.00  0.00    +0.051 C 
ATOM      6  C   UNL     1      35.206 -19.818 -21.136  0.00  0.00    +0.072 C 
ATOM      7  C   UNL     1      36.607 -20.916 -19.501  0.00  0.00    +0.015 C 
ATOM      8  C   UNL     1      34.219 -21.286 -19.491  0.00  0.00    +0.015 C 
ATOM      9  C   UNL     1      36.469 -20.060 -20.595  0.00  0.00    +0.005 C 
ATOM     10  C   UNL     1      34.081 -20.431 -20.583  0.00  0.00    +0.005 C 
BRANCH   6  14
ATOM     11  F   UNL     1      34.593 -19.544 -23.417  0.00  0.00    -0.166 F 
ATOM     12  F   UNL     1      34.194 -17.870 -22.087  0.00  0.00    -0.166 F 
ATOM     13  F   UNL     1      36.231 -18.313 -22.687  0.00  0.00    -0.166 F 
ATOM     14  C   UNL     1      35.060 -18.904 -22.305  0.00  0.00    +0.419 C 
ENDBRANCH   6  14
ENDBRANCH   2   5
BRANCH   3  16
ATOM     15  C   UNL     1      37.447 -23.967 -15.322  0.00  0.00    +0.126 C 
ATOM     16  C   UNL     1      36.319 -23.362 -15.751  0.00  0.00    +0.151 C 
BRANCH  15  17
ATOM     17  O   UNL     1      38.692 -23.536 -15.757  0.00  0.00    -0.509 OA
ATOM     18  H   UNL     1      38.859 -23.435 -16.673  0.00  0.00    +0.292 HD
ENDBRANCH  15  17
BRANCH  16  20
ATOM     19  N   UNL     1      33.971 -24.090 -14.942  0.00  0.00    -0.191 NA
ATOM     20  C   UNL     1      35.024 -23.766 -15.308  0.00  0.00    +0.108 C 
ENDBRANCH  16  20
BRANCH  15  21
ATOM     21  C   UNL     1      37.495 -25.139 -14.361  0.00  0.00    +0.078 C 
BRANCH  21  22
ATOM     22  C   UNL     1      38.299 -24.846 -13.089  0.00  0.00    +0.085 C 
BRANCH  22  23
ATOM     23  C   UNL     1      37.693 -23.777 -12.282  0.00  0.00    -0.077 C 
ATOM     24  C   UNL     1      37.195 -22.904 -11.626  0.00  0.00    -0.014 C 
ENDBRANCH  22  23
ENDBRANCH  21  22
ENDBRANCH  15  21
ENDBRANCH   3  16
TORSDOF 8
ENDMDL
MODEL 9
REMARK VINA RESULT:      -8.7      5.489      9.601
REMARK  Name = 54686843
REMARK  8 active torsions:
REMARK  status: ('A' for Active; 'I' for Inactive)
REMARK    1  A    between atoms: N_2  and  C_5
REMARK    2  A    between atoms: C_3  and  C_16
REMARK    3  A    between atoms: C_6  and  C_14
REMARK    4  A    between atoms: C_15  and  O_17
REMARK    5  A    between atoms: C_15  and  C_21
REMARK    6  A    between atoms: C_16  and  C_20
REMARK    7  A    between atoms: C_21  and  C_22
REMARK    8  A    between atoms: C_22  and  C_23
REMARK                            x       y       z     vdW  Elec       q    Type
REMARK                         _______ _______ _______ _____ _____    ______ ____
ROOT
ATOM      1  O   UNL     1      33.870 -23.822 -19.265  0.00  0.00    -0.269 OA
ATOM      2  N   UNL     1      33.919 -21.593 -18.537  0.00  0.00    -0.280 N 
ATOM      3  C   UNL     1      33.790 -22.968 -18.389  0.00  0.00    +0.262 C 
ATOM      4  H   UNL     1      33.823 -21.056 -17.718  0.00  0.00    +0.155 HD
ENDROOT
BRANCH   2   5
ATOM      5  C   UNL     1      34.173 -20.877 -19.732  0.00  0.00    +0.051 C 
ATOM      6  C   UNL     1      34.671 -19.466 -22.087  0.00  0.00    +0.072 C 
ATOM      7  C   UNL     1      35.480 -20.742 -20.201  0.00  0.00    +0.015 C 
ATOM      8  C   UNL     1      33.115 -20.306 -20.441  0.00  0.00    +0.015 C 
ATOM      9  C   UNL     1      35.730 -20.037 -21.378  0.00  0.00    +0.005 C 
ATOM     10  C   UNL     1      33.365 -19.601 -21.617  0.00  0.00    +0.005 C 
BRANCH   6  14
ATOM     11  F   UNL     1      34.302 -17.506 -23.381  0.00  0.00    -0.166 F 
ATOM     12  F   UNL     1      36.261 -18.436 -23.547  0.00  0.00    -0.166 F 
ATOM     13  F   UNL     1      34.537 -19.372 -24.473  0.00  0.00    -0.166 F 
ATOM     14  C   UNL     1      34.939 -18.713 -23.346  0.00  0.00    +0.419 C 
ENDBRANCH   6  14
ENDBRANCH   2   5
BRANCH   3  16
ATOM     15  C   UNL     1      32.299 -23.122 -16.442  0.00  0.00    +0.126 C 
ATOM     16  C   UNL     1      33.520 -23.366 -16.962  0.00  0.00    +0.151 C 
BRANCH  15  17
ATOM     17  O   UNL     1      31.304 -22.538 -17.212  0.00  0.00    -0.509 OA
ATOM     18  H   UNL     1      31.528 -21.905 -17.864  0.00  0.00    +0.292 HD
ENDBRANCH  15  17
BRANCH  16  20
ATOM     19  N   UNL     1      35.410 -24.489 -15.595  0.00  0.00    -0.191 NA
ATOM     20  C   UNL     1      34.561 -23.984 -16.204  0.00  0.00    +0.108 C 
ENDBRANCH  16  20
BRANCH  15  21
ATOM     21  C   UNL     1      31.880 -23.438 -15.018  0.00  0.00    +0.078 C 
BRANCH  21  22
ATOM     22  C   UNL     1      30.411 -23.109 -14.733  0.00  0.00    +0.085 C 
BRANCH  22  23
ATOM     23  C   UNL     1      29.555 -24.304 -14.775  0.00  0.00    -0.077 C 
ATOM     24  C   UNL     1      28.858 -25.281 -14.813  0.00  0.00    -0.014 C 
ENDBRANCH  22  23
ENDBRANCH  21  22
ENDBRANCH  15  21
ENDBRANCH   3  16
TORSDOF 8
ENDMDL
