MODEL 1
REMARK VINA RESULT:      -7.0      0.000      0.000
REMARK  Name = 3950
REMARK  4 active torsions:
REMARK  status: ('A' for Active; 'I' for Inactive)
REMARK    1  A    between atoms: N_2  and  C_6
REMARK    2  A    between atoms: N_3  and  N_13
REMARK    3  A    between atoms: N_3  and  C_14
REMARK    4  A    between atoms: C_14  and  C_16
REMARK                            x       y       z     vdW  Elec       q    Type
REMARK                         _______ _______ _______ _____ _____    ______ ____
ROOT
ATOM      1  O   UNL     1      36.307 -20.730 -20.168  0.00  0.00    -0.251 OA
ATOM      2  N   UNL     1      34.739 -19.139 -20.710  0.00  0.00    -0.289 N 
ATOM      3  N   UNL     1      34.076 -21.194 -19.748  0.00  0.00    -0.163 N 
ATOM      4  C   UNL     1      35.123 -20.380 -20.206  0.00  0.00    +0.320 C 
ATOM      5  H   UNL     1      33.783 -18.903 -20.721  0.00  0.00    +0.151 HD
ENDROOT
BRANCH   2   6
ATOM      6  C   UNL     1      35.702 -18.186 -21.219  0.00  0.00    +0.073 C 
ATOM      7  C   UNL     1      36.050 -18.483 -22.681  0.00  0.00    +0.020 C 
ATOM      8  C   UNL     1      35.197 -16.749 -21.048  0.00  0.00    +0.020 C 
ATOM      9  C   UNL     1      34.906 -18.144 -23.635  0.00  0.00    +0.002 C 
ATOM     10  C   UNL     1      34.054 -16.412 -22.005  0.00  0.00    +0.002 C 
ATOM     11  C   UNL     1      34.429 -16.705 -23.455  0.00  0.00    +0.000 C 
ENDBRANCH   2   6
BRANCH   3  13
ATOM     12  O   UNL     1      32.284 -20.463 -20.965  0.00  0.00    -0.078 OA
ATOM     13  N   UNL     1      32.666 -20.712 -19.817  0.00  0.00    +0.054 NA
ENDBRANCH   3  13
BRANCH   3  14
ATOM     14  C   UNL     1      34.330 -22.518 -19.193  0.00  0.00    +0.134 C 
BRANCH  14  16
ATOM     15 CL   UNL     1      34.237 -23.208 -16.554  0.00  0.00    -0.112 Cl
ATOM     16  C   UNL     1      33.367 -22.875 -18.073  0.00  0.00    +0.118 C 
ENDBRANCH  14  16
ENDBRANCH   3  14
TORSDOF 4
ENDMDL
MODEL 2
REMARK VINA RESULT:      -6.8      4.606      6.455
REMARK  Name = 3950
REMARK  4 active torsions:
REMARK  status: ('A' for Active; 'I' for Inactive)
REMARK    1  A    between atoms: N_2  and  C_6
REMARK    2  A    between atoms: N_3  and  N_13
REMARK    3  A    between atoms: N_3  and  C_14
REMARK    4  A    between atoms: C_14  and  C_16
REMARK                            x       y       z     vdW  Elec       q    Type
REMARK                         _______ _______ _______ _____ _____    ______ ____
ROOT
ATOM      1  O   UNL     1      34.940 -15.879 -24.185  0.00  0.00    -0.251 OA
ATOM      2  N   UNL     1      35.025 -16.998 -22.180  0.00  0.00    -0.289 N 
ATOM      3  N   UNL     1      34.217 -14.778 -22.279  0.00  0.00    -0.163 N 
ATOM      4  C   UNL     1      34.742 -15.883 -22.966  0.00  0.00    +0.320 C 
ATOM      5  H   UNL     1      34.850 -16.956 -21.211  0.00  0.00    +0.151 HD
ENDROOT
BRANCH   2   6
ATOM      6  C   UNL     1      35.568 -18.216 -22.741  0.00  0.00    +0.073 C 
ATOM      7  C   UNL     1      36.830 -18.653 -21.989  0.00  0.00    +0.020 C 
ATOM      8  C   UNL     1      34.517 -19.331 -22.758  0.00  0.00    +0.020 C 
ATOM      9  C   UNL     1      36.521 -19.193 -20.593  0.00  0.00    +0.002 C 
ATOM     10  C   UNL     1      34.211 -19.870 -21.361  0.00  0.00    +0.002 C 
ATOM     11  C   UNL     1      35.481 -20.310 -20.638  0.00  0.00    +0.000 C 
ENDBRANCH   2   6
BRANCH   3  13
ATOM     12  O   UNL     1      35.028 -15.057 -20.159  0.00  0.00    -0.078 OA
ATOM     13  N   UNL     1      33.996 -14.848 -20.805  0.00  0.00    +0.054 NA
ENDBRANCH   3  13
BRANCH   3  14
ATOM     14  C   UNL     1      33.874 -13.544 -22.974  0.00  0.00    +0.134 C 
BRANCH  14  16
ATOM     15 CL   UNL     1      31.792 -12.241 -21.784  0.00  0.00    -0.112 Cl
ATOM     16  C   UNL     1      32.372 -13.328 -23.070  0.00  0.00    +0.118 C 
ENDBRANCH  14  16
ENDBRANCH   3  14
TORSDOF 4
ENDMDL
MODEL 3
REMARK VINA RESULT:      -6.8      7.695      8.890
REMARK  Name = 3950
REMARK  4 active torsions:
REMARK  status: ('A' for Active; 'I' for Inactive)
REMARK    1  A    between atoms: N_2  and  C_6
REMARK    2  A    between atoms: N_3  and  N_13
REMARK    3  A    between atoms: N_3  and  C_14
REMARK    4  A    between atoms: C_14  and  C_16
REMARK                            x       y       z     vdW  Elec       q    Type
REMARK                         _______ _______ _______ _____ _____    ______ ____
ROOT
ATOM      1  O   UNL     1      34.195 -24.173 -12.331  0.00  0.00    -0.251 OA
ATOM      2  N   UNL     1      33.108 -24.009 -14.350  0.00  0.00    -0.289 N 
ATOM      3  N   UNL     1      35.379 -24.659 -14.263  0.00  0.00    -0.163 N 
ATOM      4  C   UNL     1      34.227 -24.273 -13.562  0.00  0.00    +0.320 C 
ATOM      5  H   UNL     1      33.180 -24.102 -15.327  0.00  0.00    +0.151 HD
ENDROOT
BRANCH   2   6
ATOM      6  C   UNL     1      31.844 -23.603 -13.776  0.00  0.00    +0.073 C 
ATOM      7  C   UNL     1      31.149 -22.560 -14.658  0.00  0.00    +0.020 C 
ATOM      8  C   UNL     1      30.937 -24.813 -13.527  0.00  0.00    +0.020 C 
ATOM      9  C   UNL     1      30.600 -23.161 -15.951  0.00  0.00    +0.002 C 
ATOM     10  C   UNL     1      30.389 -25.410 -14.823  0.00  0.00    +0.002 C 
ATOM     11  C   UNL     1      29.692 -24.356 -15.678  0.00  0.00    +0.000 C 
ENDBRANCH   2   6
BRANCH   3  13
ATOM     12  O   UNL     1      35.312 -23.672 -16.325  0.00  0.00    -0.078 OA
ATOM     13  N   UNL     1      35.352 -24.765 -15.750  0.00  0.00    +0.054 NA
ENDBRANCH   3  13
BRANCH   3  14
ATOM     14  C   UNL     1      36.623 -24.967 -13.568  0.00  0.00    +0.134 C 
BRANCH  14  16
ATOM     15 CL   UNL     1      39.247 -25.691 -13.768  0.00  0.00    -0.112 Cl
ATOM     16  C   UNL     1      37.596 -25.750 -14.434  0.00  0.00    +0.118 C 
ENDBRANCH  14  16
ENDBRANCH   3  14
TORSDOF 4
ENDMDL
MODEL 4
REMARK VINA RESULT:      -6.6      5.311      7.190
REMARK  Name = 3950
REMARK  4 active torsions:
REMARK  status: ('A' for Active; 'I' for Inactive)
REMARK    1  A    between atoms: N_2  and  C_6
REMARK    2  A    between atoms: N_3  and  N_13
REMARK    3  A    between atoms: N_3  and  C_14
REMARK    4  A    between atoms: C_14  and  C_16
REMARK                            x       y       z     vdW  Elec       q    Type
REMARK                         _______ _______ _______ _____ _____    ______ ____
ROOT
ATOM      1  O   UNL     1      34.164 -14.682 -22.521  0.00  0.00    -0.251 OA
ATOM      2  N   UNL     1      34.703 -16.840 -23.097  0.00  0.00    -0.289 N 
ATOM      3  N   UNL     1      33.683 -15.401 -24.671  0.00  0.00    -0.163 N 
ATOM      4  C   UNL     1      34.181 -15.578 -23.371  0.00  0.00    +0.320 C 
ATOM      5  H   UNL     1      34.695 -17.524 -23.806  0.00  0.00    +0.151 HD
ENDROOT
BRANCH   2   6
ATOM      6  C   UNL     1      35.256 -17.178 -21.804  0.00  0.00    +0.073 C 
ATOM      7  C   UNL     1      34.147 -17.362 -20.763  0.00  0.00    +0.020 C 
ATOM      8  C   UNL     1      36.145 -18.423 -21.894  0.00  0.00    +0.020 C 
ATOM      9  C   UNL     1      33.346 -18.645 -20.982  0.00  0.00    +0.002 C 
ATOM     10  C   UNL     1      35.341 -19.704 -22.112  0.00  0.00    +0.002 C 
ATOM     11  C   UNL     1      34.251 -19.870 -21.056  0.00  0.00    +0.000 C 
ENDBRANCH   2   6
BRANCH   3  13
ATOM     12  O   UNL     1      34.881 -16.914 -25.896  0.00  0.00    -0.078 OA
ATOM     13  N   UNL     1      33.736 -16.521 -25.654  0.00  0.00    +0.054 NA
ENDBRANCH   3  13
BRANCH   3  14
ATOM     14  C   UNL     1      33.108 -14.130 -25.097  0.00  0.00    +0.134 C 
BRANCH  14  16
ATOM     15 CL   UNL     1      33.793 -13.212 -27.574  0.00  0.00    -0.112 Cl
ATOM     16  C   UNL     1      32.673 -14.148 -26.553  0.00  0.00    +0.118 C 
ENDBRANCH  14  16
ENDBRANCH   3  14
TORSDOF 4
ENDMDL
MODEL 5
REMARK VINA RESULT:      -6.6      5.047      6.868
REMARK  Name = 3950
REMARK  4 active torsions:
REMARK  status: ('A' for Active; 'I' for Inactive)
REMARK    1  A    between atoms: N_2  and  C_6
REMARK    2  A    between atoms: N_3  and  N_13
REMARK    3  A    between atoms: N_3  and  C_14
REMARK    4  A    between atoms: C_14  and  C_16
REMARK                            x       y       z     vdW  Elec       q    Type
REMARK                         _______ _______ _______ _____ _____    ______ ____
ROOT
ATOM      1  O   UNL     1      34.662 -16.346 -24.867  0.00  0.00    -0.251 OA
ATOM      2  N   UNL     1      35.244 -16.908 -22.715  0.00  0.00    -0.289 N 
ATOM      3  N   UNL     1      34.323 -14.783 -23.190  0.00  0.00    -0.163 N 
ATOM      4  C   UNL     1      34.739 -16.033 -23.674  0.00  0.00    +0.320 C 
ATOM      5  H   UNL     1      35.285 -16.615 -21.776  0.00  0.00    +0.151 HD
ENDROOT
BRANCH   2   6
ATOM      6  C   UNL     1      35.710 -18.234 -23.057  0.00  0.00    +0.073 C 
ATOM      7  C   UNL     1      36.838 -18.679 -22.120  0.00  0.00    +0.020 C 
ATOM      8  C   UNL     1      34.556 -19.242 -23.054  0.00  0.00    +0.020 C 
ATOM      9  C   UNL     1      36.337 -18.997 -20.712  0.00  0.00    +0.002 C 
ATOM     10  C   UNL     1      34.058 -19.559 -21.644  0.00  0.00    +0.002 C 
ATOM     11  C   UNL     1      35.197 -20.010 -20.734  0.00  0.00    +0.000 C 
ENDBRANCH   2   6
BRANCH   3  13
ATOM     12  O   UNL     1      33.713 -15.165 -21.019  0.00  0.00    -0.078 OA
ATOM     13  N   UNL     1      34.437 -14.466 -21.736  0.00  0.00    +0.054 NA
ENDBRANCH   3  13
BRANCH   3  14
ATOM     14  C   UNL     1      33.773 -13.768 -24.080  0.00  0.00    +0.134 C 
BRANCH  14  16
ATOM     15 CL   UNL     1      33.685 -11.040 -24.064  0.00  0.00    -0.112 Cl
ATOM     16  C   UNL     1      33.193 -12.584 -23.324  0.00  0.00    +0.118 C 
ENDBRANCH  14  16
ENDBRANCH   3  14
TORSDOF 4
ENDMDL
MODEL 6
REMARK VINA RESULT:      -6.5      1.475      2.661
REMARK  Name = 3950
REMARK  4 active torsions:
REMARK  status: ('A' for Active; 'I' for Inactive)
REMARK    1  A    between atoms: N_2  and  C_6
REMARK    2  A    between atoms: N_3  and  N_13
REMARK    3  A    between atoms: N_3  and  C_14
REMARK    4  A    between atoms: C_14  and  C_16
REMARK                            x       y       z     vdW  Elec       q    Type
REMARK                         _______ _______ _______ _____ _____    ______ ____
ROOT
ATOM      1  O   UNL     1      32.696 -21.092 -19.795  0.00  0.00    -0.251 OA
ATOM      2  N   UNL     1      34.589 -20.187 -20.732  0.00  0.00    -0.289 N 
ATOM      3  N   UNL     1      34.758 -21.790 -19.003  0.00  0.00    -0.163 N 
ATOM      4  C   UNL     1      33.928 -21.028 -19.839  0.00  0.00    +0.320 C 
ATOM      5  H   UNL     1      35.574 -20.169 -20.731  0.00  0.00    +0.151 HD
ENDROOT
BRANCH   2   6
ATOM      6  C   UNL     1      33.874 -19.340 -21.661  0.00  0.00    +0.073 C 
ATOM      7  C   UNL     1      33.686 -17.931 -21.088  0.00  0.00    +0.020 C 
ATOM      8  C   UNL     1      34.577 -19.297 -23.022  0.00  0.00    +0.020 C 
ATOM      9  C   UNL     1      34.991 -17.136 -21.052  0.00  0.00    +0.002 C 
ATOM     10  C   UNL     1      35.881 -18.500 -22.983  0.00  0.00    +0.002 C 
ATOM     11  C   UNL     1      35.666 -17.098 -22.420  0.00  0.00    +0.000 C 
ENDBRANCH   2   6
BRANCH   3  13
ATOM     12  O   UNL     1      36.667 -20.539 -18.854  0.00  0.00    -0.078 OA
ATOM     13  N   UNL     1      36.242 -21.671 -19.107  0.00  0.00    +0.054 NA
ENDBRANCH   3  13
BRANCH   3  14
ATOM     14  C   UNL     1      34.204 -22.714 -18.020  0.00  0.00    +0.134 C 
BRANCH  14  16
ATOM     15 CL   UNL     1      34.067 -23.410 -15.385  0.00  0.00    -0.112 Cl
ATOM     16  C   UNL     1      35.024 -22.764 -16.741  0.00  0.00    +0.118 C 
ENDBRANCH  14  16
ENDBRANCH   3  14
TORSDOF 4
ENDMDL
MODEL 7
REMARK VINA RESULT:      -6.5      5.227      6.697
REMARK  Name = 3950
REMARK  4 active torsions:
REMARK  status: ('A' for Active; 'I' for Inactive)
REMARK    1  A    between atoms: N_2  and  C_6
REMARK    2  A    between atoms: N_3  and  N_13
REMARK    3  A    between atoms: N_3  and  C_14
REMARK    4  A    between atoms: C_14  and  C_16
REMARK                            x       y       z     vdW  Elec       q    Type
REMARK                         _______ _______ _______ _____ _____    ______ ____
ROOT
ATOM      1  O   UNL     1      34.340 -13.929 -23.691  0.00  0.00    -0.251 OA
ATOM      2  N   UNL     1      34.184 -16.035 -22.783  0.00  0.00    -0.289 N 
ATOM      3  N   UNL     1      32.651 -14.347 -22.160  0.00  0.00    -0.163 N 
ATOM      4  C   UNL     1      33.765 -14.714 -22.930  0.00  0.00    +0.320 C 
ATOM      5  H   UNL     1      33.695 -16.625 -22.165  0.00  0.00    +0.151 HD
ENDROOT
BRANCH   2   6
ATOM      6  C   UNL     1      35.316 -16.566 -23.510  0.00  0.00    +0.073 C 
ATOM      7  C   UNL     1      35.891 -17.801 -22.808  0.00  0.00    +0.020 C 
ATOM      8  C   UNL     1      34.941 -16.877 -24.963  0.00  0.00    +0.020 C 
ATOM      9  C   UNL     1      34.980 -19.021 -22.933  0.00  0.00    +0.002 C 
ATOM     10  C   UNL     1      34.031 -18.100 -25.084  0.00  0.00    +0.002 C 
ATOM     11  C   UNL     1      34.630 -19.318 -24.388  0.00  0.00    +0.000 C 
ENDBRANCH   2   6
BRANCH   3  13
ATOM     12  O   UNL     1      32.699 -15.681 -20.304  0.00  0.00    -0.078 OA
ATOM     13  N   UNL     1      31.998 -15.343 -21.263  0.00  0.00    +0.054 NA
ENDBRANCH   3  13
BRANCH   3  14
ATOM     14  C   UNL     1      32.103 -12.997 -22.214  0.00  0.00    +0.134 C 
BRANCH  14  16
ATOM     15 CL   UNL     1      30.554 -11.223 -20.834  0.00  0.00    -0.112 Cl
ATOM     16  C   UNL     1      31.893 -12.398 -20.833  0.00  0.00    +0.118 C 
ENDBRANCH  14  16
ENDBRANCH   3  14
TORSDOF 4
ENDMDL
MODEL 8
REMARK VINA RESULT:      -6.4      8.026      9.543
REMARK  Name = 3950
REMARK  4 active torsions:
REMARK  status: ('A' for Active; 'I' for Inactive)
REMARK    1  A    between atoms: N_2  and  C_6
REMARK    2  A    between atoms: N_3  and  N_13
REMARK    3  A    between atoms: N_3  and  C_14
REMARK    4  A    between atoms: C_14  and  C_16
REMARK                            x       y       z     vdW  Elec       q    Type
REMARK                         _______ _______ _______ _____ _____    ______ ____
ROOT
ATOM      1  O   UNL     1      35.639 -24.589 -14.773  0.00  0.00    -0.251 OA
ATOM      2  N   UNL     1      33.758 -24.517 -13.455  0.00  0.00    -0.289 N 
ATOM      3  N   UNL     1      35.901 -24.244 -12.497  0.00  0.00    -0.163 N 
ATOM      4  C   UNL     1      35.135 -24.460 -13.653  0.00  0.00    +0.320 C 
ATOM      5  H   UNL     1      33.402 -24.409 -12.543  0.00  0.00    +0.151 HD
ENDROOT
BRANCH   2   6
ATOM      6  C   UNL     1      32.834 -24.732 -14.547  0.00  0.00    +0.073 C 
ATOM      7  C   UNL     1      31.518 -25.336 -14.044  0.00  0.00    +0.020 C 
ATOM      8  C   UNL     1      32.588 -23.434 -15.324  0.00  0.00    +0.020 C 
ATOM      9  C   UNL     1      30.675 -24.331 -13.260  0.00  0.00    +0.002 C 
ATOM     10  C   UNL     1      31.744 -22.431 -14.537  0.00  0.00    +0.002 C 
ATOM     11  C   UNL     1      30.435 -23.053 -14.058  0.00  0.00    +0.000 C 
ENDBRANCH   2   6
BRANCH   3  13
ATOM     12  O   UNL     1      35.191 -25.137 -10.515  0.00  0.00    -0.078 OA
ATOM     13  N   UNL     1      35.234 -24.092 -11.172  0.00  0.00    +0.054 NA
ENDBRANCH   3  13
BRANCH   3  14
ATOM     14  C   UNL     1      37.356 -24.161 -12.554  0.00  0.00    +0.134 C 
BRANCH  14  16
ATOM     15 CL   UNL     1      39.229 -25.703 -13.804  0.00  0.00    -0.112 Cl
ATOM     16  C   UNL     1      38.020 -25.527 -12.507  0.00  0.00    +0.118 C 
ENDBRANCH  14  16
ENDBRANCH   3  14
TORSDOF 4
ENDMDL
MODEL 9
REMARK VINA RESULT:      -6.4      2.512      3.427
REMARK  Name = 3950
REMARK  4 active torsions:
REMARK  status: ('A' for Active; 'I' for Inactive)
REMARK    1  A    between atoms: N_2  and  C_6
REMARK    2  A    between atoms: N_3  and  N_13
REMARK    3  A    between atoms: N_3  and  C_14
REMARK    4  A    between atoms: C_14  and  C_16
REMARK                            x       y       z     vdW  Elec       q    Type
REMARK                         _______ _______ _______ _____ _____    ______ ____
ROOT
ATOM      1  O   UNL     1      35.688 -17.350 -20.328  0.00  0.00    -0.251 OA
ATOM      2  N   UNL     1      34.722 -16.641 -22.289  0.00  0.00    -0.289 N 
ATOM      3  N   UNL     1      34.895 -18.949 -21.807  0.00  0.00    -0.163 N 
ATOM      4  C   UNL     1      35.141 -17.628 -21.400  0.00  0.00    +0.320 C 
ATOM      5  H   UNL     1      34.290 -16.910 -23.132  0.00  0.00    +0.151 HD
ENDROOT
BRANCH   2   6
ATOM      6  C   UNL     1      34.902 -15.232 -22.013  0.00  0.00    +0.073 C 
ATOM      7  C   UNL     1      34.401 -14.374 -23.179  0.00  0.00    +0.020 C 
ATOM      8  C   UNL     1      34.221 -14.837 -20.698  0.00  0.00    +0.020 C 
ATOM      9  C   UNL     1      32.876 -14.366 -23.285  0.00  0.00    +0.002 C 
ATOM     10  C   UNL     1      32.696 -14.828 -20.809  0.00  0.00    +0.002 C 
ATOM     11  C   UNL     1      32.221 -13.958 -21.969  0.00  0.00    +0.000 C 
ENDBRANCH   2   6
BRANCH   3  13
ATOM     12  O   UNL     1      34.969 -19.077 -24.089  0.00  0.00    -0.078 OA
ATOM     13  N   UNL     1      34.225 -19.219 -23.112  0.00  0.00    +0.054 NA
ENDBRANCH   3  13
BRANCH   3  14
ATOM     14  C   UNL     1      35.278 -20.083 -20.975  0.00  0.00    +0.134 C 
BRANCH  14  16
ATOM     15 CL   UNL     1      34.581 -22.111 -19.287  0.00  0.00    -0.112 Cl
ATOM     16  C   UNL     1      34.110 -20.644 -20.181  0.00  0.00    +0.118 C 
ENDBRANCH  14  16
ENDBRANCH   3  14
TORSDOF 4
ENDMDL
