MODEL 1
REMARK VINA RESULT:      -8.7      0.000      0.000
REMARK  Name = 263366
REMARK  3 active torsions:
REMARK  status: ('A' for Active; 'I' for Inactive)
REMARK    1  A    between atoms: C_1  and  C_7
REMARK    2  A    between atoms: C_2  and  C_13
REMARK    3  A    between atoms: C_13  and  N_14
REMARK                            x       y       z     vdW  Elec       q    Type
REMARK                         _______ _______ _______ _____ _____    ______ ____
ROOT
ATOM      1  C   UNL     1      34.640 -18.554 -22.537  0.00  0.00    -0.006 C 
ATOM      2  C   UNL     1      34.826 -17.197 -22.264  0.00  0.00    -0.044 C 
ATOM      3  C   UNL     1      34.565 -18.991 -23.860  0.00  0.00    -0.000 C 
ATOM      4  C   UNL     1      34.937 -16.282 -23.310  0.00  0.00    -0.006 C 
ATOM      5  C   UNL     1      34.675 -18.077 -24.907  0.00  0.00    -0.000 C 
ATOM      6  C   UNL     1      34.862 -16.722 -24.632  0.00  0.00    -0.000 C 
ENDROOT
BRANCH   1   7
ATOM      7  C   UNL     1      34.523 -19.522 -21.469  0.00  0.00    -0.000 C 
ATOM      8  C   UNL     1      35.666 -20.122 -20.941  0.00  0.00    -0.000 C 
ATOM      9  C   UNL     1      33.265 -19.859 -20.968  0.00  0.00    -0.000 C 
ATOM     10  C   UNL     1      35.553 -21.055 -19.911  0.00  0.00    -0.000 C 
ATOM     11  C   UNL     1      33.151 -20.793 -19.938  0.00  0.00    -0.000 C 
ATOM     12  C   UNL     1      34.295 -21.391 -19.410  0.00  0.00    -0.000 C 
ENDBRANCH   1   7
BRANCH   2  13
ATOM     13  C   UNL     1      34.914 -16.689 -20.860  0.00  0.00    -0.059 C 
BRANCH  13  14
ATOM     14  N   UNL     1      34.570 -15.270 -20.782  0.00  0.00    +0.383 N 
ATOM     15  H   UNL     1      34.182 -15.064 -19.861  0.00  0.00    -0.089 HD
ATOM     16  H   UNL     1      33.879 -15.046 -21.498  0.00  0.00    -0.089 HD
ATOM     17  H   UNL     1      35.408 -14.708 -20.931  0.00  0.00    -0.089 HD
ENDBRANCH  13  14
ENDBRANCH   2  13
TORSDOF 3
ENDMDL
MODEL 2
REMARK VINA RESULT:      -8.3      1.674      2.494
REMARK  Name = 263366
REMARK  3 active torsions:
REMARK  status: ('A' for Active; 'I' for Inactive)
REMARK    1  A    between atoms: C_1  and  C_7
REMARK    2  A    between atoms: C_2  and  C_13
REMARK    3  A    between atoms: C_13  and  N_14
REMARK                            x       y       z     vdW  Elec       q    Type
REMARK                         _______ _______ _______ _____ _____    ______ ____
ROOT
ATOM      1  C   UNL     1      34.671 -17.851 -21.700  0.00  0.00    -0.006 C 
ATOM      2  C   UNL     1      34.812 -17.805 -23.089  0.00  0.00    -0.044 C 
ATOM      3  C   UNL     1      34.568 -16.664 -20.973  0.00  0.00    -0.000 C 
ATOM      4  C   UNL     1      34.849 -16.576 -23.746  0.00  0.00    -0.006 C 
ATOM      5  C   UNL     1      34.605 -15.435 -21.631  0.00  0.00    -0.000 C 
ATOM      6  C   UNL     1      34.745 -15.391 -23.018  0.00  0.00    -0.000 C 
ENDROOT
BRANCH   1   7
ATOM      7  C   UNL     1      34.630 -19.113 -20.994  0.00  0.00    -0.000 C 
ATOM      8  C   UNL     1      35.817 -19.752 -20.637  0.00  0.00    -0.000 C 
ATOM      9  C   UNL     1      33.402 -19.692 -20.672  0.00  0.00    -0.000 C 
ATOM     10  C   UNL     1      35.777 -20.969 -19.957  0.00  0.00    -0.000 C 
ATOM     11  C   UNL     1      33.363 -20.910 -19.992  0.00  0.00    -0.000 C 
ATOM     12  C   UNL     1      34.550 -21.548 -19.634  0.00  0.00    -0.000 C 
ENDBRANCH   1   7
BRANCH   2  13
ATOM     13  C   UNL     1      34.925 -19.053 -23.903  0.00  0.00    -0.059 C 
BRANCH  13  14
ATOM     14  N   UNL     1      34.179 -18.944 -25.157  0.00  0.00    +0.383 N 
ATOM     15  H   UNL     1      33.196 -18.765 -24.953  0.00  0.00    -0.089 HD
ATOM     16  H   UNL     1      34.264 -19.815 -25.680  0.00  0.00    -0.089 HD
ATOM     17  H   UNL     1      34.557 -18.176 -25.711  0.00  0.00    -0.089 HD
ENDBRANCH  13  14
ENDBRANCH   2  13
TORSDOF 3
ENDMDL
MODEL 3
REMARK VINA RESULT:      -8.3      1.678      2.807
REMARK  Name = 263366
REMARK  3 active torsions:
REMARK  status: ('A' for Active; 'I' for Inactive)
REMARK    1  A    between atoms: C_1  and  C_7
REMARK    2  A    between atoms: C_2  and  C_13
REMARK    3  A    between atoms: C_13  and  N_14
REMARK                            x       y       z     vdW  Elec       q    Type
REMARK                         _______ _______ _______ _____ _____    ______ ____
ROOT
ATOM      1  C   UNL     1      34.678 -17.870 -21.702  0.00  0.00    -0.006 C 
ATOM      2  C   UNL     1      34.820 -17.827 -23.091  0.00  0.00    -0.044 C 
ATOM      3  C   UNL     1      34.570 -16.681 -20.980  0.00  0.00    -0.000 C 
ATOM      4  C   UNL     1      34.855 -16.601 -23.753  0.00  0.00    -0.006 C 
ATOM      5  C   UNL     1      34.604 -15.454 -21.641  0.00  0.00    -0.000 C 
ATOM      6  C   UNL     1      34.746 -15.414 -23.028  0.00  0.00    -0.000 C 
ENDROOT
BRANCH   1   7
ATOM      7  C   UNL     1      34.639 -19.130 -20.993  0.00  0.00    -0.000 C 
ATOM      8  C   UNL     1      33.414 -19.709 -20.664  0.00  0.00    -0.000 C 
ATOM      9  C   UNL     1      35.829 -19.765 -20.635  0.00  0.00    -0.000 C 
ATOM     10  C   UNL     1      33.377 -20.923 -19.980  0.00  0.00    -0.000 C 
ATOM     11  C   UNL     1      35.792 -20.980 -19.950  0.00  0.00    -0.000 C 
ATOM     12  C   UNL     1      34.566 -21.559 -19.623  0.00  0.00    -0.000 C 
ENDBRANCH   1   7
BRANCH   2  13
ATOM     13  C   UNL     1      34.937 -19.079 -23.901  0.00  0.00    -0.059 C 
BRANCH  13  14
ATOM     14  N   UNL     1      34.201 -18.972 -25.160  0.00  0.00    +0.383 N 
ATOM     15  H   UNL     1      34.708 -18.358 -25.799  0.00  0.00    -0.089 HD
ATOM     16  H   UNL     1      33.275 -18.585 -24.982  0.00  0.00    -0.089 HD
ATOM     17  H   UNL     1      34.108 -19.897 -25.580  0.00  0.00    -0.089 HD
ENDBRANCH  13  14
ENDBRANCH   2  13
TORSDOF 3
ENDMDL
MODEL 4
REMARK VINA RESULT:      -7.8      1.793      4.905
REMARK  Name = 263366
REMARK  3 active torsions:
REMARK  status: ('A' for Active; 'I' for Inactive)
REMARK    1  A    between atoms: C_1  and  C_7
REMARK    2  A    between atoms: C_2  and  C_13
REMARK    3  A    between atoms: C_13  and  N_14
REMARK                            x       y       z     vdW  Elec       q    Type
REMARK                         _______ _______ _______ _____ _____    ______ ____
ROOT
ATOM      1  C   UNL     1      35.593 -19.272 -21.128  0.00  0.00    -0.006 C 
ATOM      2  C   UNL     1      34.611 -20.110 -20.596  0.00  0.00    -0.044 C 
ATOM      3  C   UNL     1      36.931 -19.460 -20.775  0.00  0.00    -0.000 C 
ATOM      4  C   UNL     1      34.965 -21.131 -19.716  0.00  0.00    -0.006 C 
ATOM      5  C   UNL     1      37.285 -20.481 -19.894  0.00  0.00    -0.000 C 
ATOM      6  C   UNL     1      36.302 -21.317 -19.365  0.00  0.00    -0.000 C 
ENDROOT
BRANCH   1   7
ATOM      7  C   UNL     1      35.252 -18.205 -22.044  0.00  0.00    -0.000 C 
ATOM      8  C   UNL     1      35.208 -18.451 -23.416  0.00  0.00    -0.000 C 
ATOM      9  C   UNL     1      34.967 -16.930 -21.554  0.00  0.00    -0.000 C 
ATOM     10  C   UNL     1      34.878 -17.423 -24.299  0.00  0.00    -0.000 C 
ATOM     11  C   UNL     1      34.638 -15.902 -22.437  0.00  0.00    -0.000 C 
ATOM     12  C   UNL     1      34.593 -16.148 -23.809  0.00  0.00    -0.000 C 
ENDBRANCH   1   7
BRANCH   2  13
ATOM     13  C   UNL     1      33.168 -19.942 -20.951  0.00  0.00    -0.059 C 
BRANCH  13  14
ATOM     14  N   UNL     1      32.295 -20.391 -19.867  0.00  0.00    +0.383 N 
ATOM     15  H   UNL     1      32.651 -21.267 -19.484  0.00  0.00    -0.089 HD
ATOM     16  H   UNL     1      31.352 -20.538 -20.228  0.00  0.00    -0.089 HD
ATOM     17  H   UNL     1      32.271 -19.684 -19.133  0.00  0.00    -0.089 HD
ENDBRANCH  13  14
ENDBRANCH   2  13
TORSDOF 3
ENDMDL
MODEL 5
REMARK VINA RESULT:      -7.7      1.849      2.781
REMARK  Name = 263366
REMARK  3 active torsions:
REMARK  status: ('A' for Active; 'I' for Inactive)
REMARK    1  A    between atoms: C_1  and  C_7
REMARK    2  A    between atoms: C_2  and  C_13
REMARK    3  A    between atoms: C_13  and  N_14
REMARK                            x       y       z     vdW  Elec       q    Type
REMARK                         _______ _______ _______ _____ _____    ______ ____
ROOT
ATOM      1  C   UNL     1      34.354 -16.792 -21.723  0.00  0.00    -0.006 C 
ATOM      2  C   UNL     1      34.579 -16.509 -23.073  0.00  0.00    -0.044 C 
ATOM      3  C   UNL     1      34.092 -15.751 -20.831  0.00  0.00    -0.000 C 
ATOM      4  C   UNL     1      34.542 -15.192 -23.526  0.00  0.00    -0.006 C 
ATOM      5  C   UNL     1      34.054 -14.433 -21.285  0.00  0.00    -0.000 C 
ATOM      6  C   UNL     1      34.279 -14.153 -22.633  0.00  0.00    -0.000 C 
ENDROOT
BRANCH   1   7
ATOM      7  C   UNL     1      34.388 -18.150 -21.228  0.00  0.00    -0.000 C 
ATOM      8  C   UNL     1      35.611 -18.783 -21.008  0.00  0.00    -0.000 C 
ATOM      9  C   UNL     1      33.196 -18.828 -20.971  0.00  0.00    -0.000 C 
ATOM     10  C   UNL     1      35.643 -20.093 -20.530  0.00  0.00    -0.000 C 
ATOM     11  C   UNL     1      33.228 -20.139 -20.492  0.00  0.00    -0.000 C 
ATOM     12  C   UNL     1      34.452 -20.770 -20.272  0.00  0.00    -0.000 C 
ENDBRANCH   1   7
BRANCH   2  13
ATOM     13  C   UNL     1      34.862 -17.596 -24.059  0.00  0.00    -0.059 C 
BRANCH  13  14
ATOM     14  N   UNL     1      34.046 -17.451 -25.264  0.00  0.00    +0.383 N 
ATOM     15  H   UNL     1      33.095 -17.766 -25.071  0.00  0.00    -0.089 HD
ATOM     16  H   UNL     1      34.444 -18.014 -26.015  0.00  0.00    -0.089 HD
ATOM     17  H   UNL     1      34.028 -16.471 -25.547  0.00  0.00    -0.089 HD
ENDBRANCH  13  14
ENDBRANCH   2  13
TORSDOF 3
ENDMDL
MODEL 6
REMARK VINA RESULT:      -7.7      1.684      4.912
REMARK  Name = 263366
REMARK  3 active torsions:
REMARK  status: ('A' for Active; 'I' for Inactive)
REMARK    1  A    between atoms: C_1  and  C_7
REMARK    2  A    between atoms: C_2  and  C_13
REMARK    3  A    between atoms: C_13  and  N_14
REMARK                            x       y       z     vdW  Elec       q    Type
REMARK                         _______ _______ _______ _____ _____    ______ ____
ROOT
ATOM      1  C   UNL     1      34.216 -19.830 -20.839  0.00  0.00    -0.006 C 
ATOM      2  C   UNL     1      35.234 -20.550 -20.209  0.00  0.00    -0.044 C 
ATOM      3  C   UNL     1      32.881 -20.154 -20.590  0.00  0.00    -0.000 C 
ATOM      4  C   UNL     1      34.916 -21.588 -19.333  0.00  0.00    -0.006 C 
ATOM      5  C   UNL     1      32.564 -21.191 -19.715  0.00  0.00    -0.000 C 
ATOM      6  C   UNL     1      33.582 -21.908 -19.086  0.00  0.00    -0.000 C 
ENDROOT
BRANCH   1   7
ATOM      7  C   UNL     1      34.519 -18.749 -21.752  0.00  0.00    -0.000 C 
ATOM      8  C   UNL     1      34.621 -17.442 -21.276  0.00  0.00    -0.000 C 
ATOM      9  C   UNL     1      34.708 -19.014 -23.108  0.00  0.00    -0.000 C 
ATOM     10  C   UNL     1      34.913 -16.400 -22.155  0.00  0.00    -0.000 C 
ATOM     11  C   UNL     1      35.000 -17.972 -23.988  0.00  0.00    -0.000 C 
ATOM     12  C   UNL     1      35.103 -16.665 -23.512  0.00  0.00    -0.000 C 
ENDBRANCH   1   7
BRANCH   2  13
ATOM     13  C   UNL     1      36.675 -20.234 -20.448  0.00  0.00    -0.059 C 
BRANCH  13  14
ATOM     14  N   UNL     1      37.354 -19.860 -19.207  0.00  0.00    +0.383 N 
ATOM     15  H   UNL     1      36.818 -19.132 -18.733  0.00  0.00    -0.089 HD
ATOM     16  H   UNL     1      38.287 -19.509 -19.422  0.00  0.00    -0.089 HD
ATOM     17  H   UNL     1      37.429 -20.676 -18.601  0.00  0.00    -0.089 HD
ENDBRANCH  13  14
ENDBRANCH   2  13
TORSDOF 3
ENDMDL
MODEL 7
REMARK VINA RESULT:      -7.4      9.122     10.660
REMARK  Name = 263366
REMARK  3 active torsions:
REMARK  status: ('A' for Active; 'I' for Inactive)
REMARK    1  A    between atoms: C_1  and  C_7
REMARK    2  A    between atoms: C_2  and  C_13
REMARK    3  A    between atoms: C_13  and  N_14
REMARK                            x       y       z     vdW  Elec       q    Type
REMARK                         _______ _______ _______ _____ _____    ______ ____
ROOT
ATOM      1  C   UNL     1      32.837  -8.241 -22.715  0.00  0.00    -0.006 C 
ATOM      2  C   UNL     1      32.230  -7.043 -23.100  0.00  0.00    -0.044 C 
ATOM      3  C   UNL     1      34.055  -8.616 -23.285  0.00  0.00    -0.000 C 
ATOM      4  C   UNL     1      32.840  -6.225 -24.050  0.00  0.00    -0.006 C 
ATOM      5  C   UNL     1      34.665  -7.798 -24.234  0.00  0.00    -0.000 C 
ATOM      6  C   UNL     1      34.058  -6.602 -24.617  0.00  0.00    -0.000 C 
ENDROOT
BRANCH   1   7
ATOM      7  C   UNL     1      32.225  -9.107 -21.732  0.00  0.00    -0.000 C 
ATOM      8  C   UNL     1      32.349  -8.818 -20.373  0.00  0.00    -0.000 C 
ATOM      9  C   UNL     1      31.512 -10.234 -22.142  0.00  0.00    -0.000 C 
ATOM     10  C   UNL     1      31.758  -9.653 -19.425  0.00  0.00    -0.000 C 
ATOM     11  C   UNL     1      30.922 -11.070 -21.194  0.00  0.00    -0.000 C 
ATOM     12  C   UNL     1      31.045 -10.779 -19.835  0.00  0.00    -0.000 C 
ENDBRANCH   1   7
BRANCH   2  13
ATOM     13  C   UNL     1      30.927  -6.606 -22.513  0.00  0.00    -0.059 C 
BRANCH  13  14
ATOM     14  N   UNL     1      31.110  -5.510 -21.562  0.00  0.00    +0.383 N 
ATOM     15  H   UNL     1      31.738  -4.813 -21.963  0.00  0.00    -0.089 HD
ATOM     16  H   UNL     1      31.512  -5.871 -20.698  0.00  0.00    -0.089 HD
ATOM     17  H   UNL     1      30.207  -5.079 -21.362  0.00  0.00    -0.089 HD
ENDBRANCH  13  14
ENDBRANCH   2  13
TORSDOF 3
ENDMDL
MODEL 8
REMARK VINA RESULT:      -7.3      4.392      5.782
REMARK  Name = 263366
REMARK  3 active torsions:
REMARK  status: ('A' for Active; 'I' for Inactive)
REMARK    1  A    between atoms: C_1  and  C_7
REMARK    2  A    between atoms: C_2  and  C_13
REMARK    3  A    between atoms: C_13  and  N_14
REMARK                            x       y       z     vdW  Elec       q    Type
REMARK                         _______ _______ _______ _____ _____    ______ ____
ROOT
ATOM      1  C   UNL     1      33.412 -13.843 -24.510  0.00  0.00    -0.006 C 
ATOM      2  C   UNL     1      33.627 -12.522 -24.910  0.00  0.00    -0.044 C 
ATOM      3  C   UNL     1      33.164 -14.826 -25.470  0.00  0.00    -0.000 C 
ATOM      4  C   UNL     1      33.595 -12.188 -26.262  0.00  0.00    -0.006 C 
ATOM      5  C   UNL     1      33.132 -14.492 -26.823  0.00  0.00    -0.000 C 
ATOM      6  C   UNL     1      33.348 -13.172 -27.219  0.00  0.00    -0.000 C 
ENDROOT
BRANCH   1   7
ATOM      7  C   UNL     1      33.440 -14.217 -23.113  0.00  0.00    -0.000 C 
ATOM      8  C   UNL     1      32.392 -13.845 -22.270  0.00  0.00    -0.000 C 
ATOM      9  C   UNL     1      34.515 -14.947 -22.608  0.00  0.00    -0.000 C 
ATOM     10  C   UNL     1      32.419 -14.205 -20.923  0.00  0.00    -0.000 C 
ATOM     11  C   UNL     1      34.542 -15.307 -21.260  0.00  0.00    -0.000 C 
ATOM     12  C   UNL     1      33.494 -14.936 -20.418  0.00  0.00    -0.000 C 
ENDBRANCH   1   7
BRANCH   2  13
ATOM     13  C   UNL     1      33.896 -11.442 -23.913  0.00  0.00    -0.059 C 
BRANCH  13  14
ATOM     14  N   UNL     1      34.956 -10.543 -24.371  0.00  0.00    +0.383 N 
ATOM     15  H   UNL     1      35.832 -11.062 -24.445  0.00  0.00    -0.089 HD
ATOM     16  H   UNL     1      35.069  -9.781 -23.703  0.00  0.00    -0.089 HD
ATOM     17  H   UNL     1      34.709 -10.162 -25.284  0.00  0.00    -0.089 HD
ENDBRANCH  13  14
ENDBRANCH   2  13
TORSDOF 3
ENDMDL
MODEL 9
REMARK VINA RESULT:      -7.3      8.320     11.157
REMARK  Name = 263366
REMARK  3 active torsions:
REMARK  status: ('A' for Active; 'I' for Inactive)
REMARK    1  A    between atoms: C_1  and  C_7
REMARK    2  A    between atoms: C_2  and  C_13
REMARK    3  A    between atoms: C_13  and  N_14
REMARK                            x       y       z     vdW  Elec       q    Type
REMARK                         _______ _______ _______ _____ _____    ______ ____
ROOT
ATOM      1  C   UNL     1      32.111  -9.395 -21.985  0.00  0.00    -0.006 C 
ATOM      2  C   UNL     1      31.856  -9.134 -20.637  0.00  0.00    -0.044 C 
ATOM      3  C   UNL     1      32.009 -10.700 -22.470  0.00  0.00    -0.000 C 
ATOM      4  C   UNL     1      31.500 -10.174 -19.779  0.00  0.00    -0.006 C 
ATOM      5  C   UNL     1      31.653 -11.740 -21.613  0.00  0.00    -0.000 C 
ATOM      6  C   UNL     1      31.398 -11.477 -20.267  0.00  0.00    -0.000 C 
ENDROOT
BRANCH   1   7
ATOM      7  C   UNL     1      32.482  -8.334 -22.895  0.00  0.00    -0.000 C 
ATOM      8  C   UNL     1      31.495  -7.545 -23.486  0.00  0.00    -0.000 C 
ATOM      9  C   UNL     1      33.827  -8.100 -23.183  0.00  0.00    -0.000 C 
ATOM     10  C   UNL     1      31.853  -6.522 -24.364  0.00  0.00    -0.000 C 
ATOM     11  C   UNL     1      34.184  -7.077 -24.061  0.00  0.00    -0.000 C 
ATOM     12  C   UNL     1      33.197  -6.288 -24.651  0.00  0.00    -0.000 C 
ENDBRANCH   1   7
BRANCH   2  13
ATOM     13  C   UNL     1      31.953  -7.751 -20.079  0.00  0.00    -0.059 C 
BRANCH  13  14
ATOM     14  N   UNL     1      33.319  -7.438 -19.659  0.00  0.00    +0.383 N 
ATOM     15  H   UNL     1      33.420  -7.630 -18.662  0.00  0.00    -0.089 HD
ATOM     16  H   UNL     1      33.513  -6.453 -19.836  0.00  0.00    -0.089 HD
ATOM     17  H   UNL     1      33.977  -8.014 -20.184  0.00  0.00    -0.089 HD
ENDBRANCH  13  14
ENDBRANCH   2  13
TORSDOF 3
ENDMDL
