MODEL 1
REMARK VINA RESULT:     -10.8      0.000      0.000
REMARK  Name = 2391
REMARK  7 active torsions:
REMARK  status: ('A' for Active; 'I' for Inactive)
REMARK    1  A    between atoms: C_1  and  C_3
REMARK    2  A    between atoms: C_1  and  C_8
REMARK    3  A    between atoms: C_1  and  C_18
REMARK    4  A    between atoms: C_13  and  O_14
REMARK    5  A    between atoms: O_14  and  C_16
REMARK    6  A    between atoms: C_23  and  O_24
REMARK    7  A    between atoms: O_24  and  C_26
REMARK                            x       y       z     vdW  Elec       q    Type
REMARK                         _______ _______ _______ _____ _____    ______ ____
ROOT
ATOM      1  C   UNL     1      34.454 -23.294 -15.450  0.00  0.00    +0.085 C 
ENDROOT
BRANCH   1   3
ATOM      2  N   UNL     1      35.577 -25.425 -15.700  0.00  0.00    -0.248 NA
ATOM      3  C   UNL     1      35.391 -24.389 -14.890  0.00  0.00    +0.067 C 
ATOM      4  C   UNL     1      35.918 -24.185 -13.652  0.00  0.00    +0.015 C 
ATOM      5  C   UNL     1      36.757 -25.188 -13.177  0.00  0.00    +0.003 C 
ATOM      6  C   UNL     1      36.397 -26.379 -15.204  0.00  0.00    +0.098 C 
ATOM      7  C   UNL     1      37.007 -26.308 -13.962  0.00  0.00    +0.021 C 
ENDBRANCH   1   3
BRANCH   1   8
ATOM      8  C   UNL     1      32.995 -23.589 -15.362  0.00  0.00    -0.013 C 
ATOM      9  C   UNL     1      32.117 -23.058 -16.308  0.00  0.00    -0.000 C 
ATOM     10  C   UNL     1      32.508 -24.395 -14.334  0.00  0.00    -0.000 C 
ATOM     11  C   UNL     1      30.752 -23.334 -16.224  0.00  0.00    +0.037 C 
ATOM     12  C   UNL     1      31.142 -24.671 -14.250  0.00  0.00    +0.037 C 
ATOM     13  C   UNL     1      30.265 -24.140 -15.196  0.00  0.00    +0.148 C 
BRANCH  13  14
ATOM     14  O   UNL     1      28.933 -24.408 -15.115  0.00  0.00    -0.424 OA
BRANCH  14  16
ATOM     15  O   UNL     1      27.973 -24.398 -17.250  0.00  0.00    -0.250 OA
ATOM     16  C   UNL     1      28.174 -23.867 -16.166  0.00  0.00    +0.322 C 
ATOM     17  C   UNL     1      27.635 -22.524 -15.773  0.00  0.00    +0.122 C 
ENDBRANCH  14  16
ENDBRANCH  13  14
ENDBRANCH   1   8
BRANCH   1  18
ATOM     18  C   UNL     1      34.941 -22.739 -16.808  0.00  0.00    -0.013 C 
ATOM     19  C   UNL     1      36.188 -22.178 -16.864  0.00  0.00    -0.000 C 
ATOM     20  C   UNL     1      34.098 -22.836 -17.882  0.00  0.00    -0.000 C 
ATOM     21  C   UNL     1      36.626 -21.677 -18.090  0.00  0.00    +0.037 C 
ATOM     22  C   UNL     1      34.536 -22.335 -19.107  0.00  0.00    +0.037 C 
ATOM     23  C   UNL     1      35.801 -21.755 -19.211  0.00  0.00    +0.148 C 
BRANCH  23  24
ATOM     24  O   UNL     1      36.230 -21.266 -20.407  0.00  0.00    -0.424 OA
BRANCH  24  26
ATOM     25  O   UNL     1      36.545 -18.948 -20.315  0.00  0.00    -0.250 OA
ATOM     26  C   UNL     1      35.882 -19.925 -20.636  0.00  0.00    +0.322 C 
ATOM     27  C   UNL     1      34.560 -19.852 -21.341  0.00  0.00    +0.122 C 
ENDBRANCH  24  26
ENDBRANCH  23  24
ENDBRANCH   1  18
TORSDOF 7
ENDMDL
MODEL 2
REMARK VINA RESULT:     -10.2      3.019      5.841
REMARK  Name = 2391
REMARK  7 active torsions:
REMARK  status: ('A' for Active; 'I' for Inactive)
REMARK    1  A    between atoms: C_1  and  C_3
REMARK    2  A    between atoms: C_1  and  C_8
REMARK    3  A    between atoms: C_1  and  C_18
REMARK    4  A    between atoms: C_13  and  O_14
REMARK    5  A    between atoms: O_14  and  C_16
REMARK    6  A    between atoms: C_23  and  O_24
REMARK    7  A    between atoms: O_24  and  C_26
REMARK                            x       y       z     vdW  Elec       q    Type
REMARK                         _______ _______ _______ _____ _____    ______ ____
ROOT
ATOM      1  C   UNL     1      33.851 -23.349 -17.053  0.00  0.00    +0.085 C 
ENDROOT
BRANCH   1   3
ATOM      2  N   UNL     1      31.436 -23.175 -17.098  0.00  0.00    -0.248 NA
ATOM      3  C   UNL     1      32.510 -23.132 -16.316  0.00  0.00    +0.067 C 
ATOM      4  C   UNL     1      32.562 -22.923 -14.973  0.00  0.00    +0.015 C 
ATOM      5  C   UNL     1      31.338 -22.731 -14.340  0.00  0.00    +0.003 C 
ATOM      6  C   UNL     1      30.266 -22.984 -16.448  0.00  0.00    +0.098 C 
ATOM      7  C   UNL     1      30.164 -22.761 -15.085  0.00  0.00    +0.021 C 
ENDBRANCH   1   3
BRANCH   1   8
ATOM      8  C   UNL     1      35.047 -23.514 -16.178  0.00  0.00    -0.013 C 
ATOM      9  C   UNL     1      36.026 -22.521 -16.140  0.00  0.00    -0.000 C 
ATOM     10  C   UNL     1      35.188 -24.662 -15.400  0.00  0.00    -0.000 C 
ATOM     11  C   UNL     1      37.146 -22.677 -15.322  0.00  0.00    +0.037 C 
ATOM     12  C   UNL     1      36.307 -24.818 -14.581  0.00  0.00    +0.037 C 
ATOM     13  C   UNL     1      37.286 -23.825 -14.543  0.00  0.00    +0.148 C 
BRANCH  13  14
ATOM     14  O   UNL     1      38.378 -23.976 -13.746  0.00  0.00    -0.424 OA
BRANCH  14  16
ATOM     15  O   UNL     1      38.878 -26.186 -13.155  0.00  0.00    -0.250 OA
ATOM     16  C   UNL     1      39.026 -25.215 -13.886  0.00  0.00    +0.322 C 
ATOM     17  C   UNL     1      39.941 -25.185 -15.074  0.00  0.00    +0.122 C 
ENDBRANCH  14  16
ENDBRANCH  13  14
ENDBRANCH   1   8
BRANCH   1  18
ATOM     18  C   UNL     1      34.029 -22.387 -18.251  0.00  0.00    -0.013 C 
ATOM     19  C   UNL     1      32.927 -21.718 -18.707  0.00  0.00    -0.000 C 
ATOM     20  C   UNL     1      35.279 -22.259 -18.791  0.00  0.00    -0.000 C 
ATOM     21  C   UNL     1      33.088 -20.850 -19.788  0.00  0.00    +0.037 C 
ATOM     22  C   UNL     1      35.441 -21.392 -19.872  0.00  0.00    +0.037 C 
ATOM     23  C   UNL     1      34.344 -20.688 -20.370  0.00  0.00    +0.148 C 
BRANCH  23  24
ATOM     24  O   UNL     1      34.500 -19.841 -21.425  0.00  0.00    -0.424 OA
BRANCH  24  26
ATOM     25  O   UNL     1      36.139 -18.364 -20.642  0.00  0.00    -0.250 OA
ATOM     26  C   UNL     1      35.017 -18.582 -21.078  0.00  0.00    +0.322 C 
ATOM     27  C   UNL     1      33.984 -17.521 -21.316  0.00  0.00    +0.122 C 
ENDBRANCH  24  26
ENDBRANCH  23  24
ENDBRANCH   1  18
TORSDOF 7
ENDMDL
MODEL 3
REMARK VINA RESULT:     -10.2      2.910      6.733
REMARK  Name = 2391
REMARK  7 active torsions:
REMARK  status: ('A' for Active; 'I' for Inactive)
REMARK    1  A    between atoms: C_1  and  C_3
REMARK    2  A    between atoms: C_1  and  C_8
REMARK    3  A    between atoms: C_1  and  C_18
REMARK    4  A    between atoms: C_13  and  O_14
REMARK    5  A    between atoms: O_14  and  C_16
REMARK    6  A    between atoms: C_23  and  O_24
REMARK    7  A    between atoms: O_24  and  C_26
REMARK                            x       y       z     vdW  Elec       q    Type
REMARK                         _______ _______ _______ _____ _____    ______ ____
ROOT
ATOM      1  C   UNL     1      34.912 -23.092 -15.348  0.00  0.00    +0.085 C 
ENDROOT
BRANCH   1   3
ATOM      2  N   UNL     1      33.499 -24.534 -14.011  0.00  0.00    -0.248 NA
ATOM      3  C   UNL     1      33.519 -23.685 -15.033  0.00  0.00    +0.067 C 
ATOM      4  C   UNL     1      32.480 -23.288 -15.815  0.00  0.00    +0.015 C 
ATOM      5  C   UNL     1      31.241 -23.839 -15.505  0.00  0.00    +0.003 C 
ATOM      6  C   UNL     1      32.279 -25.050 -13.740  0.00  0.00    +0.098 C 
ATOM      7  C   UNL     1      31.130 -24.737 -14.449  0.00  0.00    +0.021 C 
ENDBRANCH   1   3
BRANCH   1   8
ATOM      8  C   UNL     1      35.104 -22.607 -16.745  0.00  0.00    -0.013 C 
ATOM      9  C   UNL     1      34.081 -22.757 -17.682  0.00  0.00    -0.000 C 
ATOM     10  C   UNL     1      36.306 -22.006 -17.115  0.00  0.00    -0.000 C 
ATOM     11  C   UNL     1      34.262 -22.303 -18.989  0.00  0.00    +0.037 C 
ATOM     12  C   UNL     1      36.487 -21.553 -18.422  0.00  0.00    +0.037 C 
ATOM     13  C   UNL     1      35.464 -21.702 -19.359  0.00  0.00    +0.148 C 
BRANCH  13  14
ATOM     14  O   UNL     1      35.639 -21.260 -20.634  0.00  0.00    -0.424 OA
BRANCH  14  16
ATOM     15  O   UNL     1      36.233 -18.996 -20.578  0.00  0.00    -0.250 OA
ATOM     16  C   UNL     1      35.418 -19.882 -20.800  0.00  0.00    +0.322 C 
ATOM     17  C   UNL     1      34.022 -19.640 -21.291  0.00  0.00    +0.122 C 
ENDBRANCH  14  16
ENDBRANCH  13  14
ENDBRANCH   1   8
BRANCH   1  18
ATOM     18  C   UNL     1      36.063 -23.952 -14.777  0.00  0.00    -0.013 C 
ATOM     19  C   UNL     1      36.815 -23.428 -13.761  0.00  0.00    -0.000 C 
ATOM     20  C   UNL     1      36.268 -25.192 -15.319  0.00  0.00    -0.000 C 
ATOM     21  C   UNL     1      37.853 -24.205 -13.247  0.00  0.00    +0.037 C 
ATOM     22  C   UNL     1      37.306 -25.969 -14.804  0.00  0.00    +0.037 C 
ATOM     23  C   UNL     1      38.098 -25.474 -13.768  0.00  0.00    +0.148 C 
BRANCH  23  24
ATOM     24  O   UNL     1      39.112 -26.232 -13.264  0.00  0.00    -0.424 OA
BRANCH  24  26
ATOM     25  O   UNL     1      41.260 -26.925 -13.883  0.00  0.00    -0.250 OA
ATOM     26  C   UNL     1      40.290 -26.193 -14.026  0.00  0.00    +0.322 C 
ATOM     27  C   UNL     1      40.198 -25.109 -15.060  0.00  0.00    +0.122 C 
ENDBRANCH  24  26
ENDBRANCH  23  24
ENDBRANCH   1  18
TORSDOF 7
ENDMDL
MODEL 4
REMARK VINA RESULT:     -10.0      1.110      6.558
REMARK  Name = 2391
REMARK  7 active torsions:
REMARK  status: ('A' for Active; 'I' for Inactive)
REMARK    1  A    between atoms: C_1  and  C_3
REMARK    2  A    between atoms: C_1  and  C_8
REMARK    3  A    between atoms: C_1  and  C_18
REMARK    4  A    between atoms: C_13  and  O_14
REMARK    5  A    between atoms: O_14  and  C_16
REMARK    6  A    between atoms: C_23  and  O_24
REMARK    7  A    between atoms: O_24  and  C_26
REMARK                            x       y       z     vdW  Elec       q    Type
REMARK                         _______ _______ _______ _____ _____    ______ ____
ROOT
ATOM      1  C   UNL     1      34.486 -23.516 -16.753  0.00  0.00    +0.085 C 
ENDROOT
BRANCH   1   3
ATOM      2  N   UNL     1      35.864 -25.112 -15.561  0.00  0.00    -0.248 NA
ATOM      3  C   UNL     1      35.490 -23.838 -15.622  0.00  0.00    +0.067 C 
ATOM      4  C   UNL     1      35.879 -22.810 -14.822  0.00  0.00    +0.015 C 
ATOM      5  C   UNL     1      36.782 -23.132 -13.814  0.00  0.00    +0.003 C 
ATOM      6  C   UNL     1      36.741 -25.387 -14.570  0.00  0.00    +0.098 C 
ATOM      7  C   UNL     1      37.226 -24.443 -13.680  0.00  0.00    +0.021 C 
ENDBRANCH   1   3
BRANCH   1   8
ATOM      8  C   UNL     1      34.980 -22.585 -17.807  0.00  0.00    -0.013 C 
ATOM      9  C   UNL     1      34.139 -22.206 -18.853  0.00  0.00    -0.000 C 
ATOM     10  C   UNL     1      36.284 -22.094 -17.747  0.00  0.00    -0.000 C 
ATOM     11  C   UNL     1      34.602 -21.334 -19.840  0.00  0.00    +0.037 C 
ATOM     12  C   UNL     1      36.748 -21.222 -18.734  0.00  0.00    +0.037 C 
ATOM     13  C   UNL     1      35.906 -20.843 -19.780  0.00  0.00    +0.148 C 
BRANCH  13  14
ATOM     14  O   UNL     1      36.357 -19.993 -20.742  0.00  0.00    -0.424 OA
BRANCH  14  16
ATOM     15  O   UNL     1      35.115 -18.021 -20.520  0.00  0.00    -0.250 OA
ATOM     16  C   UNL     1      35.416 -19.030 -21.144  0.00  0.00    +0.322 C 
ATOM     17  C   UNL     1      34.818 -19.415 -22.464  0.00  0.00    +0.122 C 
ENDBRANCH  14  16
ENDBRANCH  13  14
ENDBRANCH   1   8
BRANCH   1  18
ATOM     18  C   UNL     1      33.066 -23.224 -16.217  0.00  0.00    -0.013 C 
ATOM     19  C   UNL     1      32.881 -23.207 -14.861  0.00  0.00    -0.000 C 
ATOM     20  C   UNL     1      32.070 -22.999 -17.127  0.00  0.00    -0.000 C 
ATOM     21  C   UNL     1      31.599 -22.942 -14.378  0.00  0.00    +0.037 C 
ATOM     22  C   UNL     1      30.788 -22.735 -16.644  0.00  0.00    +0.037 C 
ATOM     23  C   UNL     1      30.553 -22.707 -15.269  0.00  0.00    +0.148 C 
BRANCH  23  24
ATOM     24  O   UNL     1      29.303 -22.449 -14.796  0.00  0.00    -0.424 OA
BRANCH  24  26
ATOM     25  O   UNL     1      28.247 -24.450 -15.397  0.00  0.00    -0.250 OA
ATOM     26  C   UNL     1      28.294 -23.227 -15.387  0.00  0.00    +0.322 C 
ATOM     27  C   UNL     1      27.263 -22.339 -16.017  0.00  0.00    +0.122 C 
ENDBRANCH  24  26
ENDBRANCH  23  24
ENDBRANCH   1  18
TORSDOF 7
ENDMDL
MODEL 5
REMARK VINA RESULT:      -9.8      2.897      5.743
REMARK  Name = 2391
REMARK  7 active torsions:
REMARK  status: ('A' for Active; 'I' for Inactive)
REMARK    1  A    between atoms: C_1  and  C_3
REMARK    2  A    between atoms: C_1  and  C_8
REMARK    3  A    between atoms: C_1  and  C_18
REMARK    4  A    between atoms: C_13  and  O_14
REMARK    5  A    between atoms: O_14  and  C_16
REMARK    6  A    between atoms: C_23  and  O_24
REMARK    7  A    between atoms: O_24  and  C_26
REMARK                            x       y       z     vdW  Elec       q    Type
REMARK                         _______ _______ _______ _____ _____    ______ ____
ROOT
ATOM      1  C   UNL     1      34.019 -23.526 -16.828  0.00  0.00    +0.085 C 
ENDROOT
BRANCH   1   3
ATOM      2  N   UNL     1      32.764 -23.031 -14.817  0.00  0.00    -0.248 NA
ATOM      3  C   UNL     1      32.671 -23.242 -16.126  0.00  0.00    +0.067 C 
ATOM      4  C   UNL     1      31.553 -23.237 -16.899  0.00  0.00    +0.015 C 
ATOM      5  C   UNL     1      30.357 -22.979 -16.237  0.00  0.00    +0.003 C 
ATOM      6  C   UNL     1      31.583 -22.783 -14.208  0.00  0.00    +0.098 C 
ATOM      7  C   UNL     1      30.364 -22.746 -14.866  0.00  0.00    +0.021 C 
ENDBRANCH   1   3
BRANCH   1   8
ATOM      8  C   UNL     1      35.179 -23.769 -15.923  0.00  0.00    -0.013 C 
ATOM      9  C   UNL     1      35.458 -25.061 -15.479  0.00  0.00    -0.000 C 
ATOM     10  C   UNL     1      35.982 -22.703 -15.519  0.00  0.00    -0.000 C 
ATOM     11  C   UNL     1      36.543 -25.288 -14.632  0.00  0.00    +0.037 C 
ATOM     12  C   UNL     1      37.067 -22.929 -14.671  0.00  0.00    +0.037 C 
ATOM     13  C   UNL     1      37.347 -24.222 -14.228  0.00  0.00    +0.148 C 
BRANCH  13  14
ATOM     14  O   UNL     1      38.405 -24.444 -13.401  0.00  0.00    -0.424 OA
BRANCH  14  16
ATOM     15  O   UNL     1      39.000 -23.053 -11.615  0.00  0.00    -0.250 OA
ATOM     16  C   UNL     1      38.259 -23.886 -12.120  0.00  0.00    +0.322 C 
ATOM     17  C   UNL     1      37.054 -24.464 -11.441  0.00  0.00    +0.122 C 
ENDBRANCH  14  16
ENDBRANCH  13  14
ENDBRANCH   1   8
BRANCH   1  18
ATOM     18  C   UNL     1      34.284 -22.562 -18.008  0.00  0.00    -0.013 C 
ATOM     19  C   UNL     1      35.576 -22.183 -18.252  0.00  0.00    -0.000 C 
ATOM     20  C   UNL     1      33.211 -22.139 -18.745  0.00  0.00    -0.000 C 
ATOM     21  C   UNL     1      35.813 -21.314 -19.317  0.00  0.00    +0.037 C 
ATOM     22  C   UNL     1      33.449 -21.270 -19.810  0.00  0.00    +0.037 C 
ATOM     23  C   UNL     1      34.750 -20.857 -20.095  0.00  0.00    +0.148 C 
BRANCH  23  24
ATOM     24  O   UNL     1      34.984 -20.009 -21.134  0.00  0.00    -0.424 OA
BRANCH  24  26
ATOM     25  O   UNL     1      33.085 -18.663 -20.880  0.00  0.00    -0.250 OA
ATOM     26  C   UNL     1      34.291 -18.791 -21.047  0.00  0.00    +0.322 C 
ATOM     27  C   UNL     1      35.247 -17.645 -21.192  0.00  0.00    +0.122 C 
ENDBRANCH  24  26
ENDBRANCH  23  24
ENDBRANCH   1  18
TORSDOF 7
ENDMDL
MODEL 6
REMARK VINA RESULT:      -9.6      4.733      8.628
REMARK  Name = 2391
REMARK  7 active torsions:
REMARK  status: ('A' for Active; 'I' for Inactive)
REMARK    1  A    between atoms: C_1  and  C_3
REMARK    2  A    between atoms: C_1  and  C_8
REMARK    3  A    between atoms: C_1  and  C_18
REMARK    4  A    between atoms: C_13  and  O_14
REMARK    5  A    between atoms: O_14  and  C_16
REMARK    6  A    between atoms: C_23  and  O_24
REMARK    7  A    between atoms: O_24  and  C_26
REMARK                            x       y       z     vdW  Elec       q    Type
REMARK                         _______ _______ _______ _____ _____    ______ ____
ROOT
ATOM      1  C   UNL     1      34.877 -18.268 -21.630  0.00  0.00    +0.085 C 
ENDROOT
BRANCH   1   3
ATOM      2  N   UNL     1      34.648 -17.257 -23.818  0.00  0.00    -0.248 NA
ATOM      3  C   UNL     1      34.801 -18.406 -23.168  0.00  0.00    +0.067 C 
ATOM      4  C   UNL     1      34.896 -19.659 -23.688  0.00  0.00    +0.015 C 
ATOM      5  C   UNL     1      34.825 -19.748 -25.074  0.00  0.00    +0.003 C 
ATOM      6  C   UNL     1      34.582 -17.384 -25.163  0.00  0.00    +0.098 C 
ATOM      7  C   UNL     1      34.665 -18.593 -25.833  0.00  0.00    +0.021 C 
ENDBRANCH   1   3
BRANCH   1   8
ATOM      8  C   UNL     1      34.627 -19.520 -20.858  0.00  0.00    -0.013 C 
ATOM      9  C   UNL     1      35.699 -20.232 -20.320  0.00  0.00    -0.000 C 
ATOM     10  C   UNL     1      33.323 -19.978 -20.677  0.00  0.00    -0.000 C 
ATOM     11  C   UNL     1      35.465 -21.404 -19.599  0.00  0.00    +0.037 C 
ATOM     12  C   UNL     1      33.089 -21.150 -19.956  0.00  0.00    +0.037 C 
ATOM     13  C   UNL     1      34.160 -21.862 -19.418  0.00  0.00    +0.148 C 
BRANCH  13  14
ATOM     14  O   UNL     1      33.933 -23.005 -18.714  0.00  0.00    -0.424 OA
BRANCH  14  16
ATOM     15  O   UNL     1      31.943 -22.472 -17.603  0.00  0.00    -0.250 OA
ATOM     16  C   UNL     1      33.113 -22.831 -17.587  0.00  0.00    +0.322 C 
ATOM     17  C   UNL     1      33.880 -23.150 -16.338  0.00  0.00    +0.122 C 
ENDBRANCH  14  16
ENDBRANCH  13  14
ENDBRANCH   1   8
BRANCH   1  18
ATOM     18  C   UNL     1      34.143 -17.009 -21.113  0.00  0.00    -0.013 C 
ATOM     19  C   UNL     1      32.781 -17.059 -21.000  0.00  0.00    -0.000 C 
ATOM     20  C   UNL     1      34.898 -15.911 -20.799  0.00  0.00    -0.000 C 
ATOM     21  C   UNL     1      32.121 -15.921 -20.534  0.00  0.00    +0.037 C 
ATOM     22  C   UNL     1      34.237 -14.774 -20.333  0.00  0.00    +0.037 C 
ATOM     23  C   UNL     1      32.849 -14.780 -20.201  0.00  0.00    +0.148 C 
BRANCH  23  24
ATOM     24  O   UNL     1      32.203 -13.671 -19.745  0.00  0.00    -0.424 OA
BRANCH  24  26
ATOM     25  O   UNL     1      32.027 -12.891 -21.945  0.00  0.00    -0.250 OA
ATOM     26  C   UNL     1      31.937 -12.714 -20.738  0.00  0.00    +0.322 C 
ATOM     27  C   UNL     1      31.520 -11.420 -20.105  0.00  0.00    +0.122 C 
ENDBRANCH  24  26
ENDBRANCH  23  24
ENDBRANCH   1  18
TORSDOF 7
ENDMDL
MODEL 7
REMARK VINA RESULT:      -9.6      8.457     13.303
REMARK  Name = 2391
REMARK  7 active torsions:
REMARK  status: ('A' for Active; 'I' for Inactive)
REMARK    1  A    between atoms: C_1  and  C_3
REMARK    2  A    between atoms: C_1  and  C_8
REMARK    3  A    between atoms: C_1  and  C_18
REMARK    4  A    between atoms: C_13  and  O_14
REMARK    5  A    between atoms: O_14  and  C_16
REMARK    6  A    between atoms: C_23  and  O_24
REMARK    7  A    between atoms: O_24  and  C_26
REMARK                            x       y       z     vdW  Elec       q    Type
REMARK                         _______ _______ _______ _____ _____    ______ ____
ROOT
ATOM      1  C   UNL     1      32.412 -13.323 -23.093  0.00  0.00    +0.085 C 
ENDROOT
BRANCH   1   3
ATOM      2  N   UNL     1      32.545 -13.917 -25.437  0.00  0.00    -0.248 NA
ATOM      3  C   UNL     1      32.948 -13.047 -24.517  0.00  0.00    +0.067 C 
ATOM      4  C   UNL     1      33.759 -11.968 -24.681  0.00  0.00    +0.015 C 
ATOM      5  C   UNL     1      34.224 -11.748 -25.973  0.00  0.00    +0.003 C 
ATOM      6  C   UNL     1      33.017 -13.672 -26.680  0.00  0.00    +0.098 C 
ATOM      7  C   UNL     1      33.850 -12.611 -26.997  0.00  0.00    +0.021 C 
ENDBRANCH   1   3
BRANCH   1   8
ATOM      8  C   UNL     1      32.164 -12.116 -22.253  0.00  0.00    -0.013 C 
ATOM      9  C   UNL     1      32.291 -10.843 -22.808  0.00  0.00    -0.000 C 
ATOM     10  C   UNL     1      31.805 -12.262 -20.914  0.00  0.00    -0.000 C 
ATOM     11  C   UNL     1      32.059  -9.714 -22.021  0.00  0.00    +0.037 C 
ATOM     12  C   UNL     1      31.574 -11.133 -20.127  0.00  0.00    +0.037 C 
ATOM     13  C   UNL     1      31.701  -9.859 -20.681  0.00  0.00    +0.148 C 
BRANCH  13  14
ATOM     14  O   UNL     1      31.475  -8.757 -19.915  0.00  0.00    -0.424 OA
BRANCH  14  16
ATOM     15  O   UNL     1      33.406  -7.448 -19.718  0.00  0.00    -0.250 OA
ATOM     16  C   UNL     1      32.310  -7.668 -20.216  0.00  0.00    +0.322 C 
ATOM     17  C   UNL     1      31.661  -6.792 -21.245  0.00  0.00    +0.122 C 
ENDBRANCH  14  16
ENDBRANCH  13  14
ENDBRANCH   1   8
BRANCH   1  18
ATOM     18  C   UNL     1      33.163 -14.479 -22.394  0.00  0.00    -0.013 C 
ATOM     19  C   UNL     1      32.525 -15.143 -21.382  0.00  0.00    -0.000 C 
ATOM     20  C   UNL     1      34.428 -14.776 -22.824  0.00  0.00    -0.000 C 
ATOM     21  C   UNL     1      33.204 -16.186 -20.751  0.00  0.00    +0.037 C 
ATOM     22  C   UNL     1      35.107 -15.819 -22.194  0.00  0.00    +0.037 C 
ATOM     23  C   UNL     1      34.494 -16.523 -21.157  0.00  0.00    +0.148 C 
BRANCH  23  24
ATOM     24  O   UNL     1      35.155 -17.542 -20.542  0.00  0.00    -0.424 OA
BRANCH  24  26
ATOM     25  O   UNL     1      36.829 -18.643 -21.753  0.00  0.00    -0.250 OA
ATOM     26  C   UNL     1      35.658 -18.514 -21.421  0.00  0.00    +0.322 C 
ATOM     27  C   UNL     1      34.543 -19.389 -21.911  0.00  0.00    +0.122 C 
ENDBRANCH  24  26
ENDBRANCH  23  24
ENDBRANCH   1  18
TORSDOF 7
ENDMDL
MODEL 8
REMARK VINA RESULT:      -9.5      2.952      7.478
REMARK  Name = 2391
REMARK  7 active torsions:
REMARK  status: ('A' for Active; 'I' for Inactive)
REMARK    1  A    between atoms: C_1  and  C_3
REMARK    2  A    between atoms: C_1  and  C_8
REMARK    3  A    between atoms: C_1  and  C_18
REMARK    4  A    between atoms: C_13  and  O_14
REMARK    5  A    between atoms: O_14  and  C_16
REMARK    6  A    between atoms: C_23  and  O_24
REMARK    7  A    between atoms: O_24  and  C_26
REMARK                            x       y       z     vdW  Elec       q    Type
REMARK                         _______ _______ _______ _____ _____    ______ ____
ROOT
ATOM      1  C   UNL     1      35.036 -22.896 -15.711  0.00  0.00    +0.085 C 
ENDROOT
BRANCH   1   3
ATOM      2  N   UNL     1      34.364 -22.844 -18.038  0.00  0.00    -0.248 NA
ATOM      3  C   UNL     1      35.300 -22.467 -17.173  0.00  0.00    +0.067 C 
ATOM      4  C   UNL     1      36.438 -21.764 -17.421  0.00  0.00    +0.015 C 
ATOM      5  C   UNL     1      36.646 -21.393 -18.746  0.00  0.00    +0.003 C 
ATOM      6  C   UNL     1      34.601 -22.467 -19.314  0.00  0.00    +0.098 C 
ATOM      7  C   UNL     1      35.715 -21.747 -19.716  0.00  0.00    +0.021 C 
ENDBRANCH   1   3
BRANCH   1   8
ATOM      8  C   UNL     1      36.069 -23.781 -15.103  0.00  0.00    -0.013 C 
ATOM      9  C   UNL     1      36.164 -25.116 -15.497  0.00  0.00    -0.000 C 
ATOM     10  C   UNL     1      36.940 -23.275 -14.139  0.00  0.00    -0.000 C 
ATOM     11  C   UNL     1      37.131 -25.944 -14.926  0.00  0.00    +0.037 C 
ATOM     12  C   UNL     1      37.908 -24.103 -13.568  0.00  0.00    +0.037 C 
ATOM     13  C   UNL     1      38.002 -25.438 -13.962  0.00  0.00    +0.148 C 
BRANCH  13  14
ATOM     14  O   UNL     1      38.945 -26.247 -13.407  0.00  0.00    -0.424 OA
BRANCH  14  16
ATOM     15  O   UNL     1      41.174 -26.870 -13.759  0.00  0.00    -0.250 OA
ATOM     16  C   UNL     1      40.197 -26.190 -14.043  0.00  0.00    +0.322 C 
ATOM     17  C   UNL     1      40.173 -25.163 -15.135  0.00  0.00    +0.122 C 
ENDBRANCH  14  16
ENDBRANCH  13  14
ENDBRANCH   1   8
BRANCH   1  18
ATOM     18  C   UNL     1      33.569 -23.325 -15.479  0.00  0.00    -0.013 C 
ATOM     19  C   UNL     1      33.216 -23.761 -14.231  0.00  0.00    -0.000 C 
ATOM     20  C   UNL     1      32.702 -23.247 -16.535  0.00  0.00    -0.000 C 
ATOM     21  C   UNL     1      31.892 -24.148 -14.022  0.00  0.00    +0.037 C 
ATOM     22  C   UNL     1      31.378 -23.634 -16.326  0.00  0.00    +0.037 C 
ATOM     23  C   UNL     1      30.974 -24.085 -15.070  0.00  0.00    +0.148 C 
BRANCH  23  24
ATOM     24  O   UNL     1      29.682 -24.463 -14.865  0.00  0.00    -0.424 OA
BRANCH  24  26
ATOM     25  O   UNL     1      28.252 -24.457 -16.718  0.00  0.00    -0.250 OA
ATOM     26  C   UNL     1      28.767 -23.891 -15.764  0.00  0.00    +0.322 C 
ATOM     27  C   UNL     1      28.504 -22.462 -15.389  0.00  0.00    +0.122 C 
ENDBRANCH  24  26
ENDBRANCH  23  24
ENDBRANCH   1  18
TORSDOF 7
ENDMDL
MODEL 9
REMARK VINA RESULT:      -9.1      4.606      8.723
REMARK  Name = 2391
REMARK  7 active torsions:
REMARK  status: ('A' for Active; 'I' for Inactive)
REMARK    1  A    between atoms: C_1  and  C_3
REMARK    2  A    between atoms: C_1  and  C_8
REMARK    3  A    between atoms: C_1  and  C_18
REMARK    4  A    between atoms: C_13  and  O_14
REMARK    5  A    between atoms: O_14  and  C_16
REMARK    6  A    between atoms: C_23  and  O_24
REMARK    7  A    between atoms: O_24  and  C_26
REMARK                            x       y       z     vdW  Elec       q    Type
REMARK                         _______ _______ _______ _____ _____    ______ ____
ROOT
ATOM      1  C   UNL     1      35.018 -18.206 -21.656  0.00  0.00    +0.085 C 
ENDROOT
BRANCH   1   3
ATOM      2  N   UNL     1      34.790 -19.630 -23.601  0.00  0.00    -0.248 NA
ATOM      3  C   UNL     1      34.875 -18.371 -23.187  0.00  0.00    +0.067 C 
ATOM      4  C   UNL     1      34.852 -17.237 -23.938  0.00  0.00    +0.015 C 
ATOM      5  C   UNL     1      34.722 -17.419 -25.310  0.00  0.00    +0.003 C 
ATOM      6  C   UNL     1      34.665 -19.768 -24.941  0.00  0.00    +0.098 C 
ATOM      7  C   UNL     1      34.625 -18.706 -25.829  0.00  0.00    +0.021 C 
ENDBRANCH   1   3
BRANCH   1   8
ATOM      8  C   UNL     1      34.900 -19.460 -20.860  0.00  0.00    -0.013 C 
ATOM      9  C   UNL     1      36.049 -20.126 -20.432  0.00  0.00    -0.000 C 
ATOM     10  C   UNL     1      33.641 -19.969 -20.544  0.00  0.00    -0.000 C 
ATOM     11  C   UNL     1      35.937 -21.301 -19.687  0.00  0.00    +0.037 C 
ATOM     12  C   UNL     1      33.529 -21.143 -19.799  0.00  0.00    +0.037 C 
ATOM     13  C   UNL     1      34.678 -21.809 -19.371  0.00  0.00    +0.148 C 
BRANCH  13  14
ATOM     14  O   UNL     1      34.571 -22.954 -18.644  0.00  0.00    -0.424 OA
BRANCH  14  16
ATOM     15  O   UNL     1      33.559 -22.898 -16.534  0.00  0.00    -0.250 OA
ATOM     16  C   UNL     1      34.537 -22.751 -17.254  0.00  0.00    +0.322 C 
ATOM     17  C   UNL     1      35.887 -22.320 -16.765  0.00  0.00    +0.122 C 
ENDBRANCH  14  16
ENDBRANCH  13  14
ENDBRANCH   1   8
BRANCH   1  18
ATOM     18  C   UNL     1      34.223 -16.995 -21.116  0.00  0.00    -0.013 C 
ATOM     19  C   UNL     1      34.925 -15.888 -20.722  0.00  0.00    -0.000 C 
ATOM     20  C   UNL     1      32.860 -17.096 -21.060  0.00  0.00    -0.000 C 
ATOM     21  C   UNL     1      34.206 -14.797 -20.234  0.00  0.00    +0.037 C 
ATOM     22  C   UNL     1      32.141 -16.004 -20.573  0.00  0.00    +0.037 C 
ATOM     23  C   UNL     1      32.815 -14.855 -20.160  0.00  0.00    +0.148 C 
BRANCH  23  24
ATOM     24  O   UNL     1      32.115 -13.788 -19.684  0.00  0.00    -0.424 OA
BRANCH  24  26
ATOM     25  O   UNL     1      31.996 -12.866 -21.833  0.00  0.00    -0.250 OA
ATOM     26  C   UNL     1      31.948 -12.750 -20.616  0.00  0.00    +0.322 C 
ATOM     27  C   UNL     1      31.700 -11.455 -19.902  0.00  0.00    +0.122 C 
ENDBRANCH  24  26
ENDBRANCH  23  24
ENDBRANCH   1  18
TORSDOF 7
ENDMDL
