MODEL 1
REMARK VINA RESULT:      -9.0      0.000      0.000
REMARK  Name = 93055
REMARK  8 active torsions:
REMARK  status: ('A' for Active; 'I' for Inactive)
REMARK    1  A    between atoms: C_6  and  O_21
REMARK    2  A    between atoms: C_6  and  C_26
REMARK    3  A    between atoms: C_9  and  O_23
REMARK    4  A    between atoms: C_26  and  C_27
REMARK    5  A    between atoms: C_27  and  O_28
REMARK    6  A    between atoms: O_28  and  C_30
REMARK    7  A    between atoms: C_30  and  C_31
REMARK    8  A    between atoms: C_31  and  C_32
REMARK                            x       y       z     vdW  Elec       q    Type
REMARK                         _______ _______ _______ _____ _____    ______ ____
ROOT
ATOM      1  O   UNL     1      30.631  -4.703 -23.920  0.00  0.00    -0.287 OA
ATOM      2  C   UNL     1      33.413 -12.436 -23.565  0.00  0.00    +0.031 C 
ATOM      3  C   UNL     1      32.351 -11.754 -22.672  0.00  0.00    +0.003 C 
ATOM      4  C   UNL     1      32.734 -10.330 -22.241  0.00  0.00    +0.003 C 
ATOM      5  C   UNL     1      32.912  -9.446 -23.526  0.00  0.00    +0.034 C 
ATOM      6  C   UNL     1      32.742 -13.826 -23.739  0.00  0.00    +0.143 C 
ATOM      7  C   UNL     1      33.556 -11.585 -24.844  0.00  0.00    +0.032 C 
ATOM      8  C   UNL     1      32.070 -12.800 -21.597  0.00  0.00    +0.003 C 
ATOM      9  C   UNL     1      33.884 -10.103 -24.556  0.00  0.00    +0.111 C 
ATOM     10  C   UNL     1      33.196  -7.931 -23.173  0.00  0.00    +0.036 C 
ATOM     11  C   UNL     1      32.163 -14.147 -22.343  0.00  0.00    +0.034 C 
ATOM     12  C   UNL     1      31.660  -9.744 -21.307  0.00  0.00    +0.004 C 
ATOM     13  C   UNL     1      34.788 -12.607 -22.861  0.00  0.00    +0.003 C 
ATOM     14  C   UNL     1      31.930  -8.287 -20.956  0.00  0.00    +0.022 C 
ATOM     15  C   UNL     1      32.093  -7.471 -22.212  0.00  0.00    -0.038 C 
ATOM     16  C   UNL     1      34.561  -7.690 -22.489  0.00  0.00    +0.009 C 
ATOM     17  C   UNL     1      33.205  -7.093 -24.443  0.00  0.00    -0.020 C 
ATOM     18  C   UNL     1      31.273  -6.438 -22.459  0.00  0.00    +0.034 C 
ATOM     19  C   UNL     1      32.389  -6.065 -24.695  0.00  0.00    +0.038 C 
ATOM     20  C   UNL     1      31.372  -5.657 -23.709  0.00  0.00    +0.195 C 
ENDROOT
BRANCH   6  21
ATOM     21  O   UNL     1      31.682 -13.772 -24.690  0.00  0.00    -0.380 OA
ATOM     22  H   UNL     1      31.622 -14.620 -25.157  0.00  0.00    +0.211 HD
ENDBRANCH   6  21
BRANCH   9  23
ATOM     23  O   UNL     1      35.236  -9.988 -24.135  0.00  0.00    -0.384 OA
ATOM     24  H   UNL     1      35.624  -9.182 -24.512  0.00  0.00    +0.210 HD
ENDBRANCH   9  23
BRANCH   6  26
ATOM     25  O   UNL     1      34.232 -14.775 -25.336  0.00  0.00    -0.290 OA
ATOM     26  C   UNL     1      33.652 -14.897 -24.258  0.00  0.00    +0.218 C 
BRANCH  26  27
ATOM     27  C   UNL     1      33.812 -16.123 -23.384  0.00  0.00    +0.274 C 
BRANCH  27  28
ATOM     28  O   UNL     1      34.910 -15.970 -22.509  0.00  0.00    -0.440 OA
BRANCH  28  30
ATOM     29  O   UNL     1      35.112 -15.837 -20.214  0.00  0.00    -0.250 OA
ATOM     30  C   UNL     1      34.725 -16.412 -21.223  0.00  0.00    +0.317 C 
BRANCH  30  31
ATOM     31  C   UNL     1      33.959 -17.716 -21.208  0.00  0.00    +0.110 C 
BRANCH  31  32
ATOM     32  C   UNL     1      34.823 -18.969 -21.469  0.00  0.00    +0.011 C 
ATOM     33  C   UNL     1      34.269 -20.120 -20.606  0.00  0.00    +0.001 C 
ATOM     34  C   UNL     1      36.288 -18.726 -21.077  0.00  0.00    +0.001 C 
ATOM     35  C   UNL     1      34.754 -19.392 -22.947  0.00  0.00    +0.001 C 
ENDBRANCH  31  32
ENDBRANCH  30  31
ENDBRANCH  28  30
ENDBRANCH  27  28
ENDBRANCH  26  27
ENDBRANCH   6  26
TORSDOF 8
ENDMDL
MODEL 2
REMARK VINA RESULT:      -8.4      3.223      6.228
REMARK  Name = 93055
REMARK  8 active torsions:
REMARK  status: ('A' for Active; 'I' for Inactive)
REMARK    1  A    between atoms: C_6  and  O_21
REMARK    2  A    between atoms: C_6  and  C_26
REMARK    3  A    between atoms: C_9  and  O_23
REMARK    4  A    between atoms: C_26  and  C_27
REMARK    5  A    between atoms: C_27  and  O_28
REMARK    6  A    between atoms: O_28  and  C_30
REMARK    7  A    between atoms: C_30  and  C_31
REMARK    8  A    between atoms: C_31  and  C_32
REMARK                            x       y       z     vdW  Elec       q    Type
REMARK                         _______ _______ _______ _____ _____    ______ ____
ROOT
ATOM      1  O   UNL     1      34.864 -10.118 -26.215  0.00  0.00    -0.287 OA
ATOM      2  C   UNL     1      34.754 -17.345 -22.290  0.00  0.00    +0.031 C 
ATOM      3  C   UNL     1      34.663 -17.075 -23.809  0.00  0.00    +0.003 C 
ATOM      4  C   UNL     1      33.739 -15.901 -24.169  0.00  0.00    +0.003 C 
ATOM      5  C   UNL     1      34.290 -14.599 -23.488  0.00  0.00    +0.034 C 
ATOM      6  C   UNL     1      35.682 -18.590 -22.309  0.00  0.00    +0.143 C 
ATOM      7  C   UNL     1      35.333 -16.077 -21.629  0.00  0.00    +0.032 C 
ATOM      8  C   UNL     1      34.369 -18.452 -24.395  0.00  0.00    +0.003 C 
ATOM      9  C   UNL     1      34.531 -14.798 -21.958  0.00  0.00    +0.111 C 
ATOM     10  C   UNL     1      33.463 -13.316 -23.898  0.00  0.00    +0.036 C 
ATOM     11  C   UNL     1      35.176 -19.423 -23.508  0.00  0.00    +0.034 C 
ATOM     12  C   UNL     1      33.652 -15.736 -25.697  0.00  0.00    +0.004 C 
ATOM     13  C   UNL     1      33.389 -17.724 -21.651  0.00  0.00    +0.003 C 
ATOM     14  C   UNL     1      32.851 -14.505 -26.102  0.00  0.00    +0.022 C 
ATOM     15  C   UNL     1      33.409 -13.277 -25.430  0.00  0.00    -0.038 C 
ATOM     16  C   UNL     1      32.012 -13.305 -23.365  0.00  0.00    +0.009 C 
ATOM     17  C   UNL     1      34.129 -12.066 -23.340  0.00  0.00    -0.020 C 
ATOM     18  C   UNL     1      33.862 -12.251 -26.166  0.00  0.00    +0.034 C 
ATOM     19  C   UNL     1      34.584 -11.042 -24.068  0.00  0.00    +0.038 C 
ATOM     20  C   UNL     1      34.468 -11.059 -25.538  0.00  0.00    +0.195 C 
ENDROOT
BRANCH   6  21
ATOM     21  O   UNL     1      37.040 -18.219 -22.531  0.00  0.00    -0.380 OA
ATOM     22  H   UNL     1      37.237 -18.266 -23.479  0.00  0.00    +0.211 HD
ENDBRANCH   6  21
BRANCH   9  23
ATOM     23  O   UNL     1      33.305 -14.807 -21.240  0.00  0.00    -0.384 OA
ATOM     24  H   UNL     1      32.842 -13.966 -21.379  0.00  0.00    +0.210 HD
ENDBRANCH   9  23
BRANCH   6  26
ATOM     25  O   UNL     1      36.489 -19.068 -20.120  0.00  0.00    -0.290 OA
ATOM     26  C   UNL     1      35.714 -19.365 -21.027  0.00  0.00    +0.218 C 
BRANCH  26  27
ATOM     27  C   UNL     1      34.743 -20.522 -20.918  0.00  0.00    +0.274 C 
BRANCH  27  28
ATOM     28  O   UNL     1      35.398 -21.680 -20.446  0.00  0.00    -0.440 OA
BRANCH  28  30
ATOM     29  O   UNL     1      36.441 -22.007 -18.412  0.00  0.00    -0.250 OA
ATOM     30  C   UNL     1      35.430 -21.844 -19.083  0.00  0.00    +0.317 C 
BRANCH  30  31
ATOM     31  C   UNL     1      34.034 -21.788 -18.505  0.00  0.00    +0.110 C 
BRANCH  31  32
ATOM     32  C   UNL     1      33.636 -23.024 -17.668  0.00  0.00    +0.011 C 
ATOM     33  C   UNL     1      33.808 -24.275 -18.551  0.00  0.00    +0.001 C 
ATOM     34  C   UNL     1      32.168 -22.941 -17.219  0.00  0.00    +0.001 C 
ATOM     35  C   UNL     1      34.539 -23.171 -16.432  0.00  0.00    +0.001 C 
ENDBRANCH  31  32
ENDBRANCH  30  31
ENDBRANCH  28  30
ENDBRANCH  27  28
ENDBRANCH  26  27
ENDBRANCH   6  26
TORSDOF 8
ENDMDL
MODEL 3
REMARK VINA RESULT:      -8.0      8.426     13.366
REMARK  Name = 93055
REMARK  8 active torsions:
REMARK  status: ('A' for Active; 'I' for Inactive)
REMARK    1  A    between atoms: C_6  and  O_21
REMARK    2  A    between atoms: C_6  and  C_26
REMARK    3  A    between atoms: C_9  and  O_23
REMARK    4  A    between atoms: C_26  and  C_27
REMARK    5  A    between atoms: C_27  and  O_28
REMARK    6  A    between atoms: O_28  and  C_30
REMARK    7  A    between atoms: C_30  and  C_31
REMARK    8  A    between atoms: C_31  and  C_32
REMARK                            x       y       z     vdW  Elec       q    Type
REMARK                         _______ _______ _______ _____ _____    ______ ____
ROOT
ATOM      1  O   UNL     1      34.029 -18.013 -21.565  0.00  0.00    -0.287 OA
ATOM      2  C   UNL     1      35.011 -23.564 -15.576  0.00  0.00    +0.031 C 
ATOM      3  C   UNL     1      36.030 -22.528 -16.103  0.00  0.00    +0.003 C 
ATOM      4  C   UNL     1      36.053 -22.412 -17.634  0.00  0.00    +0.003 C 
ATOM      5  C   UNL     1      34.629 -21.971 -18.127  0.00  0.00    +0.034 C 
ATOM      6  C   UNL     1      35.307 -23.460 -14.054  0.00  0.00    +0.143 C 
ATOM      7  C   UNL     1      33.610 -23.106 -16.029  0.00  0.00    +0.032 C 
ATOM      8  C   UNL     1      37.318 -22.895 -15.371  0.00  0.00    +0.003 C 
ATOM      9  C   UNL     1      33.504 -22.890 -17.555  0.00  0.00    +0.111 C 
ATOM     10  C   UNL     1      34.591 -21.716 -19.687  0.00  0.00    +0.036 C 
ATOM     11  C   UNL     1      36.846 -23.346 -13.973  0.00  0.00    +0.034 C 
ATOM     12  C   UNL     1      37.132 -21.410 -18.081  0.00  0.00    +0.004 C 
ATOM     13  C   UNL     1      35.302 -25.011 -16.063  0.00  0.00    +0.003 C 
ATOM     14  C   UNL     1      37.107 -21.163 -19.584  0.00  0.00    +0.022 C 
ATOM     15  C   UNL     1      35.726 -20.741 -20.019  0.00  0.00    -0.038 C 
ATOM     16  C   UNL     1      34.787 -22.991 -20.537  0.00  0.00    +0.009 C 
ATOM     17  C   UNL     1      33.239 -21.143 -20.087  0.00  0.00    -0.020 C 
ATOM     18  C   UNL     1      35.539 -19.556 -20.618  0.00  0.00    +0.034 C 
ATOM     19  C   UNL     1      33.046 -19.962 -20.682  0.00  0.00    +0.038 C 
ATOM     20  C   UNL     1      34.191 -19.090 -21.003  0.00  0.00    +0.195 C 
ENDROOT
BRANCH   6  21
ATOM     21  O   UNL     1      34.716 -22.291 -13.493  0.00  0.00    -0.380 OA
ATOM     22  H   UNL     1      33.885 -22.529 -13.052  0.00  0.00    +0.211 HD
ENDBRANCH   6  21
BRANCH   9  23
ATOM     23  O   UNL     1      33.481 -24.148 -18.214  0.00  0.00    -0.384 OA
ATOM     24  H   UNL     1      33.764 -24.842 -17.596  0.00  0.00    +0.210 HD
ENDBRANCH   9  23
BRANCH   6  26
ATOM     25  O   UNL     1      35.475 -25.231 -12.471  0.00  0.00    -0.290 OA
ATOM     26  C   UNL     1      34.757 -24.586 -13.233  0.00  0.00    +0.218 C 
BRANCH  26  27
ATOM     27  C   UNL     1      33.279 -24.876 -13.396  0.00  0.00    +0.274 C 
BRANCH  27  28
ATOM     28  O   UNL     1      32.509 -23.740 -13.066  0.00  0.00    -0.440 OA
BRANCH  28  30
ATOM     29  O   UNL     1      30.426 -24.639 -12.642  0.00  0.00    -0.250 OA
ATOM     30  C   UNL     1      31.153 -23.856 -13.240  0.00  0.00    +0.317 C 
BRANCH  30  31
ATOM     31  C   UNL     1      30.659 -22.869 -14.274  0.00  0.00    +0.110 C 
BRANCH  31  32
ATOM     32  C   UNL     1      29.892 -23.507 -15.454  0.00  0.00    +0.011 C 
ATOM     33  C   UNL     1      30.155 -22.656 -16.711  0.00  0.00    +0.001 C 
ATOM     34  C   UNL     1      28.379 -23.530 -15.186  0.00  0.00    +0.001 C 
ATOM     35  C   UNL     1      30.383 -24.940 -15.725  0.00  0.00    +0.001 C 
ENDBRANCH  31  32
ENDBRANCH  30  31
ENDBRANCH  28  30
ENDBRANCH  27  28
ENDBRANCH  26  27
ENDBRANCH   6  26
TORSDOF 8
ENDMDL
MODEL 4
REMARK VINA RESULT:      -7.5      2.411      9.663
REMARK  Name = 93055
REMARK  8 active torsions:
REMARK  status: ('A' for Active; 'I' for Inactive)
REMARK    1  A    between atoms: C_6  and  O_21
REMARK    2  A    between atoms: C_6  and  C_26
REMARK    3  A    between atoms: C_9  and  O_23
REMARK    4  A    between atoms: C_26  and  C_27
REMARK    5  A    between atoms: C_27  and  O_28
REMARK    6  A    between atoms: O_28  and  C_30
REMARK    7  A    between atoms: C_30  and  C_31
REMARK    8  A    between atoms: C_31  and  C_32
REMARK                            x       y       z     vdW  Elec       q    Type
REMARK                         _______ _______ _______ _____ _____    ______ ____
ROOT
ATOM      1  O   UNL     1      34.938 -16.399 -20.421  0.00  0.00    -0.287 OA
ATOM      2  C   UNL     1      33.267  -9.006 -23.616  0.00  0.00    +0.031 C 
ATOM      3  C   UNL     1      32.859  -9.572 -22.237  0.00  0.00    +0.003 C 
ATOM      4  C   UNL     1      32.374 -11.029 -22.289  0.00  0.00    +0.003 C 
ATOM      5  C   UNL     1      33.537 -11.926 -22.845  0.00  0.00    +0.034 C 
ATOM      6  C   UNL     1      33.622  -7.553 -23.199  0.00  0.00    +0.143 C 
ATOM      7  C   UNL     1      34.435  -9.866 -24.141  0.00  0.00    +0.032 C 
ATOM      8  C   UNL     1      31.923  -8.503 -21.679  0.00  0.00    +0.003 C 
ATOM      9  C   UNL     1      34.106 -11.375 -24.190  0.00  0.00    +0.111 C 
ATOM     10  C   UNL     1      33.164 -13.462 -22.827  0.00  0.00    +0.036 C 
ATOM     11  C   UNL     1      32.527  -7.173 -22.176  0.00  0.00    +0.034 C 
ATOM     12  C   UNL     1      31.928 -11.498 -20.893  0.00  0.00    +0.004 C 
ATOM     13  C   UNL     1      32.098  -8.983 -24.640  0.00  0.00    +0.003 C 
ATOM     14  C   UNL     1      31.561 -12.976 -20.867  0.00  0.00    +0.022 C 
ATOM     15  C   UNL     1      32.700 -13.804 -21.406  0.00  0.00    -0.038 C 
ATOM     16  C   UNL     1      32.034 -13.847 -23.808  0.00  0.00    +0.009 C 
ATOM     17  C   UNL     1      34.374 -14.296 -23.225  0.00  0.00    -0.020 C 
ATOM     18  C   UNL     1      33.274 -14.743 -20.640  0.00  0.00    +0.034 C 
ATOM     19  C   UNL     1      34.951 -15.232 -22.465  0.00  0.00    +0.038 C 
ATOM     20  C   UNL     1      34.428 -15.530 -21.119  0.00  0.00    +0.195 C 
ENDROOT
BRANCH   6  21
ATOM     21  O   UNL     1      34.898  -7.493 -22.569  0.00  0.00    -0.380 OA
ATOM     22  H   UNL     1      35.384  -6.719 -22.894  0.00  0.00    +0.211 HD
ENDBRANCH   6  21
BRANCH   9  23
ATOM     23  O   UNL     1      33.219 -11.634 -25.270  0.00  0.00    -0.384 OA
ATOM     24  H   UNL     1      32.977 -12.573 -25.271  0.00  0.00    +0.210 HD
ENDBRANCH   9  23
BRANCH   6  26
ATOM     25  O   UNL     1      34.692  -6.588 -25.094  0.00  0.00    -0.290 OA
ATOM     26  C   UNL     1      33.723  -6.584 -24.337  0.00  0.00    +0.218 C 
BRANCH  26  27
ATOM     27  C   UNL     1      32.572  -5.613 -24.497  0.00  0.00    +0.274 C 
BRANCH  27  28
ATOM     28  O   UNL     1      32.323  -5.356 -25.863  0.00  0.00    -0.440 OA
BRANCH  28  30
ATOM     29  O   UNL     1      32.364  -3.078 -25.492  0.00  0.00    -0.250 OA
ATOM     30  C   UNL     1      32.370  -4.040 -26.249  0.00  0.00    +0.317 C 
BRANCH  30  31
ATOM     31  C   UNL     1      32.443  -3.926 -27.756  0.00  0.00    +0.110 C 
BRANCH  31  32
ATOM     32  C   UNL     1      33.841  -3.569 -28.306  0.00  0.00    +0.011 C 
ATOM     33  C   UNL     1      33.935  -4.095 -29.751  0.00  0.00    +0.001 C 
ATOM     34  C   UNL     1      34.951  -4.228 -27.472  0.00  0.00    +0.001 C 
ATOM     35  C   UNL     1      34.056  -2.046 -28.327  0.00  0.00    +0.001 C 
ENDBRANCH  31  32
ENDBRANCH  30  31
ENDBRANCH  28  30
ENDBRANCH  27  28
ENDBRANCH  26  27
ENDBRANCH   6  26
TORSDOF 8
ENDMDL
MODEL 5
REMARK VINA RESULT:      -7.2      2.075      9.747
REMARK  Name = 93055
REMARK  8 active torsions:
REMARK  status: ('A' for Active; 'I' for Inactive)
REMARK    1  A    between atoms: C_6  and  O_21
REMARK    2  A    between atoms: C_6  and  C_26
REMARK    3  A    between atoms: C_9  and  O_23
REMARK    4  A    between atoms: C_26  and  C_27
REMARK    5  A    between atoms: C_27  and  O_28
REMARK    6  A    between atoms: O_28  and  C_30
REMARK    7  A    between atoms: C_30  and  C_31
REMARK    8  A    between atoms: C_31  and  C_32
REMARK                            x       y       z     vdW  Elec       q    Type
REMARK                         _______ _______ _______ _____ _____    ______ ____
ROOT
ATOM      1  O   UNL     1      34.865 -16.365 -20.445  0.00  0.00    -0.287 OA
ATOM      2  C   UNL     1      33.404  -9.020 -23.846  0.00  0.00    +0.031 C 
ATOM      3  C   UNL     1      32.966  -9.540 -22.459  0.00  0.00    +0.003 C 
ATOM      4  C   UNL     1      32.449 -10.987 -22.481  0.00  0.00    +0.003 C 
ATOM      5  C   UNL     1      33.597 -11.924 -22.998  0.00  0.00    +0.034 C 
ATOM      6  C   UNL     1      33.787  -7.564 -23.461  0.00  0.00    +0.143 C 
ATOM      7  C   UNL     1      34.558  -9.919 -24.334  0.00  0.00    +0.032 C 
ATOM      8  C   UNL     1      32.048  -8.436 -21.941  0.00  0.00    +0.003 C 
ATOM      9  C   UNL     1      34.195 -11.420 -24.350  0.00  0.00    +0.111 C 
ATOM     10  C   UNL     1      33.189 -13.451 -22.946  0.00  0.00    +0.036 C 
ATOM     11  C   UNL     1      32.689  -7.134 -22.463  0.00  0.00    +0.034 C 
ATOM     12  C   UNL     1      31.975 -11.409 -21.079  0.00  0.00    +0.004 C 
ATOM     13  C   UNL     1      32.248  -8.996 -24.885  0.00  0.00    +0.003 C 
ATOM     14  C   UNL     1      31.574 -12.878 -21.020  0.00  0.00    +0.022 C 
ATOM     15  C   UNL     1      32.700 -13.745 -21.524  0.00  0.00    -0.038 C 
ATOM     16  C   UNL     1      32.062 -13.835 -23.932  0.00  0.00    +0.009 C 
ATOM     17  C   UNL     1      34.384 -14.321 -23.308  0.00  0.00    -0.020 C 
ATOM     18  C   UNL     1      33.242 -14.677 -20.727  0.00  0.00    +0.034 C 
ATOM     19  C   UNL     1      34.930 -15.250 -22.518  0.00  0.00    +0.038 C 
ATOM     20  C   UNL     1      34.384 -15.502 -21.172  0.00  0.00    +0.195 C 
ENDROOT
BRANCH   6  21
ATOM     21  O   UNL     1      35.057  -7.518 -22.817  0.00  0.00    -0.380 OA
ATOM     22  H   UNL     1      35.326  -8.415 -22.568  0.00  0.00    +0.211 HD
ENDBRANCH   6  21
BRANCH   9  23
ATOM     23  O   UNL     1      33.316 -11.686 -25.434  0.00  0.00    -0.384 OA
ATOM     24  H   UNL     1      33.800 -12.147 -26.138  0.00  0.00    +0.210 HD
ENDBRANCH   9  23
BRANCH   6  26
ATOM     25  O   UNL     1      34.959  -6.582 -25.287  0.00  0.00    -0.290 OA
ATOM     26  C   UNL     1      33.925  -6.627 -24.623  0.00  0.00    +0.218 C 
BRANCH  26  27
ATOM     27  C   UNL     1      32.726  -5.752 -24.925  0.00  0.00    +0.274 C 
BRANCH  27  28
ATOM     28  O   UNL     1      33.095  -4.672 -25.756  0.00  0.00    -0.440 OA
BRANCH  28  30
ATOM     29  O   UNL     1      32.058  -3.336 -27.327  0.00  0.00    -0.250 OA
ATOM     30  C   UNL     1      32.067  -3.903 -26.242  0.00  0.00    +0.317 C 
BRANCH  30  31
ATOM     31  C   UNL     1      30.923  -3.853 -25.254  0.00  0.00    +0.110 C 
BRANCH  31  32
ATOM     32  C   UNL     1      30.977  -2.665 -24.269  0.00  0.00    +0.011 C 
ATOM     33  C   UNL     1      32.208  -1.807 -24.622  0.00  0.00    +0.001 C 
ATOM     34  C   UNL     1      31.119  -3.152 -22.818  0.00  0.00    +0.001 C 
ATOM     35  C   UNL     1      29.720  -1.786 -24.390  0.00  0.00    +0.001 C 
ENDBRANCH  31  32
ENDBRANCH  30  31
ENDBRANCH  28  30
ENDBRANCH  27  28
ENDBRANCH  26  27
ENDBRANCH   6  26
TORSDOF 8
ENDMDL
MODEL 6
REMARK VINA RESULT:      -6.9      8.644     13.858
REMARK  Name = 93055
REMARK  8 active torsions:
REMARK  status: ('A' for Active; 'I' for Inactive)
REMARK    1  A    between atoms: C_6  and  O_21
REMARK    2  A    between atoms: C_6  and  C_26
REMARK    3  A    between atoms: C_9  and  O_23
REMARK    4  A    between atoms: C_26  and  C_27
REMARK    5  A    between atoms: C_27  and  O_28
REMARK    6  A    between atoms: O_28  and  C_30
REMARK    7  A    between atoms: C_30  and  C_31
REMARK    8  A    between atoms: C_31  and  C_32
REMARK                            x       y       z     vdW  Elec       q    Type
REMARK                         _______ _______ _______ _____ _____    ______ ____
ROOT
ATOM      1  O   UNL     1      33.500 -18.332 -21.495  0.00  0.00    -0.287 OA
ATOM      2  C   UNL     1      35.298 -23.542 -15.389  0.00  0.00    +0.031 C 
ATOM      3  C   UNL     1      36.210 -22.484 -16.050  0.00  0.00    +0.003 C 
ATOM      4  C   UNL     1      36.090 -22.440 -17.581  0.00  0.00    +0.003 C 
ATOM      5  C   UNL     1      34.607 -22.091 -17.960  0.00  0.00    +0.034 C 
ATOM      6  C   UNL     1      35.722 -23.352 -13.907  0.00  0.00    +0.143 C 
ATOM      7  C   UNL     1      33.840 -23.173 -15.731  0.00  0.00    +0.032 C 
ATOM      8  C   UNL     1      37.576 -22.755 -15.425  0.00  0.00    +0.003 C 
ATOM      9  C   UNL     1      33.587 -23.034 -17.249  0.00  0.00    +0.111 C 
ATOM     10  C   UNL     1      34.417 -21.912 -19.519  0.00  0.00    +0.036 C 
ATOM     11  C   UNL     1      37.254 -23.161 -13.971  0.00  0.00    +0.034 C 
ATOM     12  C   UNL     1      37.072 -21.410 -18.167  0.00  0.00    +0.004 C 
ATOM     13  C   UNL     1      35.618 -24.995 -15.839  0.00  0.00    +0.003 C 
ATOM     14  C   UNL     1      36.900 -21.235 -19.671  0.00  0.00    +0.022 C 
ATOM     15  C   UNL     1      35.467 -20.901 -19.995  0.00  0.00    -0.038 C 
ATOM     16  C   UNL     1      34.602 -23.215 -20.329  0.00  0.00    +0.009 C 
ATOM     17  C   UNL     1      33.007 -21.423 -19.819  0.00  0.00    -0.020 C 
ATOM     18  C   UNL     1      35.166 -19.755 -20.624  0.00  0.00    +0.034 C 
ATOM     19  C   UNL     1      32.701 -20.282 -20.444  0.00  0.00    +0.038 C 
ATOM     20  C   UNL     1      33.767 -19.373 -20.904  0.00  0.00    +0.195 C 
ENDROOT
BRANCH   6  21
ATOM     21  O   UNL     1      35.123 -22.188 -13.344  0.00  0.00    -0.380 OA
ATOM     22  H   UNL     1      34.507 -22.448 -12.642  0.00  0.00    +0.211 HD
ENDBRANCH   6  21
BRANCH   9  23
ATOM     23  O   UNL     1      33.570 -24.322 -17.849  0.00  0.00    -0.384 OA
ATOM     24  H   UNL     1      34.439 -24.507 -18.239  0.00  0.00    +0.210 HD
ENDBRANCH   9  23
BRANCH   6  26
ATOM     25  O   UNL     1      34.121 -24.751 -12.834  0.00  0.00    -0.290 OA
ATOM     26  C   UNL     1      35.306 -24.463 -12.991  0.00  0.00    +0.218 C 
BRANCH  26  27
ATOM     27  C   UNL     1      36.422 -25.201 -12.282  0.00  0.00    +0.274 C 
BRANCH  27  28
ATOM     28  O   UNL     1      36.606 -26.483 -12.844  0.00  0.00    -0.440 OA
BRANCH  28  30
ATOM     29  O   UNL     1      37.793 -27.366 -14.616  0.00  0.00    -0.250 OA
ATOM     30  C   UNL     1      37.720 -26.646 -13.628  0.00  0.00    +0.317 C 
BRANCH  30  31
ATOM     31  C   UNL     1      38.865 -25.801 -13.116  0.00  0.00    +0.110 C 
BRANCH  31  32
ATOM     32  C   UNL     1      40.035 -25.635 -14.110  0.00  0.00    +0.011 C 
ATOM     33  C   UNL     1      40.789 -24.340 -13.749  0.00  0.00    +0.001 C 
ATOM     34  C   UNL     1      39.524 -25.517 -15.555  0.00  0.00    +0.001 C 
ATOM     35  C   UNL     1      41.018 -26.814 -14.012  0.00  0.00    +0.001 C 
ENDBRANCH  31  32
ENDBRANCH  30  31
ENDBRANCH  28  30
ENDBRANCH  27  28
ENDBRANCH  26  27
ENDBRANCH   6  26
TORSDOF 8
ENDMDL
MODEL 7
REMARK VINA RESULT:      -6.4      2.081     10.116
REMARK  Name = 93055
REMARK  8 active torsions:
REMARK  status: ('A' for Active; 'I' for Inactive)
REMARK    1  A    between atoms: C_6  and  O_21
REMARK    2  A    between atoms: C_6  and  C_26
REMARK    3  A    between atoms: C_9  and  O_23
REMARK    4  A    between atoms: C_26  and  C_27
REMARK    5  A    between atoms: C_27  and  O_28
REMARK    6  A    between atoms: O_28  and  C_30
REMARK    7  A    between atoms: C_30  and  C_31
REMARK    8  A    between atoms: C_31  and  C_32
REMARK                            x       y       z     vdW  Elec       q    Type
REMARK                         _______ _______ _______ _____ _____    ______ ____
ROOT
ATOM      1  O   UNL     1      36.803 -22.196 -18.169  0.00  0.00    -0.287 OA
ATOM      2  C   UNL     1      33.913 -15.597 -22.139  0.00  0.00    +0.031 C 
ATOM      3  C   UNL     1      33.185 -16.498 -21.115  0.00  0.00    +0.003 C 
ATOM      4  C   UNL     1      33.440 -17.998 -21.326  0.00  0.00    +0.003 C 
ATOM      5  C   UNL     1      34.980 -18.272 -21.190  0.00  0.00    +0.034 C 
ATOM      6  C   UNL     1      33.388 -14.211 -21.675  0.00  0.00    +0.143 C 
ATOM      7  C   UNL     1      35.427 -15.841 -21.975  0.00  0.00    +0.032 C 
ATOM      8  C   UNL     1      31.750 -15.981 -21.146  0.00  0.00    +0.003 C 
ATOM      9  C   UNL     1      35.823 -17.328 -22.104  0.00  0.00    +0.111 C 
ATOM     10  C   UNL     1      35.321 -19.813 -21.281  0.00  0.00    +0.036 C 
ATOM     11  C   UNL     1      31.899 -14.459 -21.346  0.00  0.00    +0.034 C 
ATOM     12  C   UNL     1      32.635 -18.828 -20.311  0.00  0.00    +0.004 C 
ATOM     13  C   UNL     1      33.470 -15.856 -23.606  0.00  0.00    +0.003 C 
ATOM     14  C   UNL     1      32.953 -20.315 -20.395  0.00  0.00    +0.022 C 
ATOM     15  C   UNL     1      34.437 -20.538 -20.259  0.00  0.00    -0.038 C 
ATOM     16  C   UNL     1      35.059 -20.434 -22.671  0.00  0.00    +0.009 C 
ATOM     17  C   UNL     1      36.798 -20.037 -20.988  0.00  0.00    -0.020 C 
ATOM     18  C   UNL     1      34.918 -21.297 -19.264  0.00  0.00    +0.034 C 
ATOM     19  C   UNL     1      37.283 -20.791 -19.996  0.00  0.00    +0.038 C 
ATOM     20  C   UNL     1      36.370 -21.487 -19.071  0.00  0.00    +0.195 C 
ENDROOT
BRANCH   6  21
ATOM     21  O   UNL     1      34.064 -13.770 -20.501  0.00  0.00    -0.380 OA
ATOM     22  H   UNL     1      33.423 -13.649 -19.784  0.00  0.00    +0.211 HD
ENDBRANCH   6  21
BRANCH   9  23
ATOM     23  O   UNL     1      35.744 -17.725 -23.466  0.00  0.00    -0.384 OA
ATOM     24  H   UNL     1      35.603 -16.943 -24.023  0.00  0.00    +0.210 HD
ENDBRANCH   9  23
BRANCH   6  26
ATOM     25  O   UNL     1      34.657 -12.982 -23.272  0.00  0.00    -0.290 OA
ATOM     26  C   UNL     1      33.596 -13.103 -22.662  0.00  0.00    +0.218 C 
BRANCH  26  27
ATOM     27  C   UNL     1      32.433 -12.154 -22.860  0.00  0.00    +0.274 C 
BRANCH  27  28
ATOM     28  O   UNL     1      32.895 -10.866 -23.209  0.00  0.00    -0.440 OA
BRANCH  28  30
ATOM     29  O   UNL     1      31.782  -9.790 -21.497  0.00  0.00    -0.250 OA
ATOM     30  C   UNL     1      32.234  -9.809 -22.635  0.00  0.00    +0.317 C 
BRANCH  30  31
ATOM     31  C   UNL     1      32.143  -8.646 -23.598  0.00  0.00    +0.110 C 
BRANCH  31  32
ATOM     32  C   UNL     1      33.003  -7.424 -23.210  0.00  0.00    +0.011 C 
ATOM     33  C   UNL     1      32.760  -6.317 -24.255  0.00  0.00    +0.001 C 
ATOM     34  C   UNL     1      34.499  -7.775 -23.209  0.00  0.00    +0.001 C 
ATOM     35  C   UNL     1      32.606  -6.882 -21.826  0.00  0.00    +0.001 C 
ENDBRANCH  31  32
ENDBRANCH  30  31
ENDBRANCH  28  30
ENDBRANCH  27  28
ENDBRANCH  26  27
ENDBRANCH   6  26
TORSDOF 8
ENDMDL
