MODEL 1
REMARK VINA RESULT:      -8.1      0.000      0.000
REMARK  Name = 3080768
REMARK  10 active torsions:
REMARK  status: ('A' for Active; 'I' for Inactive)
REMARK    1  A    between atoms: N_2  and  CA_17
REMARK    2  A    between atoms: C_3  and  CA_7
REMARK    3  A    between atoms: C_11  and  CA_12
REMARK    4  A    between atoms: CA_12  and  N_13
REMARK    5  A    between atoms: CA_17  and  C_19
REMARK    6  A    between atoms: CA_17  and  CB_22
REMARK    7  A    between atoms: C_19  and  O_20
REMARK    8  A    between atoms: CB_22  and  CG_23
REMARK    9  A    between atoms: CG_23  and  CD_25
REMARK   10  A    between atoms: CD_25  and  OE1_26
REMARK                            x       y       z     vdW  Elec       q    Type
REMARK                         _______ _______ _______ _____ _____    ______ ____
ROOT
ATOM      1  O   PRO A   2      35.771 -24.892 -15.768  0.00  0.00    -0.273 OA
ATOM      2  N   GLU A   3      35.913 -23.817 -13.708  0.00  0.00    -0.295 N 
ATOM      3  C   PRO A   2      35.511 -23.949 -15.026  0.00  0.00    +0.241 C 
ATOM      4  H   GLU A   3      35.642 -23.010 -13.214  0.00  0.00    +0.150 HD
ENDROOT
BRANCH   3   7
ATOM      5  O   GLY A   1      36.964 -21.696 -16.821  0.00  0.00    -0.277 OA
ATOM      6  N   PRO A   2      34.864 -22.663 -16.920  0.00  0.00    -0.275 N 
ATOM      7  CA  PRO A   2      34.673 -22.793 -15.481  0.00  0.00    +0.152 C 
ATOM      8  CB  PRO A   2      33.183 -23.073 -15.314  0.00  0.00    +0.031 C 
ATOM      9  CG  PRO A   2      32.808 -23.787 -16.610  0.00  0.00    +0.024 C 
ATOM     10  CD  PRO A   2      33.678 -23.100 -17.652  0.00  0.00    +0.094 C 
ATOM     11  C   GLY A   1      35.980 -22.052 -17.471  0.00  0.00    +0.204 C 
BRANCH  11  12
ATOM     12  CA  GLY A   1      35.936 -21.844 -18.963  0.00  0.00    +0.001 C 
BRANCH  12  13
ATOM     13  N   GLY A   1      36.586 -20.576 -19.215  0.00  0.00    +0.386 N 
ATOM     14  H1  GLY A   1      37.483 -20.551 -18.729  0.00  0.00    -0.089 HD
ATOM     15  H2  GLY A   1      35.994 -19.818 -18.876  0.00  0.00    -0.089 HD
ATOM     16  H3  GLY A   1      36.739 -20.465 -20.217  0.00  0.00    -0.089 HD
ENDBRANCH  12  13
ENDBRANCH  11  12
ENDBRANCH   3   7
BRANCH   2  17
ATOM     17  CA  GLU A   3      36.712 -24.808 -13.023  0.00  0.00    +0.172 C 
BRANCH  17  19
ATOM     18  OXT GLU A   3      35.396 -25.252 -11.023  0.00  0.00    -0.248 OA
ATOM     19  C   GLU A   3      36.370 -24.731 -11.549  0.00  0.00    +0.332 C 
BRANCH  19  20
ATOM     20  O   GLU A   3      37.304 -24.036 -10.848  0.00  0.00    -0.479 OA
ATOM     21  H   GLU A   3      37.936 -24.493 -10.328  0.00  0.00    +0.295 HD
ENDBRANCH  19  20
ENDBRANCH  17  19
BRANCH  17  22
ATOM     22  CB  GLU A   3      38.210 -24.669 -13.319  0.00  0.00    +0.043 C 
BRANCH  22  23
ATOM     23  CG  GLU A   3      38.823 -25.768 -14.197  0.00  0.00    +0.112 C 
BRANCH  23  25
ATOM     24  OE2 GLU A   3      40.997 -24.670 -14.257  0.00  0.00    -0.250 OA
ATOM     25  CD  GLU A   3      40.169 -25.401 -14.783  0.00  0.00    +0.314 C 
BRANCH  25  26
ATOM     26  OE1 GLU A   3      40.348 -25.956 -16.011  0.00  0.00    -0.480 OA
ATOM     27  HE1 GLU A   3      40.023 -26.817 -16.187  0.00  0.00    +0.295 HD
ENDBRANCH  25  26
ENDBRANCH  23  25
ENDBRANCH  22  23
ENDBRANCH  17  22
ENDBRANCH   2  17
TORSDOF 10
ENDMDL
MODEL 2
REMARK VINA RESULT:      -7.8      2.265      2.798
REMARK  Name = 3080768
REMARK  10 active torsions:
REMARK  status: ('A' for Active; 'I' for Inactive)
REMARK    1  A    between atoms: N_2  and  CA_17
REMARK    2  A    between atoms: C_3  and  CA_7
REMARK    3  A    between atoms: C_11  and  CA_12
REMARK    4  A    between atoms: CA_12  and  N_13
REMARK    5  A    between atoms: CA_17  and  C_19
REMARK    6  A    between atoms: CA_17  and  CB_22
REMARK    7  A    between atoms: C_19  and  O_20
REMARK    8  A    between atoms: CB_22  and  CG_23
REMARK    9  A    between atoms: CG_23  and  CD_25
REMARK   10  A    between atoms: CD_25  and  OE1_26
REMARK                            x       y       z     vdW  Elec       q    Type
REMARK                         _______ _______ _______ _____ _____    ______ ____
ROOT
ATOM      1  O   PRO A   2      32.816 -25.093 -13.213  0.00  0.00    -0.273 OA
ATOM      2  N   GLU A   3      34.668 -23.685 -13.291  0.00  0.00    -0.295 N 
ATOM      3  C   PRO A   2      33.357 -24.044 -13.552  0.00  0.00    +0.241 C 
ATOM      4  H   GLU A   3      34.989 -22.813 -13.617  0.00  0.00    +0.150 HD
ENDROOT
BRANCH   3   7
ATOM      5  O   GLY A   1      34.786 -22.826 -16.175  0.00  0.00    -0.277 OA
ATOM      6  N   PRO A   2      32.588 -23.377 -15.702  0.00  0.00    -0.275 N 
ATOM      7  CA  PRO A   2      32.615 -22.978 -14.300  0.00  0.00    +0.152 C 
ATOM      8  CB  PRO A   2      31.148 -22.913 -13.888  0.00  0.00    +0.031 C 
ATOM      9  CG  PRO A   2      30.479 -23.942 -14.796  0.00  0.00    +0.024 C 
ATOM     10  CD  PRO A   2      31.253 -23.814 -16.100  0.00  0.00    +0.094 C 
ATOM     11  C   GLY A   1      33.671 -23.197 -16.548  0.00  0.00    +0.204 C 
BRANCH  11  12
ATOM     12  CA  GLY A   1      33.416 -23.499 -18.003  0.00  0.00    +0.001 C 
BRANCH  12  13
ATOM     13  N   GLY A   1      32.985 -22.256 -18.605  0.00  0.00    +0.386 N 
ATOM     14  H1  GLY A   1      32.251 -21.837 -18.033  0.00  0.00    -0.089 HD
ATOM     15  H2  GLY A   1      32.624 -22.439 -19.541  0.00  0.00    -0.089 HD
ATOM     16  H3  GLY A   1      33.776 -21.615 -18.665  0.00  0.00    -0.089 HD
ENDBRANCH  12  13
ENDBRANCH  11  12
ENDBRANCH   3   7
BRANCH   2  17
ATOM     17  CA  GLU A   3      35.589 -24.529 -12.564  0.00  0.00    +0.172 C 
BRANCH  17  19
ATOM     18  OXT GLU A   3      36.787 -22.769 -11.380  0.00  0.00    -0.248 OA
ATOM     19  C   GLU A   3      36.059 -23.753 -11.350  0.00  0.00    +0.332 C 
BRANCH  19  20
ATOM     20  O   GLU A   3      35.545 -24.255 -10.197  0.00  0.00    -0.479 OA
ATOM     21  H   GLU A   3      34.715 -23.953  -9.883  0.00  0.00    +0.295 HD
ENDBRANCH  19  20
ENDBRANCH  17  19
BRANCH  17  22
ATOM     22  CB  GLU A   3      36.730 -25.056 -13.442  0.00  0.00    +0.043 C 
BRANCH  22  23
ATOM     23  CG  GLU A   3      36.313 -25.653 -14.793  0.00  0.00    +0.112 C 
BRANCH  23  25
ATOM     24  OE2 GLU A   3      38.218 -27.168 -14.700  0.00  0.00    -0.250 OA
ATOM     25  CD  GLU A   3      37.193 -26.795 -15.252  0.00  0.00    +0.314 C 
BRANCH  25  26
ATOM     26  OE1 GLU A   3      36.728 -27.353 -16.401  0.00  0.00    -0.480 OA
ATOM     27  HE1 GLU A   3      37.312 -27.504 -17.118  0.00  0.00    +0.295 HD
ENDBRANCH  25  26
ENDBRANCH  23  25
ENDBRANCH  22  23
ENDBRANCH  17  22
ENDBRANCH   2  17
TORSDOF 10
ENDMDL
MODEL 3
REMARK VINA RESULT:      -7.8      3.505      6.514
REMARK  Name = 3080768
REMARK  10 active torsions:
REMARK  status: ('A' for Active; 'I' for Inactive)
REMARK    1  A    between atoms: N_2  and  CA_17
REMARK    2  A    between atoms: C_3  and  CA_7
REMARK    3  A    between atoms: C_11  and  CA_12
REMARK    4  A    between atoms: CA_12  and  N_13
REMARK    5  A    between atoms: CA_17  and  C_19
REMARK    6  A    between atoms: CA_17  and  CB_22
REMARK    7  A    between atoms: C_19  and  O_20
REMARK    8  A    between atoms: CB_22  and  CG_23
REMARK    9  A    between atoms: CG_23  and  CD_25
REMARK   10  A    between atoms: CD_25  and  OE1_26
REMARK                            x       y       z     vdW  Elec       q    Type
REMARK                         _______ _______ _______ _____ _____    ______ ____
ROOT
ATOM      1  O   PRO A   2      34.191 -23.889 -12.700  0.00  0.00    -0.273 OA
ATOM      2  N   GLU A   3      33.072 -24.201 -14.718  0.00  0.00    -0.295 N 
ATOM      3  C   PRO A   2      34.172 -24.237 -13.878  0.00  0.00    +0.241 C 
ATOM      4  H   GLU A   3      33.182 -24.507 -15.647  0.00  0.00    +0.150 HD
ENDROOT
BRANCH   3   7
ATOM      5  O   GLY A   1      34.818 -23.130 -16.839  0.00  0.00    -0.277 OA
ATOM      6  N   PRO A   2      36.167 -23.644 -15.030  0.00  0.00    -0.275 N 
ATOM      7  CA  PRO A   2      35.389 -24.784 -14.561  0.00  0.00    +0.152 C 
ATOM      8  CB  PRO A   2      36.310 -25.505 -13.583  0.00  0.00    +0.031 C 
ATOM      9  CG  PRO A   2      37.189 -24.385 -13.030  0.00  0.00    +0.024 C 
ATOM     10  CD  PRO A   2      37.374 -23.464 -14.227  0.00  0.00    +0.094 C 
ATOM     11  C   GLY A   1      35.848 -22.950 -16.186  0.00  0.00    +0.204 C 
BRANCH  11  12
ATOM     12  CA  GLY A   1      36.855 -21.916 -16.621  0.00  0.00    +0.001 C 
BRANCH  12  13
ATOM     13  N   GLY A   1      36.602 -21.670 -18.025  0.00  0.00    +0.386 N 
ATOM     14  H1  GLY A   1      36.115 -20.780 -18.132  0.00  0.00    -0.089 HD
ATOM     15  H2  GLY A   1      36.026 -22.421 -18.403  0.00  0.00    -0.089 HD
ATOM     16  H3  GLY A   1      37.488 -21.635 -18.529  0.00  0.00    -0.089 HD
ENDBRANCH  12  13
ENDBRANCH  11  12
ENDBRANCH   3   7
BRANCH   2  17
ATOM     17  CA  GLU A   3      31.770 -23.737 -14.295  0.00  0.00    +0.172 C 
BRANCH  17  19
ATOM     18  OXT GLU A   3      30.586 -25.807 -14.786  0.00  0.00    -0.248 OA
ATOM     19  C   GLU A   3      30.930 -24.957 -13.976  0.00  0.00    +0.332 C 
BRANCH  19  20
ATOM     20  O   GLU A   3      30.623 -25.029 -12.655  0.00  0.00    -0.479 OA
ATOM     21  H   GLU A   3      30.320 -24.267 -12.201  0.00  0.00    +0.295 HD
ENDBRANCH  19  20
ENDBRANCH  17  19
BRANCH  17  22
ATOM     22  CB  GLU A   3      31.122 -22.787 -15.310  0.00  0.00    +0.043 C 
BRANCH  22  23
ATOM     23  CG  GLU A   3      29.620 -22.534 -15.123  0.00  0.00    +0.112 C 
BRANCH  23  25
ATOM     24  OE2 GLU A   3      28.360 -21.950 -17.125  0.00  0.00    -0.250 OA
ATOM     25  CD  GLU A   3      28.797 -22.803 -16.365  0.00  0.00    +0.314 C 
BRANCH  25  26
ATOM     26  OE1 GLU A   3      28.555 -24.131 -16.526  0.00  0.00    -0.480 OA
ATOM     27  HE1 GLU A   3      29.121 -24.761 -16.127  0.00  0.00    +0.295 HD
ENDBRANCH  25  26
ENDBRANCH  23  25
ENDBRANCH  22  23
ENDBRANCH  17  22
ENDBRANCH   2  17
TORSDOF 10
ENDMDL
MODEL 4
REMARK VINA RESULT:      -7.7      2.756      6.727
REMARK  Name = 3080768
REMARK  10 active torsions:
REMARK  status: ('A' for Active; 'I' for Inactive)
REMARK    1  A    between atoms: N_2  and  CA_17
REMARK    2  A    between atoms: C_3  and  CA_7
REMARK    3  A    between atoms: C_11  and  CA_12
REMARK    4  A    between atoms: CA_12  and  N_13
REMARK    5  A    between atoms: CA_17  and  C_19
REMARK    6  A    between atoms: CA_17  and  CB_22
REMARK    7  A    between atoms: C_19  and  O_20
REMARK    8  A    between atoms: CB_22  and  CG_23
REMARK    9  A    between atoms: CG_23  and  CD_25
REMARK   10  A    between atoms: CD_25  and  OE1_26
REMARK                            x       y       z     vdW  Elec       q    Type
REMARK                         _______ _______ _______ _____ _____    ______ ____
ROOT
ATOM      1  O   PRO A   2      35.202 -24.860 -15.988  0.00  0.00    -0.273 OA
ATOM      2  N   GLU A   3      33.795 -23.018 -15.768  0.00  0.00    -0.295 N 
ATOM      3  C   PRO A   2      34.950 -23.746 -15.537  0.00  0.00    +0.241 C 
ATOM      4  H   GLU A   3      33.708 -22.132 -15.348  0.00  0.00    +0.150 HD
ENDROOT
BRANCH   3   7
ATOM      5  O   GLY A   1      34.232 -23.527 -12.400  0.00  0.00    -0.277 OA
ATOM      6  N   PRO A   2      36.221 -23.873 -13.531  0.00  0.00    -0.275 N 
ATOM      7  CA  PRO A   2      35.920 -23.008 -14.665  0.00  0.00    +0.152 C 
ATOM      8  CB  PRO A   2      37.262 -22.801 -15.360  0.00  0.00    +0.031 C 
ATOM      9  CG  PRO A   2      38.030 -24.081 -15.040  0.00  0.00    +0.024 C 
ATOM     10  CD  PRO A   2      37.572 -24.419 -13.628  0.00  0.00    +0.094 C 
ATOM     11  C   GLY A   1      35.367 -24.003 -12.447  0.00  0.00    +0.204 C 
BRANCH  11  12
ATOM     12  CA  GLY A   1      35.910 -24.795 -11.284  0.00  0.00    +0.001 C 
BRANCH  12  13
ATOM     13  N   GLY A   1      36.398 -23.826 -10.327  0.00  0.00    +0.386 N 
ATOM     14  H1  GLY A   1      37.092 -24.266  -9.722  0.00  0.00    -0.089 HD
ATOM     15  H2  GLY A   1      35.621 -23.485  -9.762  0.00  0.00    -0.089 HD
ATOM     16  H3  GLY A   1      36.827 -23.045 -10.823  0.00  0.00    -0.089 HD
ENDBRANCH  12  13
ENDBRANCH  11  12
ENDBRANCH   3   7
BRANCH   2  17
ATOM     17  CA  GLU A   3      32.712 -23.497 -16.596  0.00  0.00    +0.172 C 
BRANCH  17  19
ATOM     18  OXT GLU A   3      32.528 -22.024 -18.527  0.00  0.00    -0.248 OA
ATOM     19  C   GLU A   3      32.983 -23.039 -18.015  0.00  0.00    +0.332 C 
BRANCH  19  20
ATOM     20  O   GLU A   3      33.835 -23.874 -18.663  0.00  0.00    -0.479 OA
ATOM     21  H   GLU A   3      34.683 -24.051 -18.305  0.00  0.00    +0.295 HD
ENDBRANCH  19  20
ENDBRANCH  17  19
BRANCH  17  22
ATOM     22  CB  GLU A   3      31.334 -23.086 -16.066  0.00  0.00    +0.043 C 
BRANCH  22  23
ATOM     23  CG  GLU A   3      31.030 -23.483 -14.615  0.00  0.00    +0.112 C 
BRANCH  23  25
ATOM     24  OE2 GLU A   3      30.327 -25.815 -14.663  0.00  0.00    -0.250 OA
ATOM     25  CD  GLU A   3      31.152 -24.967 -14.350  0.00  0.00    +0.314 C 
BRANCH  25  26
ATOM     26  OE1 GLU A   3      32.293 -25.262 -13.672  0.00  0.00    -0.480 OA
ATOM     27  HE1 GLU A   3      32.922 -25.847 -14.046  0.00  0.00    +0.295 HD
ENDBRANCH  25  26
ENDBRANCH  23  25
ENDBRANCH  22  23
ENDBRANCH  17  22
ENDBRANCH   2  17
TORSDOF 10
ENDMDL
MODEL 5
REMARK VINA RESULT:      -7.6      3.245      7.430
REMARK  Name = 3080768
REMARK  10 active torsions:
REMARK  status: ('A' for Active; 'I' for Inactive)
REMARK    1  A    between atoms: N_2  and  CA_17
REMARK    2  A    between atoms: C_3  and  CA_7
REMARK    3  A    between atoms: C_11  and  CA_12
REMARK    4  A    between atoms: CA_12  and  N_13
REMARK    5  A    between atoms: CA_17  and  C_19
REMARK    6  A    between atoms: CA_17  and  CB_22
REMARK    7  A    between atoms: C_19  and  O_20
REMARK    8  A    between atoms: CB_22  and  CG_23
REMARK    9  A    between atoms: CG_23  and  CD_25
REMARK   10  A    between atoms: CD_25  and  OE1_26
REMARK                            x       y       z     vdW  Elec       q    Type
REMARK                         _______ _______ _______ _____ _____    ______ ____
ROOT
ATOM      1  O   PRO A   2      35.134 -24.730 -16.030  0.00  0.00    -0.273 OA
ATOM      2  N   GLU A   3      33.650 -22.987 -15.606  0.00  0.00    -0.295 N 
ATOM      3  C   PRO A   2      34.851 -23.666 -15.487  0.00  0.00    +0.241 C 
ATOM      4  H   GLU A   3      33.541 -22.139 -15.118  0.00  0.00    +0.150 HD
ENDROOT
BRANCH   3   7
ATOM      5  O   GLY A   1      34.164 -23.501 -12.339  0.00  0.00    -0.277 OA
ATOM      6  N   PRO A   2      36.143 -23.823 -13.496  0.00  0.00    -0.275 N 
ATOM      7  CA  PRO A   2      35.828 -22.940 -14.612  0.00  0.00    +0.152 C 
ATOM      8  CB  PRO A   2      37.162 -22.717 -15.317  0.00  0.00    +0.031 C 
ATOM      9  CG  PRO A   2      37.936 -24.001 -15.026  0.00  0.00    +0.024 C 
ATOM     10  CD  PRO A   2      37.494 -24.363 -13.616  0.00  0.00    +0.094 C 
ATOM     11  C   GLY A   1      35.301 -23.973 -12.405  0.00  0.00    +0.204 C 
BRANCH  11  12
ATOM     12  CA  GLY A   1      35.857 -24.784 -11.262  0.00  0.00    +0.001 C 
BRANCH  12  13
ATOM     13  N   GLY A   1      36.461 -23.836 -10.350  0.00  0.00    +0.386 N 
ATOM     14  H1  GLY A   1      37.388 -23.581 -10.689  0.00  0.00    -0.089 HD
ATOM     15  H2  GLY A   1      36.540 -24.257  -9.425  0.00  0.00    -0.089 HD
ATOM     16  H3  GLY A   1      35.878 -23.000 -10.294  0.00  0.00    -0.089 HD
ENDBRANCH  12  13
ENDBRANCH  11  12
ENDBRANCH   3   7
BRANCH   2  17
ATOM     17  CA  GLU A   3      32.550 -23.464 -16.412  0.00  0.00    +0.172 C 
BRANCH  17  19
ATOM     18  OXT GLU A   3      32.327 -22.041 -18.376  0.00  0.00    -0.248 OA
ATOM     19  C   GLU A   3      32.808 -23.032 -17.841  0.00  0.00    +0.332 C 
BRANCH  19  20
ATOM     20  O   GLU A   3      33.681 -23.861 -18.471  0.00  0.00    -0.479 OA
ATOM     21  H   GLU A   3      33.765 -23.832 -19.404  0.00  0.00    +0.295 HD
ENDBRANCH  19  20
ENDBRANCH  17  19
BRANCH  17  22
ATOM     22  CB  GLU A   3      31.184 -23.026 -15.870  0.00  0.00    +0.043 C 
BRANCH  22  23
ATOM     23  CG  GLU A   3      30.031 -24.016 -16.081  0.00  0.00    +0.112 C 
BRANCH  23  25
ATOM     24  OE2 GLU A   3      27.923 -24.059 -17.302  0.00  0.00    -0.250 OA
ATOM     25  CD  GLU A   3      28.844 -23.423 -16.807  0.00  0.00    +0.314 C 
BRANCH  25  26
ATOM     26  OE1 GLU A   3      28.932 -22.069 -16.888  0.00  0.00    -0.480 OA
ATOM     27  HE1 GLU A   3      28.239 -21.577 -17.280  0.00  0.00    +0.295 HD
ENDBRANCH  25  26
ENDBRANCH  23  25
ENDBRANCH  22  23
ENDBRANCH  17  22
ENDBRANCH   2  17
TORSDOF 10
ENDMDL
MODEL 6
REMARK VINA RESULT:      -7.6      1.647      3.410
REMARK  Name = 3080768
REMARK  10 active torsions:
REMARK  status: ('A' for Active; 'I' for Inactive)
REMARK    1  A    between atoms: N_2  and  CA_17
REMARK    2  A    between atoms: C_3  and  CA_7
REMARK    3  A    between atoms: C_11  and  CA_12
REMARK    4  A    between atoms: CA_12  and  N_13
REMARK    5  A    between atoms: CA_17  and  C_19
REMARK    6  A    between atoms: CA_17  and  CB_22
REMARK    7  A    between atoms: C_19  and  O_20
REMARK    8  A    between atoms: CB_22  and  CG_23
REMARK    9  A    between atoms: CG_23  and  CD_25
REMARK   10  A    between atoms: CD_25  and  OE1_26
REMARK                            x       y       z     vdW  Elec       q    Type
REMARK                         _______ _______ _______ _____ _____    ______ ____
ROOT
ATOM      1  O   PRO A   2      37.876 -22.984 -15.750  0.00  0.00    -0.273 OA
ATOM      2  N   GLU A   3      36.398 -24.300 -14.523  0.00  0.00    -0.295 N 
ATOM      3  C   PRO A   2      36.749 -23.229 -15.328  0.00  0.00    +0.241 C 
ATOM      4  H   GLU A   3      35.457 -24.389 -14.247  0.00  0.00    +0.150 HD
ENDROOT
BRANCH   3   7
ATOM      5  O   GLY A   1      37.171 -21.018 -17.639  0.00  0.00    -0.277 OA
ATOM      6  N   PRO A   2      35.408 -22.425 -17.120  0.00  0.00    -0.275 N 
ATOM      7  CA  PRO A   2      35.571 -22.369 -15.673  0.00  0.00    +0.152 C 
ATOM      8  CB  PRO A   2      34.271 -22.939 -15.116  0.00  0.00    +0.031 C 
ATOM      9  CG  PRO A   2      33.814 -23.909 -16.202  0.00  0.00    +0.024 C 
ATOM     10  CD  PRO A   2      34.239 -23.218 -17.489  0.00  0.00    +0.094 C 
ATOM     11  C   GLY A   1      36.190 -21.677 -17.987  0.00  0.00    +0.204 C 
BRANCH  11  12
ATOM     12  CA  GLY A   1      35.774 -21.717 -19.435  0.00  0.00    +0.001 C 
BRANCH  12  13
ATOM     13  N   GLY A   1      35.585 -20.340 -19.840  0.00  0.00    +0.386 N 
ATOM     14  H1  GLY A   1      36.396 -19.789 -19.559  0.00  0.00    -0.089 HD
ATOM     15  H2  GLY A   1      34.748 -19.966 -19.395  0.00  0.00    -0.089 HD
ATOM     16  H3  GLY A   1      35.479 -20.296 -20.854  0.00  0.00    -0.089 HD
ENDBRANCH  12  13
ENDBRANCH  11  12
ENDBRANCH   3   7
BRANCH   2  17
ATOM     17  CA  GLU A   3      37.346 -25.290 -14.068  0.00  0.00    +0.172 C 
BRANCH  17  19
ATOM     18  OXT GLU A   3      36.286 -26.704 -15.743  0.00  0.00    -0.248 OA
ATOM     19  C   GLU A   3      37.212 -26.500 -14.970  0.00  0.00    +0.332 C 
BRANCH  19  20
ATOM     20  O   GLU A   3      38.275 -27.339 -14.854  0.00  0.00    -0.479 OA
ATOM     21  H   GLU A   3      39.037 -27.207 -15.383  0.00  0.00    +0.295 HD
ENDBRANCH  19  20
ENDBRANCH  17  19
BRANCH  17  22
ATOM     22  CB  GLU A   3      37.198 -25.611 -12.576  0.00  0.00    +0.043 C 
BRANCH  22  23
ATOM     23  CG  GLU A   3      37.006 -24.404 -11.648  0.00  0.00    +0.112 C 
BRANCH  23  25
ATOM     24  OE2 GLU A   3      35.308 -24.813  -9.950  0.00  0.00    -0.250 OA
ATOM     25  CD  GLU A   3      35.630 -24.327 -11.025  0.00  0.00    +0.314 C 
BRANCH  25  26
ATOM     26  OE1 GLU A   3      34.752 -23.673 -11.832  0.00  0.00    -0.480 OA
ATOM     27  HE1 GLU A   3      34.503 -22.792 -11.635  0.00  0.00    +0.295 HD
ENDBRANCH  25  26
ENDBRANCH  23  25
ENDBRANCH  22  23
ENDBRANCH  17  22
ENDBRANCH   2  17
TORSDOF 10
ENDMDL
MODEL 7
REMARK VINA RESULT:      -7.3      4.201      6.572
REMARK  Name = 3080768
REMARK  10 active torsions:
REMARK  status: ('A' for Active; 'I' for Inactive)
REMARK    1  A    between atoms: N_2  and  CA_17
REMARK    2  A    between atoms: C_3  and  CA_7
REMARK    3  A    between atoms: C_11  and  CA_12
REMARK    4  A    between atoms: CA_12  and  N_13
REMARK    5  A    between atoms: CA_17  and  C_19
REMARK    6  A    between atoms: CA_17  and  CB_22
REMARK    7  A    between atoms: C_19  and  O_20
REMARK    8  A    between atoms: CB_22  and  CG_23
REMARK    9  A    between atoms: CG_23  and  CD_25
REMARK   10  A    between atoms: CD_25  and  OE1_26
REMARK                            x       y       z     vdW  Elec       q    Type
REMARK                         _______ _______ _______ _____ _____    ______ ____
ROOT
ATOM      1  O   PRO A   2      31.992 -22.593 -17.350  0.00  0.00    -0.273 OA
ATOM      2  N   GLU A   3      32.269 -23.837 -15.401  0.00  0.00    -0.295 N 
ATOM      3  C   PRO A   2      32.657 -23.336 -16.633  0.00  0.00    +0.241 C 
ATOM      4  H   GLU A   3      32.892 -24.427 -14.919  0.00  0.00    +0.150 HD
ENDROOT
BRANCH   3   7
ATOM      5  O   GLY A   1      33.551 -22.861 -19.696  0.00  0.00    -0.277 OA
ATOM      6  N   PRO A   2      34.680 -22.660 -17.685  0.00  0.00    -0.275 N 
ATOM      7  CA  PRO A   2      34.034 -23.784 -17.019  0.00  0.00    +0.152 C 
ATOM      8  CB  PRO A   2      34.903 -24.060 -15.796  0.00  0.00    +0.031 C 
ATOM      9  CG  PRO A   2      35.498 -22.693 -15.467  0.00  0.00    +0.024 C 
ATOM     10  CD  PRO A   2      35.709 -22.065 -16.837  0.00  0.00    +0.094 C 
ATOM     11  C   GLY A   1      34.430 -22.336 -19.009  0.00  0.00    +0.204 C 
BRANCH  11  12
ATOM     12  CA  GLY A   1      35.311 -21.260 -19.592  0.00  0.00    +0.001 C 
BRANCH  12  13
ATOM     13  N   GLY A   1      34.434 -20.372 -20.325  0.00  0.00    +0.386 N 
ATOM     14  H1  GLY A   1      34.847 -19.439 -20.360  0.00  0.00    -0.089 HD
ATOM     15  H2  GLY A   1      33.529 -20.326 -19.858  0.00  0.00    -0.089 HD
ATOM     16  H3  GLY A   1      34.309 -20.724 -21.274  0.00  0.00    -0.089 HD
ENDBRANCH  12  13
ENDBRANCH  11  12
ENDBRANCH   3   7
BRANCH   2  17
ATOM     17  CA  GLU A   3      30.994 -23.535 -14.792  0.00  0.00    +0.172 C 
BRANCH  17  19
ATOM     18  OXT GLU A   3      30.471 -24.165 -12.498  0.00  0.00    -0.248 OA
ATOM     19  C   GLU A   3      31.187 -23.565 -13.289  0.00  0.00    +0.332 C 
BRANCH  19  20
ATOM     20  O   GLU A   3      32.289 -22.869 -12.906  0.00  0.00    -0.479 OA
ATOM     21  H   GLU A   3      32.733 -22.317 -13.520  0.00  0.00    +0.295 HD
ENDBRANCH  19  20
ENDBRANCH  17  19
BRANCH  17  22
ATOM     22  CB  GLU A   3      29.868 -24.450 -15.290  0.00  0.00    +0.043 C 
BRANCH  22  23
ATOM     23  CG  GLU A   3      28.506 -23.777 -15.503  0.00  0.00    +0.112 C 
BRANCH  23  25
ATOM     24  OE2 GLU A   3      27.545 -23.821 -17.741  0.00  0.00    -0.250 OA
ATOM     25  CD  GLU A   3      28.280 -23.293 -16.919  0.00  0.00    +0.314 C 
BRANCH  25  26
ATOM     26  OE1 GLU A   3      29.036 -22.198 -17.199  0.00  0.00    -0.480 OA
ATOM     27  HE1 GLU A   3      29.913 -22.139 -16.876  0.00  0.00    +0.295 HD
ENDBRANCH  25  26
ENDBRANCH  23  25
ENDBRANCH  22  23
ENDBRANCH  17  22
ENDBRANCH   2  17
TORSDOF 10
ENDMDL
MODEL 8
REMARK VINA RESULT:      -7.3      2.681      6.186
REMARK  Name = 3080768
REMARK  10 active torsions:
REMARK  status: ('A' for Active; 'I' for Inactive)
REMARK    1  A    between atoms: N_2  and  CA_17
REMARK    2  A    between atoms: C_3  and  CA_7
REMARK    3  A    between atoms: C_11  and  CA_12
REMARK    4  A    between atoms: CA_12  and  N_13
REMARK    5  A    between atoms: CA_17  and  C_19
REMARK    6  A    between atoms: CA_17  and  CB_22
REMARK    7  A    between atoms: C_19  and  O_20
REMARK    8  A    between atoms: CB_22  and  CG_23
REMARK    9  A    between atoms: CG_23  and  CD_25
REMARK   10  A    between atoms: CD_25  and  OE1_26
REMARK                            x       y       z     vdW  Elec       q    Type
REMARK                         _______ _______ _______ _____ _____    ______ ____
ROOT
ATOM      1  O   PRO A   2      35.672 -22.595 -14.977  0.00  0.00    -0.273 OA
ATOM      2  N   GLU A   3      33.744 -23.847 -15.344  0.00  0.00    -0.295 N 
ATOM      3  C   PRO A   2      34.951 -23.558 -14.730  0.00  0.00    +0.241 C 
ATOM      4  H   GLU A   3      33.255 -24.652 -15.059  0.00  0.00    +0.150 HD
ENDROOT
BRANCH   3   7
ATOM      5  O   GLY A   1      36.639 -26.144 -15.663  0.00  0.00    -0.277 OA
ATOM      6  N   PRO A   2      36.737 -24.807 -13.777  0.00  0.00    -0.275 N 
ATOM      7  CA  PRO A   2      35.304 -24.560 -13.673  0.00  0.00    +0.152 C 
ATOM      8  CB  PRO A   2      35.109 -23.995 -12.270  0.00  0.00    +0.031 C 
ATOM      9  CG  PRO A   2      36.437 -23.300 -11.979  0.00  0.00    +0.024 C 
ATOM     10  CD  PRO A   2      37.458 -24.198 -12.662  0.00  0.00    +0.094 C 
ATOM     11  C   GLY A   1      37.280 -25.648 -14.735  0.00  0.00    +0.204 C 
BRANCH  11  12
ATOM     12  CA  GLY A   1      38.754 -25.930 -14.591  0.00  0.00    +0.001 C 
BRANCH  12  13
ATOM     13  N   GLY A   1      39.427 -25.058 -15.530  0.00  0.00    +0.386 N 
ATOM     14  H1  GLY A   1      39.762 -25.606 -16.322  0.00  0.00    -0.089 HD
ATOM     15  H2  GLY A   1      40.217 -24.608 -15.069  0.00  0.00    -0.089 HD
ATOM     16  H3  GLY A   1      38.775 -24.346 -15.860  0.00  0.00    -0.089 HD
ENDBRANCH  12  13
ENDBRANCH  11  12
ENDBRANCH   3   7
BRANCH   2  17
ATOM     17  CA  GLU A   3      33.168 -23.022 -16.381  0.00  0.00    +0.172 C 
BRANCH  17  19
ATOM     18  OXT GLU A   3      30.857 -22.652 -17.057  0.00  0.00    -0.248 OA
ATOM     19  C   GLU A   3      31.660 -23.130 -16.267  0.00  0.00    +0.332 C 
BRANCH  19  20
ATOM     20  O   GLU A   3      31.285 -23.863 -15.186  0.00  0.00    -0.479 OA
ATOM     21  H   GLU A   3      31.409 -23.522 -14.322  0.00  0.00    +0.295 HD
ENDBRANCH  19  20
ENDBRANCH  17  19
BRANCH  17  22
ATOM     22  CB  GLU A   3      33.708 -23.361 -17.776  0.00  0.00    +0.043 C 
BRANCH  22  23
ATOM     23  CG  GLU A   3      34.569 -22.278 -18.440  0.00  0.00    +0.112 C 
BRANCH  23  25
ATOM     24  OE2 GLU A   3      32.739 -21.783 -19.970  0.00  0.00    -0.250 OA
ATOM     25  CD  GLU A   3      33.875 -21.559 -19.576  0.00  0.00    +0.314 C 
BRANCH  25  26
ATOM     26  OE1 GLU A   3      34.689 -20.637 -20.155  0.00  0.00    -0.480 OA
ATOM     27  HE1 GLU A   3      35.563 -20.870 -20.398  0.00  0.00    +0.295 HD
ENDBRANCH  25  26
ENDBRANCH  23  25
ENDBRANCH  22  23
ENDBRANCH  17  22
ENDBRANCH   2  17
TORSDOF 10
ENDMDL
MODEL 9
REMARK VINA RESULT:      -7.3      6.665     10.840
REMARK  Name = 3080768
REMARK  10 active torsions:
REMARK  status: ('A' for Active; 'I' for Inactive)
REMARK    1  A    between atoms: N_2  and  CA_17
REMARK    2  A    between atoms: C_3  and  CA_7
REMARK    3  A    between atoms: C_11  and  CA_12
REMARK    4  A    between atoms: CA_12  and  N_13
REMARK    5  A    between atoms: CA_17  and  C_19
REMARK    6  A    between atoms: CA_17  and  CB_22
REMARK    7  A    between atoms: C_19  and  O_20
REMARK    8  A    between atoms: CB_22  and  CG_23
REMARK    9  A    between atoms: CG_23  and  CD_25
REMARK   10  A    between atoms: CD_25  and  OE1_26
REMARK                            x       y       z     vdW  Elec       q    Type
REMARK                         _______ _______ _______ _____ _____    ______ ____
ROOT
ATOM      1  O   PRO A   2      35.704 -17.484 -20.338  0.00  0.00    -0.273 OA
ATOM      2  N   GLU A   3      34.262 -16.973 -22.093  0.00  0.00    -0.295 N 
ATOM      3  C   PRO A   2      34.999 -17.822 -21.285  0.00  0.00    +0.241 C 
ATOM      4  H   GLU A   3      33.733 -17.364 -22.825  0.00  0.00    +0.150 HD
ENDROOT
BRANCH   3   7
ATOM      5  O   GLY A   1      37.419 -19.829 -20.560  0.00  0.00    -0.277 OA
ATOM      6  N   PRO A   2      35.117 -20.061 -20.490  0.00  0.00    -0.275 N 
ATOM      7  CA  PRO A   2      34.833 -19.260 -21.674  0.00  0.00    +0.152 C 
ATOM      8  CB  PRO A   2      33.386 -19.589 -22.025  0.00  0.00    +0.031 C 
ATOM      9  CG  PRO A   2      32.763 -19.937 -20.676  0.00  0.00    +0.024 C 
ATOM     10  CD  PRO A   2      33.895 -20.641 -19.941  0.00  0.00    +0.094 C 
ATOM     11  C   GLY A   1      36.409 -20.338 -20.071  0.00  0.00    +0.204 C 
BRANCH  11  12
ATOM     12  CA  GLY A   1      36.526 -21.324 -18.936  0.00  0.00    +0.001 C 
BRANCH  12  13
ATOM     13  N   GLY A   1      37.085 -20.591 -17.820  0.00  0.00    +0.386 N 
ATOM     14  H1  GLY A   1      36.437 -19.856 -17.536  0.00  0.00    -0.089 HD
ATOM     15  H2  GLY A   1      37.973 -20.174 -18.098  0.00  0.00    -0.089 HD
ATOM     16  H3  GLY A   1      37.240 -21.229 -17.038  0.00  0.00    -0.089 HD
ENDBRANCH  12  13
ENDBRANCH  11  12
ENDBRANCH   3   7
BRANCH   2  17
ATOM     17  CA  GLU A   3      34.232 -15.539 -21.912  0.00  0.00    +0.172 C 
BRANCH  17  19
ATOM     18  OXT GLU A   3      32.012 -15.977 -21.011  0.00  0.00    -0.248 OA
ATOM     19  C   GLU A   3      32.925 -15.192 -21.229  0.00  0.00    +0.332 C 
BRANCH  19  20
ATOM     20  O   GLU A   3      32.887 -13.890 -20.841  0.00  0.00    -0.479 OA
ATOM     21  H   GLU A   3      33.632 -13.338 -20.975  0.00  0.00    +0.295 HD
ENDBRANCH  19  20
ENDBRANCH  17  19
BRANCH  17  22
ATOM     22  CB  GLU A   3      34.471 -14.772 -23.218  0.00  0.00    +0.043 C 
BRANCH  22  23
ATOM     23  CG  GLU A   3      33.361 -14.882 -24.271  0.00  0.00    +0.112 C 
BRANCH  23  25
ATOM     24  OE2 GLU A   3      33.453 -15.434 -26.642  0.00  0.00    -0.250 OA
ATOM     25  CD  GLU A   3      33.750 -15.697 -25.485  0.00  0.00    +0.314 C 
BRANCH  25  26
ATOM     26  OE1 GLU A   3      34.453 -16.808 -25.137  0.00  0.00    -0.480 OA
ATOM     27  HE1 GLU A   3      35.131 -16.749 -24.494  0.00  0.00    +0.295 HD
ENDBRANCH  25  26
ENDBRANCH  23  25
ENDBRANCH  22  23
ENDBRANCH  17  22
ENDBRANCH   2  17
TORSDOF 10
ENDMDL
