MODEL 1
REMARK VINA RESULT:      -9.1      0.000      0.000
REMARK  Name = 91668
REMARK  3 active torsions:
REMARK  status: ('A' for Active; 'I' for Inactive)
REMARK    1  A    between atoms: C_5  and  C_22
REMARK    2  A    between atoms: C_5  and  O_24
REMARK    3  A    between atoms: O_24  and  C_26
REMARK                            x       y       z     vdW  Elec       q    Type
REMARK                         _______ _______ _______ _____ _____    ______ ____
ROOT
ATOM      1  O   UNL     1      35.507 -24.617 -13.186  0.00  0.00    -0.291 OA
ATOM      2  C   UNL     1      35.417 -20.380 -20.589  0.00  0.00    +0.040 C 
ATOM      3  C   UNL     1      34.144 -20.702 -19.763  0.00  0.00    +0.008 C 
ATOM      4  C   UNL     1      34.295 -21.980 -18.928  0.00  0.00    +0.022 C 
ATOM      5  C   UNL     1      34.917 -19.130 -21.358  0.00  0.00    +0.186 C 
ATOM      6  C   UNL     1      35.468 -21.766 -17.930  0.00  0.00    +0.008 C 
ATOM      7  C   UNL     1      36.576 -20.160 -19.601  0.00  0.00    +0.004 C 
ATOM      8  C   UNL     1      33.027 -20.620 -20.803  0.00  0.00    +0.004 C 
ATOM      9  C   UNL     1      36.769 -21.365 -18.661  0.00  0.00    +0.001 C 
ATOM     10  C   UNL     1      33.465 -19.482 -21.748  0.00  0.00    +0.047 C 
ATOM     11  C   UNL     1      35.599 -23.023 -17.029  0.00  0.00    +0.023 C 
ATOM     12  C   UNL     1      35.806 -21.503 -21.592  0.00  0.00    +0.004 C 
ATOM     13  C   UNL     1      33.046 -22.367 -18.186  0.00  0.00    -0.031 C 
ATOM     14  C   UNL     1      34.292 -23.272 -16.263  0.00  0.00    -0.024 C 
ATOM     15  C   UNL     1      36.799 -22.912 -16.072  0.00  0.00    +0.012 C 
ATOM     16  C   UNL     1      33.038 -22.940 -16.966  0.00  0.00    -0.030 C 
ATOM     17  C   UNL     1      36.842 -24.071 -15.092  0.00  0.00    +0.069 C 
ATOM     18  C   UNL     1      34.293 -23.771 -15.013  0.00  0.00    +0.033 C 
ATOM     19  C   UNL     1      31.716 -23.284 -16.327  0.00  0.00    +0.030 C 
ATOM     20  C   UNL     1      35.550 -24.166 -14.328  0.00  0.00    +0.173 C 
ENDROOT
BRANCH   5  22
ATOM     21  O   UNL     1      36.944 -18.398 -22.383  0.00  0.00    -0.292 OA
ATOM     22  C   UNL     1      35.775 -18.750 -22.528  0.00  0.00    +0.187 C 
ATOM     23  C   UNL     1      35.135 -18.823 -23.887  0.00  0.00    +0.076 C 
ENDBRANCH   5  22
BRANCH   5  24
ATOM     24  O   UNL     1      34.913 -17.981 -20.516  0.00  0.00    -0.449 OA
BRANCH  24  26
ATOM     25  O   UNL     1      32.813 -17.056 -20.775  0.00  0.00    -0.250 OA
ATOM     26  C   UNL     1      34.032 -16.996 -20.861  0.00  0.00    +0.318 C 
ATOM     27  C   UNL     1      34.780 -15.801 -21.370  0.00  0.00    +0.121 C 
ENDBRANCH  24  26
ENDBRANCH   5  24
TORSDOF 3
ENDMDL
MODEL 2
REMARK VINA RESULT:      -7.9      4.758      8.231
REMARK  Name = 91668
REMARK  3 active torsions:
REMARK  status: ('A' for Active; 'I' for Inactive)
REMARK    1  A    between atoms: C_5  and  C_22
REMARK    2  A    between atoms: C_5  and  O_24
REMARK    3  A    between atoms: O_24  and  C_26
REMARK                            x       y       z     vdW  Elec       q    Type
REMARK                         _______ _______ _______ _____ _____    ______ ____
ROOT
ATOM      1  O   UNL     1      27.573 -22.978 -16.229  0.00  0.00    -0.291 OA
ATOM      2  C   UNL     1      35.672 -24.625 -14.120  0.00  0.00    +0.040 C 
ATOM      3  C   UNL     1      35.254 -23.587 -15.194  0.00  0.00    +0.008 C 
ATOM      4  C   UNL     1      33.923 -23.944 -15.867  0.00  0.00    +0.022 C 
ATOM      5  C   UNL     1      37.049 -24.037 -13.714  0.00  0.00    +0.186 C 
ATOM      6  C   UNL     1      32.820 -23.967 -14.772  0.00  0.00    +0.008 C 
ATOM      7  C   UNL     1      34.586 -24.641 -13.031  0.00  0.00    +0.004 C 
ATOM      8  C   UNL     1      36.511 -23.451 -16.052  0.00  0.00    +0.004 C 
ATOM      9  C   UNL     1      33.188 -24.923 -13.615  0.00  0.00    +0.001 C 
ATOM     10  C   UNL     1      37.676 -23.588 -15.051  0.00  0.00    +0.047 C 
ATOM     11  C   UNL     1      31.452 -24.263 -15.441  0.00  0.00    +0.023 C 
ATOM     12  C   UNL     1      35.852 -26.063 -14.684  0.00  0.00    +0.004 C 
ATOM     13  C   UNL     1      33.536 -23.004 -16.975  0.00  0.00    -0.031 C 
ATOM     14  C   UNL     1      31.128 -23.196 -16.496  0.00  0.00    -0.024 C 
ATOM     15  C   UNL     1      30.326 -24.384 -14.398  0.00  0.00    +0.012 C 
ATOM     16  C   UNL     1      32.267 -22.648 -17.255  0.00  0.00    -0.030 C 
ATOM     17  C   UNL     1      28.966 -24.528 -15.058  0.00  0.00    +0.069 C 
ATOM     18  C   UNL     1      29.865 -22.785 -16.716  0.00  0.00    +0.033 C 
ATOM     19  C   UNL     1      32.009 -21.697 -18.397  0.00  0.00    +0.030 C 
ATOM     20  C   UNL     1      28.710 -23.382 -15.998  0.00  0.00    +0.173 C 
ENDROOT
BRANCH   5  22
ATOM     21  O   UNL     1      37.500 -25.554 -11.928  0.00  0.00    -0.292 OA
ATOM     22  C   UNL     1      37.912 -24.985 -12.937  0.00  0.00    +0.187 C 
ATOM     23  C   UNL     1      39.307 -25.209 -13.455  0.00  0.00    +0.076 C 
ENDBRANCH   5  22
BRANCH   5  24
ATOM     24  O   UNL     1      36.889 -22.904 -12.864  0.00  0.00    -0.449 OA
BRANCH  24  26
ATOM     25  O   UNL     1      38.841 -22.712 -11.644  0.00  0.00    -0.250 OA
ATOM     26  C   UNL     1      37.636 -22.911 -11.721  0.00  0.00    +0.318 C 
ATOM     27  C   UNL     1      36.757 -23.203 -10.542  0.00  0.00    +0.121 C 
ENDBRANCH  24  26
ENDBRANCH   5  24
TORSDOF 3
ENDMDL
MODEL 3
REMARK VINA RESULT:      -6.3      1.986      7.986
REMARK  Name = 91668
REMARK  3 active torsions:
REMARK  status: ('A' for Active; 'I' for Inactive)
REMARK    1  A    between atoms: C_5  and  C_22
REMARK    2  A    between atoms: C_5  and  O_24
REMARK    3  A    between atoms: O_24  and  C_26
REMARK                            x       y       z     vdW  Elec       q    Type
REMARK                         _______ _______ _______ _____ _____    ______ ____
ROOT
ATOM      1  O   UNL     1      35.328 -19.393 -22.576  0.00  0.00    -0.291 OA
ATOM      2  C   UNL     1      37.037 -23.322 -15.200  0.00  0.00    +0.040 C 
ATOM      3  C   UNL     1      35.780 -23.612 -16.062  0.00  0.00    +0.008 C 
ATOM      4  C   UNL     1      35.341 -22.395 -16.886  0.00  0.00    +0.022 C 
ATOM      5  C   UNL     1      37.157 -24.675 -14.453  0.00  0.00    +0.186 C 
ATOM      6  C   UNL     1      36.503 -22.022 -17.849  0.00  0.00    +0.008 C 
ATOM      7  C   UNL     1      38.190 -22.961 -16.154  0.00  0.00    +0.004 C 
ATOM      8  C   UNL     1      34.805 -24.222 -15.056  0.00  0.00    +0.004 C 
ATOM      9  C   UNL     1      37.824 -21.787 -17.082  0.00  0.00    +0.001 C 
ATOM     10  C   UNL     1      35.698 -25.044 -14.105  0.00  0.00    +0.047 C 
ATOM     11  C   UNL     1      36.057 -20.832 -18.740  0.00  0.00    +0.023 C 
ATOM     12  C   UNL     1      36.837 -22.165 -14.180  0.00  0.00    +0.004 C 
ATOM     13  C   UNL     1      34.073 -22.619 -17.663  0.00  0.00    -0.031 C 
ATOM     14  C   UNL     1      34.802 -21.204 -19.543  0.00  0.00    -0.024 C 
ATOM     15  C   UNL     1      37.194 -20.356 -19.661  0.00  0.00    +0.012 C 
ATOM     16  C   UNL     1      33.829 -22.092 -18.879  0.00  0.00    -0.030 C 
ATOM     17  C   UNL     1      36.718 -19.291 -20.633  0.00  0.00    +0.069 C 
ATOM     18  C   UNL     1      34.602 -20.738 -20.790  0.00  0.00    +0.033 C 
ATOM     19  C   UNL     1      32.514 -22.389 -19.555  0.00  0.00    +0.030 C 
ATOM     20  C   UNL     1      35.548 -19.793 -21.435  0.00  0.00    +0.173 C 
ENDROOT
BRANCH   5  22
ATOM     21  O   UNL     1      39.288 -24.634 -13.380  0.00  0.00    -0.292 OA
ATOM     22  C   UNL     1      38.064 -24.635 -13.259  0.00  0.00    +0.187 C 
ATOM     23  C   UNL     1      37.404 -24.593 -11.909  0.00  0.00    +0.076 C 
ENDBRANCH   5  22
BRANCH   5  24
ATOM     24  O   UNL     1      37.707 -25.679 -15.300  0.00  0.00    -0.449 OA
BRANCH  24  26
ATOM     25  O   UNL     1      36.450 -27.313 -16.343  0.00  0.00    -0.250 OA
ATOM     26  C   UNL     1      37.011 -26.853 -15.357  0.00  0.00    +0.318 C 
ATOM     27  C   UNL     1      37.028 -27.519 -14.015  0.00  0.00    +0.121 C 
ENDBRANCH  24  26
ENDBRANCH   5  24
TORSDOF 3
ENDMDL
