MODEL 1
REMARK VINA RESULT:     -10.5      0.000      0.000
REMARK  Name = 42628075
REMARK  8 active torsions:
REMARK  status: ('A' for Active; 'I' for Inactive)
REMARK    1  A    between atoms: C_1  and  C_5
REMARK    2  A    between atoms: C_1  and  C_13
REMARK    3  A    between atoms: C_1  and  C_21
REMARK    4  A    between atoms: N_4  and  C_7
REMARK    5  A    between atoms: C_18  and  O_19
REMARK    6  A    between atoms: C_21  and  C_22
REMARK    7  A    between atoms: C_23  and  O_31
REMARK    8  A    between atoms: C_25  and  N_30
REMARK                            x       y       z     vdW  Elec       q    Type
REMARK                         _______ _______ _______ _____ _____    ______ ____
ROOT
ATOM      1  C   UNL     1      34.804 -23.667 -15.200  0.00  0.00    +0.064 C 
ENDROOT
BRANCH   1   4
ATOM      2  N   UNL     1      32.802 -24.633 -13.950  0.00  0.00    -0.308 N 
ATOM      3  N   UNL     1      31.142 -23.219 -14.372  0.00  0.00    -0.305 N 
ATOM      4  C   UNL     1      33.333 -23.662 -14.752  0.00  0.00    +0.042 C 
ATOM      5  C   UNL     1      32.289 -22.801 -14.999  0.00  0.00    +0.070 C 
ATOM      6  C   UNL     1      31.484 -24.324 -13.749  0.00  0.00    +0.204 C 
ATOM      7  H   UNL     1      33.280 -25.411 -13.583  0.00  0.00    +0.149 HD
ATOM      8  H   UNL     1      30.259 -22.785 -14.386  0.00  0.00    +0.150 HD
BRANCH   6   9
ATOM      9  N   UNL     1      30.743 -25.148 -12.977  0.00  0.00    -0.291 NA
ATOM     10  H   UNL     1      30.194 -25.851 -13.393  0.00  0.00    +0.122 HD
ATOM     11  H   UNL     1      30.749 -25.044 -11.999  0.00  0.00    +0.122 HD
ENDBRANCH   6   9
ENDBRANCH   1   4
BRANCH   1  13
ATOM     12  F   UNL     1      33.218 -22.413 -19.626  0.00  0.00    -0.201 F 
ATOM     13  C   UNL     1      35.012 -22.999 -16.517  0.00  0.00    -0.014 C 
ATOM     14  C   UNL     1      33.999 -23.017 -17.476  0.00  0.00    +0.029 C 
ATOM     15  C   UNL     1      36.220 -22.355 -16.790  0.00  0.00    -0.001 C 
ATOM     16  C   UNL     1      34.195 -22.392 -18.708  0.00  0.00    +0.174 C 
ATOM     17  C   UNL     1      36.415 -21.731 -18.021  0.00  0.00    +0.039 C 
ATOM     18  C   UNL     1      35.401 -21.749 -18.980  0.00  0.00    +0.166 C 
BRANCH  18  19
ATOM     19  O   UNL     1      35.593 -21.137 -20.181  0.00  0.00    -0.469 OA
ATOM     20  C   UNL     1      36.587 -20.116 -20.239  0.00  0.00    +0.253 C 
ENDBRANCH  18  19
ENDBRANCH   1  13
BRANCH   1  21
ATOM     21  C   UNL     1      35.407 -25.109 -15.106  0.00  0.00    +0.040 C 
BRANCH  21  22
ATOM     22  C   UNL     1      36.697 -25.152 -14.317  0.00  0.00    +0.014 C 
ATOM     23  C   UNL     1      36.678 -25.167 -12.923  0.00  0.00    +0.135 C 
ATOM     24  C   UNL     1      37.914 -25.175 -15.000  0.00  0.00    +0.023 C 
ATOM     25  C   UNL     1      39.112 -25.212 -14.287  0.00  0.00    +0.143 C 
ATOM     26  C   UNL     1      37.877 -25.206 -12.209  0.00  0.00    +0.038 C 
ATOM     27  C   UNL     1      39.094 -25.229 -12.892  0.00  0.00    +0.027 C 
BRANCH  25  30
ATOM     28  O   UNL     1      41.231 -24.394 -14.685  0.00  0.00    -0.126 OA
ATOM     29  O   UNL     1      40.531 -26.105 -15.869  0.00  0.00    -0.126 OA
ATOM     30  N   UNL     1      40.351 -25.239 -14.980  0.00  0.00    +0.058 N 
ENDBRANCH  25  30
BRANCH  23  31
ATOM     31  O   UNL     1      35.499 -25.145 -12.241  0.00  0.00    -0.472 OA
ATOM     32  C   UNL     1      35.477 -24.428 -11.009  0.00  0.00    +0.252 C 
ENDBRANCH  23  31
ENDBRANCH  21  22
ENDBRANCH   1  21
TORSDOF 8
ENDMDL
MODEL 2
REMARK VINA RESULT:     -10.1      3.340      6.825
REMARK  Name = 42628075
REMARK  8 active torsions:
REMARK  status: ('A' for Active; 'I' for Inactive)
REMARK    1  A    between atoms: C_1  and  C_5
REMARK    2  A    between atoms: C_1  and  C_13
REMARK    3  A    between atoms: C_1  and  C_21
REMARK    4  A    between atoms: N_4  and  C_7
REMARK    5  A    between atoms: C_18  and  O_19
REMARK    6  A    between atoms: C_21  and  C_22
REMARK    7  A    between atoms: C_23  and  O_31
REMARK    8  A    between atoms: C_25  and  N_30
REMARK                            x       y       z     vdW  Elec       q    Type
REMARK                         _______ _______ _______ _____ _____    ______ ____
ROOT
ATOM      1  C   UNL     1      33.462 -23.130 -16.147  0.00  0.00    +0.064 C 
ENDROOT
BRANCH   1   4
ATOM      2  N   UNL     1      34.210 -23.366 -13.720  0.00  0.00    -0.308 N 
ATOM      3  N   UNL     1      35.560 -25.129 -13.718  0.00  0.00    -0.305 N 
ATOM      4  C   UNL     1      34.247 -23.809 -15.011  0.00  0.00    +0.042 C 
ATOM      5  C   UNL     1      35.087 -24.899 -14.986  0.00  0.00    +0.070 C 
ATOM      6  C   UNL     1      35.014 -24.189 -12.980  0.00  0.00    +0.204 C 
ATOM      7  H   UNL     1      33.699 -22.595 -13.383  0.00  0.00    +0.149 HD
ATOM      8  H   UNL     1      36.174 -25.842 -13.427  0.00  0.00    +0.150 HD
BRANCH   6   9
ATOM      9  N   UNL     1      35.137 -23.947 -11.657  0.00  0.00    -0.291 NA
ATOM     10  H   UNL     1      35.591 -24.600 -11.077  0.00  0.00    +0.122 HD
ATOM     11  H   UNL     1      34.771 -23.118 -11.273  0.00  0.00    +0.122 HD
ENDBRANCH   6   9
ENDBRANCH   1   4
BRANCH   1  13
ATOM     12  F   UNL     1      29.571 -24.814 -13.759  0.00  0.00    -0.201 F 
ATOM     13  C   UNL     1      31.984 -23.228 -15.969  0.00  0.00    -0.014 C 
ATOM     14  C   UNL     1      31.455 -23.989 -14.927  0.00  0.00    +0.029 C 
ATOM     15  C   UNL     1      31.131 -22.556 -16.846  0.00  0.00    -0.001 C 
ATOM     16  C   UNL     1      30.073 -24.080 -14.762  0.00  0.00    +0.174 C 
ATOM     17  C   UNL     1      29.749 -22.647 -16.680  0.00  0.00    +0.039 C 
ATOM     18  C   UNL     1      29.220 -23.410 -15.638  0.00  0.00    +0.166 C 
BRANCH  18  19
ATOM     19  O   UNL     1      27.872 -23.496 -15.477  0.00  0.00    -0.469 OA
ATOM     20  C   UNL     1      27.103 -22.339 -15.803  0.00  0.00    +0.253 C 
ENDBRANCH  18  19
ENDBRANCH   1  13
BRANCH   1  21
ATOM     21  C   UNL     1      33.977 -23.614 -17.543  0.00  0.00    +0.040 C 
BRANCH  21  22
ATOM     22  C   UNL     1      34.573 -22.493 -18.366  0.00  0.00    +0.014 C 
ATOM     23  C   UNL     1      35.899 -22.101 -18.180  0.00  0.00    +0.135 C 
ATOM     24  C   UNL     1      33.781 -21.849 -19.317  0.00  0.00    +0.023 C 
ATOM     25  C   UNL     1      34.316 -20.812 -20.082  0.00  0.00    +0.143 C 
ATOM     26  C   UNL     1      36.434 -21.065 -18.946  0.00  0.00    +0.038 C 
ATOM     27  C   UNL     1      35.642 -20.421 -19.897  0.00  0.00    +0.027 C 
BRANCH  25  30
ATOM     28  O   UNL     1      32.264 -20.282 -20.992  0.00  0.00    -0.126 OA
ATOM     29  O   UNL     1      34.070 -19.475 -21.944  0.00  0.00    -0.126 OA
ATOM     30  N   UNL     1      33.512 -20.158 -21.053  0.00  0.00    +0.058 N 
ENDBRANCH  25  30
BRANCH  23  31
ATOM     31  O   UNL     1      36.686 -22.720 -17.256  0.00  0.00    -0.472 OA
ATOM     32  C   UNL     1      37.274 -21.896 -16.252  0.00  0.00    +0.252 C 
ENDBRANCH  23  31
ENDBRANCH  21  22
ENDBRANCH   1  21
TORSDOF 8
ENDMDL
MODEL 3
REMARK VINA RESULT:      -9.9      3.380      6.556
REMARK  Name = 42628075
REMARK  8 active torsions:
REMARK  status: ('A' for Active; 'I' for Inactive)
REMARK    1  A    between atoms: C_1  and  C_5
REMARK    2  A    between atoms: C_1  and  C_13
REMARK    3  A    between atoms: C_1  and  C_21
REMARK    4  A    between atoms: N_4  and  C_7
REMARK    5  A    between atoms: C_18  and  O_19
REMARK    6  A    between atoms: C_21  and  C_22
REMARK    7  A    between atoms: C_23  and  O_31
REMARK    8  A    between atoms: C_25  and  N_30
REMARK                            x       y       z     vdW  Elec       q    Type
REMARK                         _______ _______ _______ _____ _____    ______ ____
ROOT
ATOM      1  C   UNL     1      33.729 -23.580 -16.258  0.00  0.00    +0.064 C 
ENDROOT
BRANCH   1   4
ATOM      2  N   UNL     1      35.182 -25.362 -15.155  0.00  0.00    -0.308 N 
ATOM      3  N   UNL     1      36.766 -24.219 -14.099  0.00  0.00    -0.305 N 
ATOM      4  C   UNL     1      34.920 -24.044 -15.402  0.00  0.00    +0.042 C 
ATOM      5  C   UNL     1      35.911 -23.358 -14.739  0.00  0.00    +0.070 C 
ATOM      6  C   UNL     1      36.300 -25.417 -14.369  0.00  0.00    +0.204 C 
ATOM      7  H   UNL     1      34.663 -26.131 -15.483  0.00  0.00    +0.149 HD
ATOM      8  H   UNL     1      37.555 -23.989 -13.557  0.00  0.00    +0.150 HD
BRANCH   6   9
ATOM      9  N   UNL     1      36.759 -26.630 -13.991  0.00  0.00    -0.291 NA
ATOM     10  H   UNL     1      37.220 -27.207 -14.642  0.00  0.00    +0.122 HD
ATOM     11  H   UNL     1      36.632 -26.938 -13.065  0.00  0.00    +0.122 HD
ENDBRANCH   6   9
ENDBRANCH   1   4
BRANCH   1  13
ATOM     12  F   UNL     1      37.152 -21.313 -18.870  0.00  0.00    -0.201 F 
ATOM     13  C   UNL     1      34.146 -22.791 -17.453  0.00  0.00    -0.014 C 
ATOM     14  C   UNL     1      35.480 -22.413 -17.608  0.00  0.00    +0.029 C 
ATOM     15  C   UNL     1      33.202 -22.430 -18.415  0.00  0.00    -0.001 C 
ATOM     16  C   UNL     1      35.869 -21.674 -18.726  0.00  0.00    +0.174 C 
ATOM     17  C   UNL     1      33.591 -21.692 -19.532  0.00  0.00    +0.039 C 
ATOM     18  C   UNL     1      34.925 -21.313 -19.687  0.00  0.00    +0.166 C 
BRANCH  18  19
ATOM     19  O   UNL     1      35.304 -20.594 -20.779  0.00  0.00    -0.469 OA
ATOM     20  C   UNL     1      34.570 -19.402 -21.058  0.00  0.00    +0.253 C 
ENDBRANCH  18  19
ENDBRANCH   1  13
BRANCH   1  21
ATOM     21  C   UNL     1      32.646 -22.881 -15.369  0.00  0.00    +0.040 C 
BRANCH  21  22
ATOM     22  C   UNL     1      31.283 -23.525 -15.496  0.00  0.00    +0.014 C 
ATOM     23  C   UNL     1      31.021 -24.760 -14.904  0.00  0.00    +0.135 C 
ATOM     24  C   UNL     1      30.284 -22.870 -16.216  0.00  0.00    +0.023 C 
ATOM     25  C   UNL     1      29.022 -23.451 -16.344  0.00  0.00    +0.143 C 
ATOM     26  C   UNL     1      29.758 -25.341 -15.031  0.00  0.00    +0.038 C 
ATOM     27  C   UNL     1      28.759 -24.685 -15.751  0.00  0.00    +0.027 C 
BRANCH  25  30
ATOM     28  O   UNL     1      27.376 -23.414 -17.959  0.00  0.00    -0.126 OA
ATOM     29  O   UNL     1      27.758 -21.581 -16.815  0.00  0.00    -0.126 OA
ATOM     30  N   UNL     1      28.003 -22.783 -17.074  0.00  0.00    +0.058 N 
ENDBRANCH  25  30
BRANCH  23  31
ATOM     31  O   UNL     1      31.985 -25.413 -14.198  0.00  0.00    -0.472 OA
ATOM     32  C   UNL     1      32.341 -24.866 -12.930  0.00  0.00    +0.252 C 
ENDBRANCH  23  31
ENDBRANCH  21  22
ENDBRANCH   1  21
TORSDOF 8
ENDMDL
MODEL 4
REMARK VINA RESULT:      -9.7      2.984      4.606
REMARK  Name = 42628075
REMARK  8 active torsions:
REMARK  status: ('A' for Active; 'I' for Inactive)
REMARK    1  A    between atoms: C_1  and  C_5
REMARK    2  A    between atoms: C_1  and  C_13
REMARK    3  A    between atoms: C_1  and  C_21
REMARK    4  A    between atoms: N_4  and  C_7
REMARK    5  A    between atoms: C_18  and  O_19
REMARK    6  A    between atoms: C_21  and  C_22
REMARK    7  A    between atoms: C_23  and  O_31
REMARK    8  A    between atoms: C_25  and  N_30
REMARK                            x       y       z     vdW  Elec       q    Type
REMARK                         _______ _______ _______ _____ _____    ______ ____
ROOT
ATOM      1  C   UNL     1      35.206 -23.355 -15.761  0.00  0.00    +0.064 C 
ENDROOT
BRANCH   1   4
ATOM      2  N   UNL     1      35.180 -22.427 -18.136  0.00  0.00    -0.308 N 
ATOM      3  N   UNL     1      36.945 -21.083 -18.233  0.00  0.00    -0.305 N 
ATOM      4  C   UNL     1      35.763 -22.487 -16.902  0.00  0.00    +0.042 C 
ATOM      5  C   UNL     1      36.851 -21.649 -16.986  0.00  0.00    +0.070 C 
ATOM      6  C   UNL     1      35.925 -21.571 -18.901  0.00  0.00    +0.204 C 
ATOM      7  H   UNL     1      34.371 -22.910 -18.423  0.00  0.00    +0.149 HD
ATOM      8  H   UNL     1      37.627 -20.450 -18.554  0.00  0.00    +0.150 HD
BRANCH   6   9
ATOM      9  N   UNL     1      35.537 -21.348 -20.175  0.00  0.00    -0.291 NA
ATOM     10  H   UNL     1      35.384 -22.106 -20.783  0.00  0.00    +0.122 HD
ATOM     11  H   UNL     1      35.411 -20.426 -20.497  0.00  0.00    +0.122 HD
ENDBRANCH   6   9
ENDBRANCH   1   4
BRANCH   1  13
ATOM     12  F   UNL     1      31.087 -23.446 -13.173  0.00  0.00    -0.201 F 
ATOM     13  C   UNL     1      33.717 -23.322 -15.680  0.00  0.00    -0.014 C 
ATOM     14  C   UNL     1      33.083 -23.400 -14.441  0.00  0.00    +0.029 C 
ATOM     15  C   UNL     1      32.959 -23.213 -16.847  0.00  0.00    -0.001 C 
ATOM     16  C   UNL     1      31.690 -23.369 -14.367  0.00  0.00    +0.174 C 
ATOM     17  C   UNL     1      31.567 -23.182 -16.773  0.00  0.00    +0.039 C 
ATOM     18  C   UNL     1      30.932 -23.261 -15.532  0.00  0.00    +0.166 C 
BRANCH  18  19
ATOM     19  O   UNL     1      29.574 -23.229 -15.462  0.00  0.00    -0.469 OA
ATOM     20  C   UNL     1      28.889 -24.477 -15.559  0.00  0.00    +0.253 C 
ENDBRANCH  18  19
ENDBRANCH   1  13
BRANCH   1  21
ATOM     21  C   UNL     1      35.933 -23.030 -14.413  0.00  0.00    +0.040 C 
BRANCH  21  22
ATOM     22  C   UNL     1      36.927 -24.098 -14.013  0.00  0.00    +0.014 C 
ATOM     23  C   UNL     1      36.626 -25.007 -12.999  0.00  0.00    +0.135 C 
ATOM     24  C   UNL     1      38.155 -24.167 -14.671  0.00  0.00    +0.023 C 
ATOM     25  C   UNL     1      39.083 -25.145 -14.313  0.00  0.00    +0.143 C 
ATOM     26  C   UNL     1      37.554 -25.987 -12.642  0.00  0.00    +0.038 C 
ATOM     27  C   UNL     1      38.782 -26.055 -13.299  0.00  0.00    +0.027 C 
BRANCH  25  30
ATOM     28  O   UNL     1      41.230 -24.391 -14.690  0.00  0.00    -0.126 OA
ATOM     29  O   UNL     1      40.506 -26.107 -15.852  0.00  0.00    -0.126 OA
ATOM     30  N   UNL     1      40.333 -25.218 -14.984  0.00  0.00    +0.058 N 
ENDBRANCH  25  30
BRANCH  23  31
ATOM     31  O   UNL     1      35.431 -24.954 -12.347  0.00  0.00    -0.472 OA
ATOM     32  C   UNL     1      35.449 -24.487 -11.000  0.00  0.00    +0.252 C 
ENDBRANCH  23  31
ENDBRANCH  21  22
ENDBRANCH   1  21
TORSDOF 8
ENDMDL
MODEL 5
REMARK VINA RESULT:      -9.4      1.634      3.012
REMARK  Name = 42628075
REMARK  8 active torsions:
REMARK  status: ('A' for Active; 'I' for Inactive)
REMARK    1  A    between atoms: C_1  and  C_5
REMARK    2  A    between atoms: C_1  and  C_13
REMARK    3  A    between atoms: C_1  and  C_21
REMARK    4  A    between atoms: N_4  and  C_7
REMARK    5  A    between atoms: C_18  and  O_19
REMARK    6  A    between atoms: C_21  and  C_22
REMARK    7  A    between atoms: C_23  and  O_31
REMARK    8  A    between atoms: C_25  and  N_30
REMARK                            x       y       z     vdW  Elec       q    Type
REMARK                         _______ _______ _______ _____ _____    ______ ____
ROOT
ATOM      1  C   UNL     1      34.747 -23.467 -15.413  0.00  0.00    +0.064 C 
ENDROOT
BRANCH   1   4
ATOM      2  N   UNL     1      32.784 -24.398 -14.077  0.00  0.00    -0.308 N 
ATOM      3  N   UNL     1      30.980 -23.657 -15.140  0.00  0.00    -0.305 N 
ATOM      4  C   UNL     1      33.247 -23.663 -15.131  0.00  0.00    +0.042 C 
ATOM      5  C   UNL     1      32.116 -23.215 -15.773  0.00  0.00    +0.070 C 
ATOM      6  C   UNL     1      31.417 -24.366 -14.124  0.00  0.00    +0.204 C 
ATOM      7  H   UNL     1      33.333 -24.866 -13.407  0.00  0.00    +0.149 HD
ATOM      8  H   UNL     1      30.045 -23.480 -15.392  0.00  0.00    +0.150 HD
BRANCH   6   9
ATOM      9  N   UNL     1      30.727 -25.030 -13.171  0.00  0.00    -0.291 NA
ATOM     10  H   UNL     1      31.088 -25.096 -12.257  0.00  0.00    +0.122 HD
ATOM     11  H   UNL     1      29.864 -25.449 -13.390  0.00  0.00    +0.122 HD
ENDBRANCH   6   9
ENDBRANCH   1   4
BRANCH   1  13
ATOM     12  F   UNL     1      33.325 -22.320 -19.923  0.00  0.00    -0.201 F 
ATOM     13  C   UNL     1      35.011 -22.850 -16.745  0.00  0.00    -0.014 C 
ATOM     14  C   UNL     1      34.027 -22.872 -17.732  0.00  0.00    +0.029 C 
ATOM     15  C   UNL     1      36.245 -22.251 -17.003  0.00  0.00    -0.001 C 
ATOM     16  C   UNL     1      34.275 -22.295 -18.978  0.00  0.00    +0.174 C 
ATOM     17  C   UNL     1      36.493 -21.674 -18.248  0.00  0.00    +0.039 C 
ATOM     18  C   UNL     1      35.508 -21.697 -19.236  0.00  0.00    +0.166 C 
BRANCH  18  19
ATOM     19  O   UNL     1      35.752 -21.132 -20.450  0.00  0.00    -0.469 OA
ATOM     20  C   UNL     1      35.190 -19.844 -20.693  0.00  0.00    +0.253 C 
ENDBRANCH  18  19
ENDBRANCH   1  13
BRANCH   1  21
ATOM     21  C   UNL     1      35.538 -24.791 -15.146  0.00  0.00    +0.040 C 
BRANCH  21  22
ATOM     22  C   UNL     1      36.452 -24.692 -13.944  0.00  0.00    +0.014 C 
ATOM     23  C   UNL     1      37.812 -24.976 -14.059  0.00  0.00    +0.135 C 
ATOM     24  C   UNL     1      35.918 -24.315 -12.711  0.00  0.00    +0.023 C 
ATOM     25  C   UNL     1      36.747 -24.222 -11.593  0.00  0.00    +0.143 C 
ATOM     26  C   UNL     1      38.641 -24.881 -12.940  0.00  0.00    +0.038 C 
ATOM     27  C   UNL     1      38.108 -24.504 -11.707  0.00  0.00    +0.027 C 
BRANCH  25  30
ATOM     28  O   UNL     1      35.318 -24.549  -9.812  0.00  0.00    -0.126 OA
ATOM     29  O   UNL     1      36.629 -22.788  -9.791  0.00  0.00    -0.126 OA
ATOM     30  N   UNL     1      36.206 -23.834 -10.338  0.00  0.00    +0.058 N 
ENDBRANCH  25  30
BRANCH  23  31
ATOM     31  O   UNL     1      38.349 -25.346 -15.255  0.00  0.00    -0.472 OA
ATOM     32  C   UNL     1      39.772 -25.364 -15.347  0.00  0.00    +0.252 C 
ENDBRANCH  23  31
ENDBRANCH  21  22
ENDBRANCH   1  21
TORSDOF 8
ENDMDL
MODEL 6
REMARK VINA RESULT:      -9.4      2.055      2.891
REMARK  Name = 42628075
REMARK  8 active torsions:
REMARK  status: ('A' for Active; 'I' for Inactive)
REMARK    1  A    between atoms: C_1  and  C_5
REMARK    2  A    between atoms: C_1  and  C_13
REMARK    3  A    between atoms: C_1  and  C_21
REMARK    4  A    between atoms: N_4  and  C_7
REMARK    5  A    between atoms: C_18  and  O_19
REMARK    6  A    between atoms: C_21  and  C_22
REMARK    7  A    between atoms: C_23  and  O_31
REMARK    8  A    between atoms: C_25  and  N_30
REMARK                            x       y       z     vdW  Elec       q    Type
REMARK                         _______ _______ _______ _____ _____    ______ ____
ROOT
ATOM      1  C   UNL     1      33.632 -23.622 -14.878  0.00  0.00    +0.064 C 
ENDROOT
BRANCH   1   4
ATOM      2  N   UNL     1      31.343 -24.726 -14.660  0.00  0.00    -0.308 N 
ATOM      3  N   UNL     1      29.909 -23.032 -14.590  0.00  0.00    -0.305 N 
ATOM      4  C   UNL     1      32.099 -23.592 -14.753  0.00  0.00    +0.042 C 
ATOM      5  C   UNL     1      31.192 -22.559 -14.708  0.00  0.00    +0.070 C 
ATOM      6  C   UNL     1      30.034 -24.340 -14.565  0.00  0.00    +0.204 C 
ATOM      7  H   UNL     1      31.679 -25.652 -14.662  0.00  0.00    +0.149 HD
ATOM      8  H   UNL     1      29.078 -22.507 -14.536  0.00  0.00    +0.150 HD
BRANCH   6   9
ATOM      9  N   UNL     1      29.089 -25.299 -14.460  0.00  0.00    -0.291 NA
ATOM     10  H   UNL     1      29.106 -26.075 -15.066  0.00  0.00    +0.122 HD
ATOM     11  H   UNL     1      28.382 -25.221 -13.779  0.00  0.00    +0.122 HD
ENDBRANCH   6   9
ENDBRANCH   1   4
BRANCH   1  13
ATOM     12  F   UNL     1      37.103 -21.675 -17.677  0.00  0.00    -0.201 F 
ATOM     13  C   UNL     1      34.117 -23.133 -16.200  0.00  0.00    -0.014 C 
ATOM     14  C   UNL     1      35.409 -22.623 -16.326  0.00  0.00    +0.029 C 
ATOM     15  C   UNL     1      33.277 -23.186 -17.314  0.00  0.00    -0.001 C 
ATOM     16  C   UNL     1      35.861 -22.165 -17.564  0.00  0.00    +0.174 C 
ATOM     17  C   UNL     1      33.729 -22.729 -18.551  0.00  0.00    +0.039 C 
ATOM     18  C   UNL     1      35.021 -22.218 -18.676  0.00  0.00    +0.166 C 
BRANCH  18  19
ATOM     19  O   UNL     1      35.461 -21.773 -19.884  0.00  0.00    -0.469 OA
ATOM     20  C   UNL     1      34.989 -20.499 -20.319  0.00  0.00    +0.253 C 
ENDBRANCH  18  19
ENDBRANCH   1  13
BRANCH   1  21
ATOM     21  C   UNL     1      34.194 -25.023 -14.462  0.00  0.00    +0.040 C 
BRANCH  21  22
ATOM     22  C   UNL     1      35.664 -24.980 -14.107  0.00  0.00    +0.014 C 
ATOM     23  C   UNL     1      36.588 -25.755 -14.807  0.00  0.00    +0.135 C 
ATOM     24  C   UNL     1      36.091 -24.156 -13.065  0.00  0.00    +0.023 C 
ATOM     25  C   UNL     1      37.442 -24.107 -12.724  0.00  0.00    +0.143 C 
ATOM     26  C   UNL     1      37.941 -25.705 -14.467  0.00  0.00    +0.038 C 
ATOM     27  C   UNL     1      38.367 -24.880 -13.426  0.00  0.00    +0.027 C 
BRANCH  25  30
ATOM     28  O   UNL     1      39.088 -22.933 -11.613  0.00  0.00    -0.126 OA
ATOM     29  O   UNL     1      37.044 -22.877 -10.815  0.00  0.00    -0.126 OA
ATOM     30  N   UNL     1      37.878 -23.265 -11.667  0.00  0.00    +0.058 N 
ENDBRANCH  25  30
BRANCH  23  31
ATOM     31  O   UNL     1      36.189 -26.565 -15.827  0.00  0.00    -0.472 OA
ATOM     32  C   UNL     1      37.064 -27.631 -16.188  0.00  0.00    +0.252 C 
ENDBRANCH  23  31
ENDBRANCH  21  22
ENDBRANCH   1  21
TORSDOF 8
ENDMDL
MODEL 7
REMARK VINA RESULT:      -9.1     11.173     15.604
REMARK  Name = 42628075
REMARK  8 active torsions:
REMARK  status: ('A' for Active; 'I' for Inactive)
REMARK    1  A    between atoms: C_1  and  C_5
REMARK    2  A    between atoms: C_1  and  C_13
REMARK    3  A    between atoms: C_1  and  C_21
REMARK    4  A    between atoms: N_4  and  C_7
REMARK    5  A    between atoms: C_18  and  O_19
REMARK    6  A    between atoms: C_21  and  C_22
REMARK    7  A    between atoms: C_23  and  O_31
REMARK    8  A    between atoms: C_25  and  N_30
REMARK                            x       y       z     vdW  Elec       q    Type
REMARK                         _______ _______ _______ _____ _____    ______ ____
ROOT
ATOM      1  C   UNL     1      33.244 -12.475 -22.912  0.00  0.00    +0.064 C 
ENDROOT
BRANCH   1   4
ATOM      2  N   UNL     1      33.268 -13.264 -25.337  0.00  0.00    -0.308 N 
ATOM      3  N   UNL     1      34.308 -11.642 -26.443  0.00  0.00    -0.305 N 
ATOM      4  C   UNL     1      33.590 -12.321 -24.403  0.00  0.00    +0.042 C 
ATOM      5  C   UNL     1      34.231 -11.329 -25.109  0.00  0.00    +0.070 C 
ATOM      6  C   UNL     1      33.719 -12.812 -26.548  0.00  0.00    +0.204 C 
ATOM      7  H   UNL     1      32.798 -14.112 -25.171  0.00  0.00    +0.149 HD
ATOM      8  H   UNL     1      34.713 -11.107 -27.163  0.00  0.00    +0.150 HD
BRANCH   6   9
ATOM      9  N   UNL     1      33.513 -13.583 -27.637  0.00  0.00    -0.291 NA
ATOM     10  H   UNL     1      32.596 -13.832 -27.898  0.00  0.00    +0.122 HD
ATOM     11  H   UNL     1      34.278 -13.898 -28.170  0.00  0.00    +0.122 HD
ENDBRANCH   6   9
ENDBRANCH   1   4
BRANCH   1  13
ATOM     12  F   UNL     1      31.726 -16.302 -20.317  0.00  0.00    -0.201 F 
ATOM     13  C   UNL     1      33.431 -13.869 -22.414  0.00  0.00    -0.014 C 
ATOM     14  C   UNL     1      32.473 -14.448 -21.582  0.00  0.00    +0.029 C 
ATOM     15  C   UNL     1      34.566 -14.593 -22.781  0.00  0.00    -0.001 C 
ATOM     16  C   UNL     1      32.650 -15.751 -21.117  0.00  0.00    +0.174 C 
ATOM     17  C   UNL     1      34.743 -15.896 -22.316  0.00  0.00    +0.039 C 
ATOM     18  C   UNL     1      33.784 -16.475 -21.483  0.00  0.00    +0.166 C 
BRANCH  18  19
ATOM     19  O   UNL     1      33.958 -17.746 -21.031  0.00  0.00    -0.469 OA
ATOM     20  C   UNL     1      35.241 -18.337 -21.229  0.00  0.00    +0.253 C 
ENDBRANCH  18  19
ENDBRANCH   1  13
BRANCH   1  21
ATOM     21  C   UNL     1      31.836 -11.864 -22.604  0.00  0.00    +0.040 C 
BRANCH  21  22
ATOM     22  C   UNL     1      31.910 -10.417 -22.168  0.00  0.00    +0.014 C 
ATOM     23  C   UNL     1      31.973 -10.084 -20.815  0.00  0.00    +0.135 C 
ATOM     24  C   UNL     1      31.915  -9.413 -23.136  0.00  0.00    +0.023 C 
ATOM     25  C   UNL     1      31.981  -8.074 -22.750  0.00  0.00    +0.143 C 
ATOM     26  C   UNL     1      32.041  -8.745 -20.429  0.00  0.00    +0.038 C 
ATOM     27  C   UNL     1      32.045  -7.740 -21.397  0.00  0.00    +0.027 C 
BRANCH  25  30
ATOM     28  O   UNL     1      33.061  -6.442 -23.970  0.00  0.00    -0.126 OA
ATOM     29  O   UNL     1      30.924  -6.781 -24.340  0.00  0.00    -0.126 OA
ATOM     30  N   UNL     1      31.989  -7.050 -23.734  0.00  0.00    +0.058 N 
ENDBRANCH  25  30
BRANCH  23  31
ATOM     31  O   UNL     1      31.969 -11.053 -19.858  0.00  0.00    -0.472 OA
ATOM     32  C   UNL     1      31.244 -10.778 -18.661  0.00  0.00    +0.252 C 
ENDBRANCH  23  31
ENDBRANCH  21  22
ENDBRANCH   1  21
TORSDOF 8
ENDMDL
MODEL 8
REMARK VINA RESULT:      -8.9      3.849      7.291
REMARK  Name = 42628075
REMARK  8 active torsions:
REMARK  status: ('A' for Active; 'I' for Inactive)
REMARK    1  A    between atoms: C_1  and  C_5
REMARK    2  A    between atoms: C_1  and  C_13
REMARK    3  A    between atoms: C_1  and  C_21
REMARK    4  A    between atoms: N_4  and  C_7
REMARK    5  A    between atoms: C_18  and  O_19
REMARK    6  A    between atoms: C_21  and  C_22
REMARK    7  A    between atoms: C_23  and  O_31
REMARK    8  A    between atoms: C_25  and  N_30
REMARK                            x       y       z     vdW  Elec       q    Type
REMARK                         _______ _______ _______ _____ _____    ______ ____
ROOT
ATOM      1  C   UNL     1      33.939 -22.820 -16.689  0.00  0.00    +0.064 C 
ENDROOT
BRANCH   1   4
ATOM      2  N   UNL     1      33.049 -21.617 -18.754  0.00  0.00    -0.308 N 
ATOM      3  N   UNL     1      34.812 -21.419 -20.091  0.00  0.00    -0.305 N 
ATOM      4  C   UNL     1      34.092 -22.194 -18.086  0.00  0.00    +0.042 C 
ATOM      5  C   UNL     1      35.169 -22.059 -18.931  0.00  0.00    +0.070 C 
ATOM      6  C   UNL     1      33.529 -21.167 -19.954  0.00  0.00    +0.204 C 
ATOM      7  H   UNL     1      32.122 -21.540 -18.433  0.00  0.00    +0.149 HD
ATOM      8  H   UNL     1      35.389 -21.198 -20.857  0.00  0.00    +0.150 HD
BRANCH   6   9
ATOM      9  N   UNL     1      32.672 -20.552 -20.798  0.00  0.00    -0.291 NA
ATOM     10  H   UNL     1      32.079 -21.087 -21.373  0.00  0.00    +0.122 HD
ATOM     11  H   UNL     1      32.642 -19.569 -20.839  0.00  0.00    +0.122 HD
ENDBRANCH   6   9
ENDBRANCH   1   4
BRANCH   1  13
ATOM     12  F   UNL     1      36.709 -26.110 -14.414  0.00  0.00    -0.201 F 
ATOM     13  C   UNL     1      35.242 -23.240 -16.096  0.00  0.00    -0.014 C 
ATOM     14  C   UNL     1      35.372 -24.504 -15.521  0.00  0.00    +0.029 C 
ATOM     15  C   UNL     1      36.331 -22.367 -16.117  0.00  0.00    -0.001 C 
ATOM     16  C   UNL     1      36.591 -24.895 -14.966  0.00  0.00    +0.174 C 
ATOM     17  C   UNL     1      37.549 -22.759 -15.562  0.00  0.00    +0.039 C 
ATOM     18  C   UNL     1      37.679 -24.023 -14.987  0.00  0.00    +0.166 C 
BRANCH  18  19
ATOM     19  O   UNL     1      38.869 -24.403 -14.447  0.00  0.00    -0.469 OA
ATOM     20  C   UNL     1      39.746 -25.163 -15.277  0.00  0.00    +0.253 C 
ENDBRANCH  18  19
ENDBRANCH   1  13
BRANCH   1  21
ATOM     21  C   UNL     1      32.845 -23.939 -16.700  0.00  0.00    +0.040 C 
BRANCH  21  22
ATOM     22  C   UNL     1      31.548 -23.494 -16.061  0.00  0.00    +0.014 C 
ATOM     23  C   UNL     1      31.455 -23.334 -14.678  0.00  0.00    +0.135 C 
ATOM     24  C   UNL     1      30.439 -23.245 -16.869  0.00  0.00    +0.023 C 
ATOM     25  C   UNL     1      29.236 -22.835 -16.294  0.00  0.00    +0.143 C 
ATOM     26  C   UNL     1      30.252 -22.922 -14.103  0.00  0.00    +0.038 C 
ATOM     27  C   UNL     1      29.143 -22.673 -14.912  0.00  0.00    +0.027 C 
BRANCH  25  30
ATOM     28  O   UNL     1      27.475 -21.504 -16.963  0.00  0.00    -0.126 OA
ATOM     29  O   UNL     1      27.771 -23.430 -17.973  0.00  0.00    -0.126 OA
ATOM     30  N   UNL     1      28.107 -22.577 -17.117  0.00  0.00    +0.058 N 
ENDBRANCH  25  30
BRANCH  23  31
ATOM     31  O   UNL     1      32.528 -23.573 -13.875  0.00  0.00    -0.472 OA
ATOM     32  C   UNL     1      32.611 -24.862 -13.271  0.00  0.00    +0.252 C 
ENDBRANCH  23  31
ENDBRANCH  21  22
ENDBRANCH   1  21
TORSDOF 8
ENDMDL
MODEL 9
REMARK VINA RESULT:      -8.7      3.585      5.660
REMARK  Name = 42628075
REMARK  8 active torsions:
REMARK  status: ('A' for Active; 'I' for Inactive)
REMARK    1  A    between atoms: C_1  and  C_5
REMARK    2  A    between atoms: C_1  and  C_13
REMARK    3  A    between atoms: C_1  and  C_21
REMARK    4  A    between atoms: N_4  and  C_7
REMARK    5  A    between atoms: C_18  and  O_19
REMARK    6  A    between atoms: C_21  and  C_22
REMARK    7  A    between atoms: C_23  and  O_31
REMARK    8  A    between atoms: C_25  and  N_30
REMARK                            x       y       z     vdW  Elec       q    Type
REMARK                         _______ _______ _______ _____ _____    ______ ____
ROOT
ATOM      1  C   UNL     1      33.479 -23.517 -16.277  0.00  0.00    +0.064 C 
ENDROOT
BRANCH   1   4
ATOM      2  N   UNL     1      34.464 -21.986 -18.063  0.00  0.00    -0.308 N 
ATOM      3  N   UNL     1      34.139 -23.072 -19.973  0.00  0.00    -0.305 N 
ATOM      4  C   UNL     1      33.835 -23.152 -17.728  0.00  0.00    +0.042 C 
ATOM      5  C   UNL     1      33.645 -23.805 -18.924  0.00  0.00    +0.070 C 
ATOM      6  C   UNL     1      34.625 -21.983 -19.422  0.00  0.00    +0.204 C 
ATOM      7  H   UNL     1      34.749 -21.278 -17.442  0.00  0.00    +0.149 HD
ATOM      8  H   UNL     1      34.131 -23.310 -20.928  0.00  0.00    +0.150 HD
BRANCH   6   9
ATOM      9  N   UNL     1      35.231 -20.920 -19.993  0.00  0.00    -0.291 NA
ATOM     10  H   UNL     1      36.206 -20.925 -20.133  0.00  0.00    +0.122 HD
ATOM     11  H   UNL     1      34.699 -20.139 -20.269  0.00  0.00    +0.122 HD
ENDBRANCH   6   9
ENDBRANCH   1   4
BRANCH   1  13
ATOM     12  F   UNL     1      29.594 -24.931 -13.711  0.00  0.00    -0.201 F 
ATOM     13  C   UNL     1      32.011 -23.491 -16.015  0.00  0.00    -0.014 C 
ATOM     14  C   UNL     1      31.476 -24.237 -14.965  0.00  0.00    +0.029 C 
ATOM     15  C   UNL     1      31.173 -22.719 -16.821  0.00  0.00    -0.001 C 
ATOM     16  C   UNL     1      30.103 -24.212 -14.721  0.00  0.00    +0.174 C 
ATOM     17  C   UNL     1      29.800 -22.695 -16.577  0.00  0.00    +0.039 C 
ATOM     18  C   UNL     1      29.265 -23.441 -15.527  0.00  0.00    +0.166 C 
BRANCH  18  19
ATOM     19  O   UNL     1      27.925 -23.415 -15.290  0.00  0.00    -0.469 OA
ATOM     20  C   UNL     1      27.190 -22.322 -15.837  0.00  0.00    +0.253 C 
ENDBRANCH  18  19
ENDBRANCH   1  13
BRANCH   1  21
ATOM     21  C   UNL     1      34.330 -22.673 -15.269  0.00  0.00    +0.040 C 
BRANCH  21  22
ATOM     22  C   UNL     1      35.541 -23.423 -14.758  0.00  0.00    +0.014 C 
ATOM     23  C   UNL     1      36.736 -23.418 -15.477  0.00  0.00    +0.135 C 
ATOM     24  C   UNL     1      35.452 -24.123 -13.555  0.00  0.00    +0.023 C 
ATOM     25  C   UNL     1      36.559 -24.820 -13.071  0.00  0.00    +0.143 C 
ATOM     26  C   UNL     1      37.844 -24.115 -14.992  0.00  0.00    +0.038 C 
ATOM     27  C   UNL     1      37.755 -24.815 -13.789  0.00  0.00    +0.027 C 
BRANCH  25  30
ATOM     28  O   UNL     1      37.139 -26.583 -11.702  0.00  0.00    -0.126 OA
ATOM     29  O   UNL     1      35.726 -25.088 -10.937  0.00  0.00    -0.126 OA
ATOM     30  N   UNL     1      36.470 -25.531 -11.844  0.00  0.00    +0.058 N 
ENDBRANCH  25  30
BRANCH  23  31
ATOM     31  O   UNL     1      36.840 -22.740 -16.653  0.00  0.00    -0.472 OA
ATOM     32  C   UNL     1      37.469 -21.461 -16.609  0.00  0.00    +0.252 C 
ENDBRANCH  23  31
ENDBRANCH  21  22
ENDBRANCH   1  21
TORSDOF 8
ENDMDL
