MODEL 1
REMARK VINA RESULT:      -7.2      0.000      0.000
REMARK  Name = 3314
REMARK  4 active torsions:
REMARK  status: ('A' for Active; 'I' for Inactive)
REMARK    1  A    between atoms: C_1  and  C_11
REMARK    2  A    between atoms: C_3  and  O_7
REMARK    3  A    between atoms: C_5  and  O_9
REMARK    4  A    between atoms: C_11  and  C_12
REMARK                            x       y       z     vdW  Elec       q    Type
REMARK                         _______ _______ _______ _____ _____    ______ ____
ROOT
ATOM      1  C   UNL     1      34.832 -18.716 -22.302  0.00  0.00    -0.015 C 
ATOM      2  C   UNL     1      34.972 -17.328 -22.277  0.00  0.00    +0.036 C 
ATOM      3  C   UNL     1      34.945 -16.602 -23.468  0.00  0.00    +0.172 C 
ATOM      4  C   UNL     1      34.667 -19.378 -23.518  0.00  0.00    -0.001 C 
ATOM      5  C   UNL     1      34.779 -17.266 -24.684  0.00  0.00    +0.168 C 
ATOM      6  C   UNL     1      34.639 -18.653 -24.709  0.00  0.00    +0.039 C 
ENDROOT
BRANCH   3   7
ATOM      7  O   UNL     1      35.082 -15.248 -23.432  0.00  0.00    -0.468 OA
ATOM      8  C   UNL     1      34.316 -14.544 -22.457  0.00  0.00    +0.253 C 
ENDBRANCH   3   7
BRANCH   5   9
ATOM      9  O   UNL     1      34.753 -16.569 -25.854  0.00  0.00    -0.503 OA
ATOM     10  H   UNL     1      34.984 -15.661 -25.864  0.00  0.00    +0.292 HD
ENDBRANCH   5   9
BRANCH   1  11
ATOM     11  C   UNL     1      34.861 -19.490 -21.027  0.00  0.00    +0.052 C 
BRANCH  11  12
ATOM     12  C   UNL     1      33.501 -19.990 -20.611  0.00  0.00    -0.021 C 
ATOM     13  C   UNL     1      33.301 -21.029 -19.792  0.00  0.00    -0.005 C 
ENDBRANCH  11  12
ENDBRANCH   1  11
TORSDOF 4
ENDMDL
MODEL 2
REMARK VINA RESULT:      -7.2      3.896      5.861
REMARK  Name = 3314
REMARK  4 active torsions:
REMARK  status: ('A' for Active; 'I' for Inactive)
REMARK    1  A    between atoms: C_1  and  C_11
REMARK    2  A    between atoms: C_3  and  O_7
REMARK    3  A    between atoms: C_5  and  O_9
REMARK    4  A    between atoms: C_11  and  C_12
REMARK                            x       y       z     vdW  Elec       q    Type
REMARK                         _______ _______ _______ _____ _____    ______ ____
ROOT
ATOM      1  C   UNL     1      34.963 -19.570 -21.087  0.00  0.00    -0.015 C 
ATOM      2  C   UNL     1      35.635 -20.517 -20.314  0.00  0.00    +0.036 C 
ATOM      3  C   UNL     1      34.914 -21.409 -19.520  0.00  0.00    +0.172 C 
ATOM      4  C   UNL     1      33.569 -19.514 -21.064  0.00  0.00    -0.001 C 
ATOM      5  C   UNL     1      33.521 -21.353 -19.499  0.00  0.00    +0.168 C 
ATOM      6  C   UNL     1      32.848 -20.406 -20.271  0.00  0.00    +0.039 C 
ENDROOT
BRANCH   3   7
ATOM      7  O   UNL     1      35.581 -22.330 -18.770  0.00  0.00    -0.468 OA
ATOM      8  C   UNL     1      36.585 -21.840 -17.884  0.00  0.00    +0.253 C 
ENDBRANCH   3   7
BRANCH   5   9
ATOM      9  O   UNL     1      32.805 -22.218 -18.726  0.00  0.00    -0.503 OA
ATOM     10  H   UNL     1      32.762 -22.092 -17.799  0.00  0.00    +0.292 HD
ENDBRANCH   5   9
BRANCH   1  11
ATOM     11  C   UNL     1      35.735 -18.617 -21.935  0.00  0.00    +0.052 C 
BRANCH  11  12
ATOM     12  C   UNL     1      35.042 -18.287 -23.233  0.00  0.00    -0.021 C 
ATOM     13  C   UNL     1      34.908 -19.143 -24.252  0.00  0.00    -0.005 C 
ENDBRANCH  11  12
ENDBRANCH   1  11
TORSDOF 4
ENDMDL
MODEL 3
REMARK VINA RESULT:      -6.8      0.989      1.098
REMARK  Name = 3314
REMARK  4 active torsions:
REMARK  status: ('A' for Active; 'I' for Inactive)
REMARK    1  A    between atoms: C_1  and  C_11
REMARK    2  A    between atoms: C_3  and  O_7
REMARK    3  A    between atoms: C_5  and  O_9
REMARK    4  A    between atoms: C_11  and  C_12
REMARK                            x       y       z     vdW  Elec       q    Type
REMARK                         _______ _______ _______ _____ _____    ______ ____
ROOT
ATOM      1  C   UNL     1      35.180 -17.993 -22.711  0.00  0.00    -0.015 C 
ATOM      2  C   UNL     1      34.929 -16.622 -22.650  0.00  0.00    +0.036 C 
ATOM      3  C   UNL     1      34.520 -15.936 -23.793  0.00  0.00    +0.172 C 
ATOM      4  C   UNL     1      35.025 -18.677 -23.916  0.00  0.00    -0.001 C 
ATOM      5  C   UNL     1      34.364 -16.621 -24.998  0.00  0.00    +0.168 C 
ATOM      6  C   UNL     1      34.616 -17.992 -25.060  0.00  0.00    +0.039 C 
ENDROOT
BRANCH   3   7
ATOM      7  O   UNL     1      34.278 -14.598 -23.722  0.00  0.00    -0.468 OA
ATOM      8  C   UNL     1      33.065 -14.192 -23.092  0.00  0.00    +0.253 C 
ENDBRANCH   3   7
BRANCH   5   9
ATOM      9  O   UNL     1      33.967 -15.962 -26.123  0.00  0.00    -0.503 OA
ATOM     10  H   UNL     1      33.668 -15.076 -26.066  0.00  0.00    +0.292 HD
ENDBRANCH   5   9
BRANCH   1  11
ATOM     11  C   UNL     1      35.616 -18.725 -21.487  0.00  0.00    +0.052 C 
BRANCH  11  12
ATOM     12  C   UNL     1      34.670 -19.829 -21.091  0.00  0.00    -0.021 C 
ATOM     13  C   UNL     1      33.375 -19.645 -20.811  0.00  0.00    -0.005 C 
ENDBRANCH  11  12
ENDBRANCH   1  11
TORSDOF 4
ENDMDL
MODEL 4
REMARK VINA RESULT:      -6.5      2.331      4.331
REMARK  Name = 3314
REMARK  4 active torsions:
REMARK  status: ('A' for Active; 'I' for Inactive)
REMARK    1  A    between atoms: C_1  and  C_11
REMARK    2  A    between atoms: C_3  and  O_7
REMARK    3  A    between atoms: C_5  and  O_9
REMARK    4  A    between atoms: C_11  and  C_12
REMARK                            x       y       z     vdW  Elec       q    Type
REMARK                         _______ _______ _______ _____ _____    ______ ____
ROOT
ATOM      1  C   UNL     1      34.756 -17.427 -23.994  0.00  0.00    -0.015 C 
ATOM      2  C   UNL     1      34.872 -16.676 -22.824  0.00  0.00    +0.036 C 
ATOM      3  C   UNL     1      35.038 -17.318 -21.597  0.00  0.00    +0.172 C 
ATOM      4  C   UNL     1      34.806 -18.820 -23.936  0.00  0.00    -0.001 C 
ATOM      5  C   UNL     1      35.090 -18.711 -21.540  0.00  0.00    +0.168 C 
ATOM      6  C   UNL     1      34.974 -19.462 -22.710  0.00  0.00    +0.039 C 
ENDROOT
BRANCH   3   7
ATOM      7  O   UNL     1      35.150 -16.575 -20.461  0.00  0.00    -0.468 OA
ATOM      8  C   UNL     1      34.521 -15.295 -20.459  0.00  0.00    +0.253 C 
ENDBRANCH   3   7
BRANCH   5   9
ATOM      9  O   UNL     1      35.251 -19.350 -20.347  0.00  0.00    -0.503 OA
ATOM     10  H   UNL     1      35.981 -19.922 -20.217  0.00  0.00    +0.292 HD
ENDBRANCH   5   9
BRANCH   1  11
ATOM     11  C   UNL     1      34.578 -16.740 -25.305  0.00  0.00    +0.052 C 
BRANCH  11  12
ATOM     12  C   UNL     1      33.684 -15.530 -25.221  0.00  0.00    -0.021 C 
ATOM     13  C   UNL     1      32.994 -15.031 -26.252  0.00  0.00    -0.005 C 
ENDBRANCH  11  12
ENDBRANCH   1  11
TORSDOF 4
ENDMDL
MODEL 5
REMARK VINA RESULT:      -6.3      2.775      4.064
REMARK  Name = 3314
REMARK  4 active torsions:
REMARK  status: ('A' for Active; 'I' for Inactive)
REMARK    1  A    between atoms: C_1  and  C_11
REMARK    2  A    between atoms: C_3  and  O_7
REMARK    3  A    between atoms: C_5  and  O_9
REMARK    4  A    between atoms: C_11  and  C_12
REMARK                            x       y       z     vdW  Elec       q    Type
REMARK                         _______ _______ _______ _____ _____    ______ ____
ROOT
ATOM      1  C   UNL     1      34.245 -14.859 -23.026  0.00  0.00    -0.015 C 
ATOM      2  C   UNL     1      34.546 -16.065 -23.660  0.00  0.00    +0.036 C 
ATOM      3  C   UNL     1      34.159 -16.273 -24.984  0.00  0.00    +0.172 C 
ATOM      4  C   UNL     1      33.557 -13.861 -23.716  0.00  0.00    -0.001 C 
ATOM      5  C   UNL     1      33.472 -15.274 -25.673  0.00  0.00    +0.168 C 
ATOM      6  C   UNL     1      33.171 -14.068 -25.040  0.00  0.00    +0.039 C 
ENDROOT
BRANCH   3   7
ATOM      7  O   UNL     1      34.458 -17.454 -25.593  0.00  0.00    -0.468 OA
ATOM      8  C   UNL     1      34.487 -18.618 -24.770  0.00  0.00    +0.253 C 
ENDBRANCH   3   7
BRANCH   5   9
ATOM      9  O   UNL     1      33.087 -15.465 -26.967  0.00  0.00    -0.503 OA
ATOM     10  H   UNL     1      33.293 -14.823 -27.617  0.00  0.00    +0.292 HD
ENDBRANCH   5   9
BRANCH   1  11
ATOM     11  C   UNL     1      34.659 -14.639 -21.610  0.00  0.00    +0.052 C 
BRANCH  11  12
ATOM     12  C   UNL     1      33.850 -15.444 -20.626  0.00  0.00    -0.021 C 
ATOM     13  C   UNL     1      32.514 -15.461 -20.588  0.00  0.00    -0.005 C 
ENDBRANCH  11  12
ENDBRANCH   1  11
TORSDOF 4
ENDMDL
MODEL 6
REMARK VINA RESULT:      -6.3      1.745      3.451
REMARK  Name = 3314
REMARK  4 active torsions:
REMARK  status: ('A' for Active; 'I' for Inactive)
REMARK    1  A    between atoms: C_1  and  C_11
REMARK    2  A    between atoms: C_3  and  O_7
REMARK    3  A    between atoms: C_5  and  O_9
REMARK    4  A    between atoms: C_11  and  C_12
REMARK                            x       y       z     vdW  Elec       q    Type
REMARK                         _______ _______ _______ _____ _____    ______ ____
ROOT
ATOM      1  C   UNL     1      34.679 -16.647 -21.799  0.00  0.00    -0.015 C 
ATOM      2  C   UNL     1      34.571 -16.296 -23.145  0.00  0.00    +0.036 C 
ATOM      3  C   UNL     1      34.634 -17.282 -24.130  0.00  0.00    +0.172 C 
ATOM      4  C   UNL     1      34.852 -17.983 -21.438  0.00  0.00    -0.001 C 
ATOM      5  C   UNL     1      34.806 -18.618 -23.768  0.00  0.00    +0.168 C 
ATOM      6  C   UNL     1      34.915 -18.969 -22.423  0.00  0.00    +0.039 C 
ENDROOT
BRANCH   3   7
ATOM      7  O   UNL     1      34.527 -16.928 -25.441  0.00  0.00    -0.468 OA
ATOM      8  C   UNL     1      33.695 -15.811 -25.745  0.00  0.00    +0.253 C 
ENDBRANCH   3   7
BRANCH   5   9
ATOM      9  O   UNL     1      34.871 -19.590 -24.721  0.00  0.00    -0.503 OA
ATOM     10  H   UNL     1      34.615 -19.400 -25.602  0.00  0.00    +0.292 HD
ENDBRANCH   5   9
BRANCH   1  11
ATOM     11  C   UNL     1      34.610 -15.592 -20.747  0.00  0.00    +0.052 C 
BRANCH  11  12
ATOM     12  C   UNL     1      33.204 -15.131 -20.465  0.00  0.00    -0.021 C 
ATOM     13  C   UNL     1      32.704 -13.956 -20.863  0.00  0.00    -0.005 C 
ENDBRANCH  11  12
ENDBRANCH   1  11
TORSDOF 4
ENDMDL
MODEL 7
REMARK VINA RESULT:      -6.3      1.905      3.488
REMARK  Name = 3314
REMARK  4 active torsions:
REMARK  status: ('A' for Active; 'I' for Inactive)
REMARK    1  A    between atoms: C_1  and  C_11
REMARK    2  A    between atoms: C_3  and  O_7
REMARK    3  A    between atoms: C_5  and  O_9
REMARK    4  A    between atoms: C_11  and  C_12
REMARK                            x       y       z     vdW  Elec       q    Type
REMARK                         _______ _______ _______ _____ _____    ______ ____
ROOT
ATOM      1  C   UNL     1      34.328 -16.346 -21.614  0.00  0.00    -0.015 C 
ATOM      2  C   UNL     1      34.294 -15.971 -22.957  0.00  0.00    +0.036 C 
ATOM      3  C   UNL     1      33.478 -14.917 -23.368  0.00  0.00    +0.172 C 
ATOM      4  C   UNL     1      33.544 -15.667 -20.681  0.00  0.00    -0.001 C 
ATOM      5  C   UNL     1      32.696 -14.238 -22.434  0.00  0.00    +0.168 C 
ATOM      6  C   UNL     1      32.728 -14.612 -21.091  0.00  0.00    +0.039 C 
ENDROOT
BRANCH   3   7
ATOM      7  O   UNL     1      33.454 -14.560 -24.682  0.00  0.00    -0.468 OA
ATOM      8  C   UNL     1      33.555 -15.610 -25.641  0.00  0.00    +0.253 C 
ENDBRANCH   3   7
BRANCH   5   9
ATOM      9  O   UNL     1      31.893 -13.207 -22.823  0.00  0.00    -0.503 OA
ATOM     10  H   UNL     1      31.486 -12.662 -22.179  0.00  0.00    +0.292 HD
ENDBRANCH   5   9
BRANCH   1  11
ATOM     11  C   UNL     1      35.201 -17.473 -21.176  0.00  0.00    +0.052 C 
BRANCH  11  12
ATOM     12  C   UNL     1      34.668 -18.823 -21.581  0.00  0.00    -0.021 C 
ATOM     13  C   UNL     1      33.637 -19.434 -20.987  0.00  0.00    -0.005 C 
ENDBRANCH  11  12
ENDBRANCH   1  11
TORSDOF 4
ENDMDL
MODEL 8
REMARK VINA RESULT:      -6.2      2.164      4.179
REMARK  Name = 3314
REMARK  4 active torsions:
REMARK  status: ('A' for Active; 'I' for Inactive)
REMARK    1  A    between atoms: C_1  and  C_11
REMARK    2  A    between atoms: C_3  and  O_7
REMARK    3  A    between atoms: C_5  and  O_9
REMARK    4  A    between atoms: C_11  and  C_12
REMARK                            x       y       z     vdW  Elec       q    Type
REMARK                         _______ _______ _______ _____ _____    ______ ____
ROOT
ATOM      1  C   UNL     1      34.582 -16.284 -21.705  0.00  0.00    -0.015 C 
ATOM      2  C   UNL     1      34.376 -17.568 -21.199  0.00  0.00    +0.036 C 
ATOM      3  C   UNL     1      34.497 -18.676 -22.037  0.00  0.00    +0.172 C 
ATOM      4  C   UNL     1      34.907 -16.108 -23.050  0.00  0.00    -0.001 C 
ATOM      5  C   UNL     1      34.823 -18.500 -23.382  0.00  0.00    +0.168 C 
ATOM      6  C   UNL     1      35.028 -17.216 -23.889  0.00  0.00    +0.039 C 
ENDROOT
BRANCH   3   7
ATOM      7  O   UNL     1      34.294 -19.924 -21.532  0.00  0.00    -0.468 OA
ATOM      8  C   UNL     1      33.195 -20.092 -20.639  0.00  0.00    +0.253 C 
ENDBRANCH   3   7
BRANCH   5   9
ATOM      9  O   UNL     1      34.942 -19.574 -24.212  0.00  0.00    -0.503 OA
ATOM     10  H   UNL     1      35.760 -20.026 -24.279  0.00  0.00    +0.292 HD
ENDBRANCH   5   9
BRANCH   1  11
ATOM     11  C   UNL     1      34.453 -15.100 -20.807  0.00  0.00    +0.052 C 
BRANCH  11  12
ATOM     12  C   UNL     1      33.030 -14.629 -20.653  0.00  0.00    -0.021 C 
ATOM     13  C   UNL     1      32.433 -13.759 -21.475  0.00  0.00    -0.005 C 
ENDBRANCH  11  12
ENDBRANCH   1  11
TORSDOF 4
ENDMDL
MODEL 9
REMARK VINA RESULT:      -6.2      2.401      5.277
REMARK  Name = 3314
REMARK  4 active torsions:
REMARK  status: ('A' for Active; 'I' for Inactive)
REMARK    1  A    between atoms: C_1  and  C_11
REMARK    2  A    between atoms: C_3  and  O_7
REMARK    3  A    between atoms: C_5  and  O_9
REMARK    4  A    between atoms: C_11  and  C_12
REMARK                            x       y       z     vdW  Elec       q    Type
REMARK                         _______ _______ _______ _____ _____    ______ ____
ROOT
ATOM      1  C   UNL     1      34.211 -14.881 -23.099  0.00  0.00    -0.015 C 
ATOM      2  C   UNL     1      34.714 -16.062 -23.646  0.00  0.00    +0.036 C 
ATOM      3  C   UNL     1      35.163 -17.083 -22.809  0.00  0.00    +0.172 C 
ATOM      4  C   UNL     1      34.158 -14.722 -21.714  0.00  0.00    -0.001 C 
ATOM      5  C   UNL     1      35.109 -16.924 -21.425  0.00  0.00    +0.168 C 
ATOM      6  C   UNL     1      34.606 -15.744 -20.877  0.00  0.00    +0.039 C 
ENDROOT
BRANCH   3   7
ATOM      7  O   UNL     1      35.652 -18.231 -23.355  0.00  0.00    -0.468 OA
ATOM      8  C   UNL     1      34.773 -18.974 -24.197  0.00  0.00    +0.253 C 
ENDBRANCH   3   7
BRANCH   5   9
ATOM      9  O   UNL     1      35.546 -17.914 -20.597  0.00  0.00    -0.503 OA
ATOM     10  H   UNL     1      36.139 -17.713 -19.899  0.00  0.00    +0.292 HD
ENDBRANCH   5   9
BRANCH   1  11
ATOM     11  C   UNL     1      33.731 -13.790 -23.994  0.00  0.00    +0.052 C 
BRANCH  11  12
ATOM     12  C   UNL     1      33.010 -14.303 -25.215  0.00  0.00    -0.021 C 
ATOM     13  C   UNL     1      33.175 -13.809 -26.447  0.00  0.00    -0.005 C 
ENDBRANCH  11  12
ENDBRANCH   1  11
TORSDOF 4
ENDMDL
