MODEL 1
REMARK VINA RESULT:      -5.2      0.000      0.000
REMARK  Name = 447029
REMARK  3 active torsions:
REMARK  status: ('A' for Active; 'I' for Inactive)
REMARK    1  A    between atoms: N_1  and  C_4
REMARK    2  A    between atoms: N_1  and  C_8
REMARK    3  A    between atoms: N_2  and  O_11
REMARK                            x       y       z     vdW  Elec       q    Type
REMARK                         _______ _______ _______ _____ _____    ______ ____
ROOT
ATOM      1  N   UNL     1      36.216 -27.059 -15.285  0.00  0.00    -0.237 N 
ATOM      2  N   UNL     1      36.500 -26.113 -13.240  0.00  0.00    -0.368 N 
ATOM      3  C   UNL     1      37.134 -26.666 -14.333  0.00  0.00    +0.215 C 
ATOM      4  H   UNL     1      35.253 -27.099 -15.087  0.00  0.00    +0.197 HD
ATOM      5  H   UNL     1      37.030 -25.786 -12.477  0.00  0.00    +0.159 HD
ATOM      6  H   UNL     1      35.519 -26.046 -13.222  0.00  0.00    +0.159 HD
ENDROOT
BRANCH   1   7
ATOM      7  O   UNL     1      36.714 -27.393 -16.526  0.00  0.00    -0.287 OA
ATOM      8  H   UNL     1      36.575 -28.340 -16.686  0.00  0.00    +0.244 HD
ENDBRANCH   1   7
BRANCH   3   9
ATOM      9  N   UNL     1      38.415 -26.826 -14.491  0.00  0.00    -0.240 NA
BRANCH   9  10
ATOM     10  C   UNL     1      39.273 -25.687 -14.189  0.00  0.00    +0.106 C 
ATOM     11  C   UNL     1      40.727 -26.118 -14.317  0.00  0.00    +0.026 C 
ATOM     12  C   UNL     1      38.937 -24.548 -15.139  0.00  0.00    +0.026 C 
ENDBRANCH   9  10
ENDBRANCH   3   9
TORSDOF 3
ENDMDL
MODEL 2
REMARK VINA RESULT:      -4.9      1.239      1.364
REMARK  Name = 447029
REMARK  3 active torsions:
REMARK  status: ('A' for Active; 'I' for Inactive)
REMARK    1  A    between atoms: N_1  and  C_4
REMARK    2  A    between atoms: N_1  and  C_8
REMARK    3  A    between atoms: N_2  and  O_11
REMARK                            x       y       z     vdW  Elec       q    Type
REMARK                         _______ _______ _______ _____ _____    ______ ____
ROOT
ATOM      1  N   UNL     1      36.057 -26.879 -15.387  0.00  0.00    -0.237 N 
ATOM      2  N   UNL     1      35.415 -25.199 -14.001  0.00  0.00    -0.368 N 
ATOM      3  C   UNL     1      36.452 -25.725 -14.744  0.00  0.00    +0.215 C 
ATOM      4  H   UNL     1      35.212 -27.331 -15.163  0.00  0.00    +0.197 HD
ATOM      5  H   UNL     1      35.550 -24.372 -13.485  0.00  0.00    +0.159 HD
ATOM      6  H   UNL     1      34.541 -25.651 -13.986  0.00  0.00    +0.159 HD
ENDROOT
BRANCH   1   7
ATOM      7  O   UNL     1      36.905 -27.370 -16.356  0.00  0.00    -0.287 OA
ATOM      8  H   UNL     1      37.819 -27.343 -16.031  0.00  0.00    +0.244 HD
ENDBRANCH   1   7
BRANCH   3   9
ATOM      9  N   UNL     1      37.655 -25.243 -14.850  0.00  0.00    -0.240 NA
BRANCH   9  10
ATOM     10  C   UNL     1      38.639 -25.676 -13.866  0.00  0.00    +0.106 C 
ATOM     11  C   UNL     1      40.012 -25.705 -14.521  0.00  0.00    +0.026 C 
ATOM     12  C   UNL     1      38.601 -24.728 -12.678  0.00  0.00    +0.026 C 
ENDBRANCH   9  10
ENDBRANCH   3   9
TORSDOF 3
ENDMDL
MODEL 3
REMARK VINA RESULT:      -4.8      2.371      3.062
REMARK  Name = 447029
REMARK  3 active torsions:
REMARK  status: ('A' for Active; 'I' for Inactive)
REMARK    1  A    between atoms: N_1  and  C_4
REMARK    2  A    between atoms: N_1  and  C_8
REMARK    3  A    between atoms: N_2  and  O_11
REMARK                            x       y       z     vdW  Elec       q    Type
REMARK                         _______ _______ _______ _____ _____    ______ ____
ROOT
ATOM      1  N   UNL     1      36.329 -26.921 -15.051  0.00  0.00    -0.237 N 
ATOM      2  N   UNL     1      35.797 -25.405 -13.447  0.00  0.00    -0.368 N 
ATOM      3  C   UNL     1      36.344 -25.588 -14.700  0.00  0.00    +0.215 C 
ATOM      4  H   UNL     1      36.128 -27.626 -14.394  0.00  0.00    +0.197 HD
ATOM      5  H   UNL     1      35.741 -24.501 -13.062  0.00  0.00    +0.159 HD
ATOM      6  H   UNL     1      35.463 -26.178 -12.938  0.00  0.00    +0.159 HD
ENDROOT
BRANCH   1   7
ATOM      7  O   UNL     1      36.610 -27.219 -16.367  0.00  0.00    -0.287 OA
ATOM      8  H   UNL     1      36.481 -26.428 -16.913  0.00  0.00    +0.244 HD
ENDBRANCH   1   7
BRANCH   3   9
ATOM      9  N   UNL     1      36.829 -24.666 -15.479  0.00  0.00    -0.240 NA
BRANCH   9  10
ATOM     10  C   UNL     1      36.270 -23.326 -15.358  0.00  0.00    +0.106 C 
ATOM     11  C   UNL     1      37.244 -22.329 -15.968  0.00  0.00    +0.026 C 
ATOM     12  C   UNL     1      34.917 -23.290 -16.053  0.00  0.00    +0.026 C 
ENDBRANCH   9  10
ENDBRANCH   3   9
TORSDOF 3
ENDMDL
MODEL 4
REMARK VINA RESULT:      -4.7     11.305     12.131
REMARK  Name = 447029
REMARK  3 active torsions:
REMARK  status: ('A' for Active; 'I' for Inactive)
REMARK    1  A    between atoms: N_1  and  C_4
REMARK    2  A    between atoms: N_1  and  C_8
REMARK    3  A    between atoms: N_2  and  O_11
REMARK                            x       y       z     vdW  Elec       q    Type
REMARK                         _______ _______ _______ _____ _____    ______ ____
ROOT
ATOM      1  N   UNL     1      35.391 -17.014 -24.274  0.00  0.00    -0.237 N 
ATOM      2  N   UNL     1      34.500 -19.077 -24.605  0.00  0.00    -0.368 N 
ATOM      3  C   UNL     1      34.812 -18.111 -23.671  0.00  0.00    +0.215 C 
ATOM      4  H   UNL     1      35.696 -17.041 -25.210  0.00  0.00    +0.197 HD
ATOM      5  H   UNL     1      34.080 -19.920 -24.320  0.00  0.00    +0.159 HD
ATOM      6  H   UNL     1      34.698 -18.923 -25.557  0.00  0.00    +0.159 HD
ENDROOT
BRANCH   1   7
ATOM      7  O   UNL     1      35.522 -15.879 -23.503  0.00  0.00    -0.287 OA
ATOM      8  H   UNL     1      34.920 -15.193 -23.831  0.00  0.00    +0.244 HD
ENDBRANCH   1   7
BRANCH   3   9
ATOM      9  N   UNL     1      34.617 -18.179 -22.387  0.00  0.00    -0.240 NA
BRANCH   9  10
ATOM     10  C   UNL     1      34.744 -19.488 -21.760  0.00  0.00    +0.106 C 
ATOM     11  C   UNL     1      35.969 -19.487 -20.858  0.00  0.00    +0.026 C 
ATOM     12  C   UNL     1      33.472 -19.789 -20.981  0.00  0.00    +0.026 C 
ENDBRANCH   9  10
ENDBRANCH   3   9
TORSDOF 3
ENDMDL
MODEL 5
REMARK VINA RESULT:      -4.6     10.148     10.921
REMARK  Name = 447029
REMARK  3 active torsions:
REMARK  status: ('A' for Active; 'I' for Inactive)
REMARK    1  A    between atoms: N_1  and  C_4
REMARK    2  A    between atoms: N_1  and  C_8
REMARK    3  A    between atoms: N_2  and  O_11
REMARK                            x       y       z     vdW  Elec       q    Type
REMARK                         _______ _______ _______ _____ _____    ______ ____
ROOT
ATOM      1  N   UNL     1      35.306 -16.624 -21.751  0.00  0.00    -0.237 N 
ATOM      2  N   UNL     1      35.835 -18.270 -23.224  0.00  0.00    -0.368 N 
ATOM      3  C   UNL     1      35.708 -17.936 -21.891  0.00  0.00    +0.215 C 
ATOM      4  H   UNL     1      35.311 -15.999 -22.511  0.00  0.00    +0.197 HD
ATOM      5  H   UNL     1      36.118 -19.178 -23.478  0.00  0.00    +0.159 HD
ATOM      6  H   UNL     1      35.645 -17.600 -23.919  0.00  0.00    +0.159 HD
ENDROOT
BRANCH   1   7
ATOM      7  O   UNL     1      34.898 -16.231 -20.495  0.00  0.00    -0.287 OA
ATOM      8  H   UNL     1      34.719 -15.278 -20.495  0.00  0.00    +0.244 HD
ENDBRANCH   1   7
BRANCH   3   9
ATOM      9  N   UNL     1      35.932 -18.710 -20.871  0.00  0.00    -0.240 NA
BRANCH   9  10
ATOM     10  C   UNL     1      35.361 -20.050 -20.909  0.00  0.00    +0.106 C 
ATOM     11  C   UNL     1      36.054 -20.912 -19.864  0.00  0.00    +0.026 C 
ATOM     12  C   UNL     1      33.863 -19.957 -20.660  0.00  0.00    +0.026 C 
ENDBRANCH   9  10
ENDBRANCH   3   9
TORSDOF 3
ENDMDL
MODEL 6
REMARK VINA RESULT:      -4.6     19.980     20.780
REMARK  Name = 447029
REMARK  3 active torsions:
REMARK  status: ('A' for Active; 'I' for Inactive)
REMARK    1  A    between atoms: N_1  and  C_4
REMARK    2  A    between atoms: N_1  and  C_8
REMARK    3  A    between atoms: N_2  and  O_11
REMARK                            x       y       z     vdW  Elec       q    Type
REMARK                         _______ _______ _______ _____ _____    ______ ____
ROOT
ATOM      1  N   UNL     1      32.689  -8.202 -19.959  0.00  0.00    -0.237 N 
ATOM      2  N   UNL     1      32.108  -9.511 -21.721  0.00  0.00    -0.368 N 
ATOM      3  C   UNL     1      32.510  -8.252 -21.325  0.00  0.00    +0.215 C 
ATOM      4  H   UNL     1      32.376  -8.926 -19.370  0.00  0.00    +0.197 HD
ATOM      5  H   UNL     1      31.940  -9.697 -22.673  0.00  0.00    +0.159 HD
ATOM      6  H   UNL     1      31.988 -10.223 -21.052  0.00  0.00    +0.159 HD
ENDROOT
BRANCH   1   7
ATOM      7  O   UNL     1      33.328  -7.089 -19.457  0.00  0.00    -0.287 OA
ATOM      8  H   UNL     1      32.750  -6.644 -18.818  0.00  0.00    +0.244 HD
ENDBRANCH   1   7
BRANCH   3   9
ATOM      9  N   UNL     1      32.701  -7.220 -22.092  0.00  0.00    -0.240 NA
BRANCH   9  10
ATOM     10  C   UNL     1      33.231  -7.466 -23.427  0.00  0.00    +0.106 C 
ATOM     11  C   UNL     1      32.806  -6.330 -24.345  0.00  0.00    +0.026 C 
ATOM     12  C   UNL     1      34.746  -7.587 -23.343  0.00  0.00    +0.026 C 
ENDBRANCH   9  10
ENDBRANCH   3   9
TORSDOF 3
ENDMDL
MODEL 7
REMARK VINA RESULT:      -4.5     11.920     12.377
REMARK  Name = 447029
REMARK  3 active torsions:
REMARK  status: ('A' for Active; 'I' for Inactive)
REMARK    1  A    between atoms: N_1  and  C_4
REMARK    2  A    between atoms: N_1  and  C_8
REMARK    3  A    between atoms: N_2  and  O_11
REMARK                            x       y       z     vdW  Elec       q    Type
REMARK                         _______ _______ _______ _____ _____    ______ ____
ROOT
ATOM      1  N   UNL     1      40.525 -14.944 -15.016  0.00  0.00    -0.237 N 
ATOM      2  N   UNL     1      41.723 -13.046 -15.361  0.00  0.00    -0.368 N 
ATOM      3  C   UNL     1      41.646 -14.401 -15.607  0.00  0.00    +0.215 C 
ATOM      4  H   UNL     1      39.991 -14.439 -14.360  0.00  0.00    +0.197 HD
ATOM      5  H   UNL     1      42.474 -12.523 -15.721  0.00  0.00    +0.159 HD
ATOM      6  H   UNL     1      41.027 -12.603 -14.824  0.00  0.00    +0.159 HD
ENDROOT
BRANCH   1   7
ATOM      7  O   UNL     1      40.188 -16.228 -15.386  0.00  0.00    -0.287 OA
ATOM      8  H   UNL     1      40.908 -16.614 -15.911  0.00  0.00    +0.244 HD
ENDBRANCH   1   7
BRANCH   3   9
ATOM      9  N   UNL     1      42.492 -15.117 -16.289  0.00  0.00    -0.240 NA
BRANCH   9  10
ATOM     10  C   UNL     1      42.717 -14.742 -17.679  0.00  0.00    +0.106 C 
ATOM     11  C   UNL     1      43.551 -15.823 -18.352  0.00  0.00    +0.026 C 
ATOM     12  C   UNL     1      41.373 -14.558 -18.366  0.00  0.00    +0.026 C 
ENDBRANCH   9  10
ENDBRANCH   3   9
TORSDOF 3
ENDMDL
MODEL 8
REMARK VINA RESULT:      -4.5      6.138      6.924
REMARK  Name = 447029
REMARK  3 active torsions:
REMARK  status: ('A' for Active; 'I' for Inactive)
REMARK    1  A    between atoms: N_1  and  C_4
REMARK    2  A    between atoms: N_1  and  C_8
REMARK    3  A    between atoms: N_2  and  O_11
REMARK                            x       y       z     vdW  Elec       q    Type
REMARK                         _______ _______ _______ _____ _____    ______ ____
ROOT
ATOM      1  N   UNL     1      33.086 -22.936 -18.047  0.00  0.00    -0.237 N 
ATOM      2  N   UNL     1      32.827 -21.669 -19.913  0.00  0.00    -0.368 N 
ATOM      3  C   UNL     1      33.723 -22.364 -19.128  0.00  0.00    +0.215 C 
ATOM      4  H   UNL     1      32.163 -22.695 -17.805  0.00  0.00    +0.197 HD
ATOM      5  H   UNL     1      33.139 -21.205 -20.723  0.00  0.00    +0.159 HD
ATOM      6  H   UNL     1      31.876 -21.635 -19.663  0.00  0.00    +0.159 HD
ENDROOT
BRANCH   1   7
ATOM      7  O   UNL     1      33.805 -23.862 -17.323  0.00  0.00    -0.287 OA
ATOM      8  H   UNL     1      33.286 -24.146 -16.554  0.00  0.00    +0.244 HD
ENDBRANCH   1   7
BRANCH   3   9
ATOM      9  N   UNL     1      35.002 -22.486 -19.330  0.00  0.00    -0.240 NA
BRANCH   9  10
ATOM     10  C   UNL     1      35.851 -21.370 -18.934  0.00  0.00    +0.106 C 
ATOM     11  C   UNL     1      36.754 -21.817 -17.793  0.00  0.00    +0.026 C 
ATOM     12  C   UNL     1      36.654 -20.907 -20.140  0.00  0.00    +0.026 C 
ENDBRANCH   9  10
ENDBRANCH   3   9
TORSDOF 3
ENDMDL
MODEL 9
REMARK VINA RESULT:      -4.5     13.390     14.219
REMARK  Name = 447029
REMARK  3 active torsions:
REMARK  status: ('A' for Active; 'I' for Inactive)
REMARK    1  A    between atoms: N_1  and  C_4
REMARK    2  A    between atoms: N_1  and  C_8
REMARK    3  A    between atoms: N_2  and  O_11
REMARK                            x       y       z     vdW  Elec       q    Type
REMARK                         _______ _______ _______ _____ _____    ______ ____
ROOT
ATOM      1  N   UNL     1      35.032 -16.938 -25.141  0.00  0.00    -0.237 N 
ATOM      2  N   UNL     1      35.842 -17.643 -23.140  0.00  0.00    -0.368 N 
ATOM      3  C   UNL     1      35.258 -16.597 -23.824  0.00  0.00    +0.215 C 
ATOM      4  H   UNL     1      35.423 -17.749 -25.539  0.00  0.00    +0.197 HD
ATOM      5  H   UNL     1      36.063 -17.544 -22.186  0.00  0.00    +0.159 HD
ATOM      6  H   UNL     1      36.037 -18.488 -23.606  0.00  0.00    +0.159 HD
ENDROOT
BRANCH   1   7
ATOM      7  O   UNL     1      34.231 -16.089 -25.873  0.00  0.00    -0.287 OA
ATOM      8  H   UNL     1      33.484 -15.796 -25.327  0.00  0.00    +0.244 HD
ENDBRANCH   1   7
BRANCH   3   9
ATOM      9  N   UNL     1      34.953 -15.428 -23.344  0.00  0.00    -0.240 NA
BRANCH   9  10
ATOM     10  C   UNL     1      33.859 -15.365 -22.382  0.00  0.00    +0.106 C 
ATOM     11  C   UNL     1      34.434 -15.098 -20.999  0.00  0.00    +0.026 C 
ATOM     12  C   UNL     1      32.887 -14.275 -22.809  0.00  0.00    +0.026 C 
ENDBRANCH   9  10
ENDBRANCH   3   9
TORSDOF 3
ENDMDL
