MODEL 1
REMARK VINA RESULT:     -12.0      0.000      0.000
REMARK  Name = 54576693
REMARK  3 active torsions:
REMARK  status: ('A' for Active; 'I' for Inactive)
REMARK    1  A    between atoms: N_2  and  C_19
REMARK    2  A    between atoms: N_4  and  C_14
REMARK    3  A    between atoms: C_19  and  C_24
REMARK                            x       y       z     vdW  Elec       q    Type
REMARK                         _______ _______ _______ _____ _____    ______ ____
ROOT
ATOM      1  O   UNL     1      34.998 -19.257 -23.762  0.00  0.00    -0.252 OA
ATOM      2  N   UNL     1      33.835 -14.432 -24.243  0.00  0.00    +0.392 N 
ATOM      3  N   UNL     1      34.747 -16.999 -23.325  0.00  0.00    -0.268 N 
ATOM      4  N   UNL     1      34.942 -18.547 -21.554  0.00  0.00    -0.266 N 
ATOM      5  C   UNL     1      33.651 -15.626 -25.077  0.00  0.00    -0.055 C 
ATOM      6  C   UNL     1      33.727 -14.787 -22.823  0.00  0.00    -0.055 C 
ATOM      7  C   UNL     1      34.771 -15.836 -22.427  0.00  0.00    +0.072 C 
ATOM      8  C   UNL     1      34.716 -16.671 -24.752  0.00  0.00    +0.072 C 
ATOM      9  C   UNL     1      34.895 -18.349 -22.935  0.00  0.00    +0.308 C 
ATOM     10  H   UNL     1      34.766 -14.052 -24.415  0.00  0.00    -0.079 HD
ATOM     11  H   UNL     1      35.320 -17.810 -21.020  0.00  0.00    +0.156 HD
ENDROOT
BRANCH   4  14
ATOM     12 CL   UNL     1      37.095 -20.258 -20.197  0.00  0.00    -0.081 Cl
ATOM     13  N   UNL     1      32.645 -21.048 -20.112  0.00  0.00    -0.241 NA
ATOM     14  C   UNL     1      34.507 -19.687 -20.835  0.00  0.00    +0.082 C 
ATOM     15  C   UNL     1      35.392 -20.537 -20.179  0.00  0.00    +0.074 C 
ATOM     16  C   UNL     1      33.156 -19.985 -20.771  0.00  0.00    +0.114 C 
ATOM     17  C   UNL     1      34.904 -21.643 -19.491  0.00  0.00    +0.033 C 
ATOM     18  C   UNL     1      33.534 -21.852 -19.488  0.00  0.00    +0.100 C 
ENDBRANCH   4  14
BRANCH   2  19
ATOM     19  C   UNL     1      32.852 -13.406 -24.592  0.00  0.00    -0.050 C 
BRANCH  19  24
ATOM     20  F   UNL     1      33.292  -6.748 -23.465  0.00  0.00    -0.125 F 
ATOM     21  F   UNL     1      34.713  -7.454 -21.958  0.00  0.00    -0.125 F 
ATOM     22  O   UNL     1      33.073  -8.856 -22.657  0.00  0.00    -0.395 OA
ATOM     23  O   UNL     1      34.909  -8.210 -24.087  0.00  0.00    -0.395 OA
ATOM     24  C   UNL     1      33.428 -12.019 -24.484  0.00  0.00    -0.040 C 
ATOM     25  C   UNL     1      32.897 -11.119 -23.557  0.00  0.00    +0.034 C 
ATOM     26  C   UNL     1      34.497 -11.644 -25.316  0.00  0.00    -0.003 C 
ATOM     27  C   UNL     1      33.458  -9.860 -23.493  0.00  0.00    +0.181 C 
ATOM     28  C   UNL     1      34.506  -9.491 -24.309  0.00  0.00    +0.182 C 
ATOM     29  C   UNL     1      35.048 -10.362 -25.232  0.00  0.00    +0.040 C 
ATOM     30  C   UNL     1      33.997  -7.829 -23.048  0.00  0.00    +0.589 C 
ENDBRANCH  19  24
ENDBRANCH   2  19
TORSDOF 3
ENDMDL
MODEL 2
REMARK VINA RESULT:     -11.9      5.428     10.497
REMARK  Name = 54576693
REMARK  3 active torsions:
REMARK  status: ('A' for Active; 'I' for Inactive)
REMARK    1  A    between atoms: N_2  and  C_19
REMARK    2  A    between atoms: N_4  and  C_14
REMARK    3  A    between atoms: C_19  and  C_24
REMARK                            x       y       z     vdW  Elec       q    Type
REMARK                         _______ _______ _______ _____ _____    ______ ____
ROOT
ATOM      1  O   UNL     1      33.559 -13.033 -25.577  0.00  0.00    -0.252 OA
ATOM      2  N   UNL     1      34.431 -16.868 -22.513  0.00  0.00    +0.392 N 
ATOM      3  N   UNL     1      33.556 -14.410 -23.718  0.00  0.00    -0.268 N 
ATOM      4  N   UNL     1      33.147 -12.095 -23.494  0.00  0.00    -0.266 N 
ATOM      5  C   UNL     1      34.855 -16.517 -23.874  0.00  0.00    -0.055 C 
ATOM      6  C   UNL     1      34.296 -15.655 -21.697  0.00  0.00    -0.055 C 
ATOM      7  C   UNL     1      33.278 -14.684 -22.302  0.00  0.00    +0.072 C 
ATOM      8  C   UNL     1      33.829 -15.597 -24.530  0.00  0.00    +0.072 C 
ATOM      9  C   UNL     1      33.438 -13.155 -24.356  0.00  0.00    +0.308 C 
ATOM     10  H   UNL     1      33.522 -17.331 -22.562  0.00  0.00    -0.079 HD
ATOM     11  H   UNL     1      32.622 -12.318 -22.691  0.00  0.00    +0.156 HD
ENDROOT
BRANCH   4  14
ATOM     12 CL   UNL     1      31.301  -9.980 -22.259  0.00  0.00    -0.081 Cl
ATOM     13  N   UNL     1      35.125  -9.157 -24.528  0.00  0.00    -0.241 NA
ATOM     14  C   UNL     1      33.523 -10.738 -23.645  0.00  0.00    +0.082 C 
ATOM     15  C   UNL     1      32.764  -9.692 -23.129  0.00  0.00    +0.074 C 
ATOM     16  C   UNL     1      34.684 -10.419 -24.331  0.00  0.00    +0.114 C 
ATOM     17  C   UNL     1      33.185  -8.379 -23.312  0.00  0.00    +0.033 C 
ATOM     18  C   UNL     1      34.362  -8.167 -24.011  0.00  0.00    +0.100 C 
ENDBRANCH   4  14
BRANCH   2  19
ATOM     19  C   UNL     1      35.382 -17.795 -21.901  0.00  0.00    -0.050 C 
BRANCH  19  24
ATOM     20  F   UNL     1      34.103 -23.990 -19.498  0.00  0.00    -0.125 F 
ATOM     21  F   UNL     1      34.234 -22.900 -17.606  0.00  0.00    -0.125 F 
ATOM     22  O   UNL     1      35.318 -22.077 -19.420  0.00  0.00    -0.395 OA
ATOM     23  O   UNL     1      32.909 -22.079 -19.252  0.00  0.00    -0.395 OA
ATOM     24  C   UNL     1      34.686 -18.930 -21.198  0.00  0.00    -0.040 C 
ATOM     25  C   UNL     1      35.439 -19.970 -20.647  0.00  0.00    +0.034 C 
ATOM     26  C   UNL     1      33.283 -18.930 -21.099  0.00  0.00    -0.003 C 
ATOM     27  C   UNL     1      34.756 -20.987 -20.012  0.00  0.00    +0.181 C 
ATOM     28  C   UNL     1      33.381 -20.988 -19.915  0.00  0.00    +0.182 C 
ATOM     29  C   UNL     1      32.616 -19.972 -20.450  0.00  0.00    +0.040 C 
ATOM     30  C   UNL     1      34.140 -22.750 -18.950  0.00  0.00    +0.589 C 
ENDBRANCH  19  24
ENDBRANCH   2  19
TORSDOF 3
ENDMDL
MODEL 3
REMARK VINA RESULT:     -11.9      1.571      2.205
REMARK  Name = 54576693
REMARK  3 active torsions:
REMARK  status: ('A' for Active; 'I' for Inactive)
REMARK    1  A    between atoms: N_2  and  C_19
REMARK    2  A    between atoms: N_4  and  C_14
REMARK    3  A    between atoms: C_19  and  C_24
REMARK                            x       y       z     vdW  Elec       q    Type
REMARK                         _______ _______ _______ _____ _____    ______ ____
ROOT
ATOM      1  O   UNL     1      35.852 -18.632 -23.164  0.00  0.00    -0.252 OA
ATOM      2  N   UNL     1      33.487 -14.245 -23.015  0.00  0.00    +0.392 N 
ATOM      3  N   UNL     1      34.988 -16.621 -22.413  0.00  0.00    -0.268 N 
ATOM      4  N   UNL     1      35.479 -18.357 -20.890  0.00  0.00    -0.266 N 
ATOM      5  C   UNL     1      33.676 -15.282 -24.037  0.00  0.00    -0.055 C 
ATOM      6  C   UNL     1      33.392 -14.859 -21.685  0.00  0.00    -0.055 C 
ATOM      7  C   UNL     1      34.650 -15.666 -21.350  0.00  0.00    +0.072 C 
ATOM      8  C   UNL     1      34.957 -16.067 -23.768  0.00  0.00    +0.072 C 
ATOM      9  C   UNL     1      35.464 -17.938 -22.222  0.00  0.00    +0.308 C 
ATOM     10  H   UNL     1      34.294 -13.620 -23.029  0.00  0.00    -0.079 HD
ATOM     11  H   UNL     1      35.617 -17.654 -20.213  0.00  0.00    +0.156 HD
ENDROOT
BRANCH   4  14
ATOM     12 CL   UNL     1      32.617 -19.438 -20.677  0.00  0.00    -0.081 Cl
ATOM     13  N   UNL     1      36.383 -21.683 -19.574  0.00  0.00    -0.241 NA
ATOM     14  C   UNL     1      35.319 -19.677 -20.404  0.00  0.00    +0.082 C 
ATOM     15  C   UNL     1      34.069 -20.273 -20.263  0.00  0.00    +0.074 C 
ATOM     16  C   UNL     1      36.434 -20.419 -20.048  0.00  0.00    +0.114 C 
ATOM     17  C   UNL     1      33.976 -21.574 -19.778  0.00  0.00    +0.033 C 
ATOM     18  C   UNL     1      35.152 -22.230 -19.451  0.00  0.00    +0.100 C 
ENDBRANCH   4  14
BRANCH   2  19
ATOM     19  C   UNL     1      32.291 -13.453 -23.301  0.00  0.00    -0.050 C 
BRANCH  19  24
ATOM     20  F   UNL     1      35.476  -7.486 -23.084  0.00  0.00    -0.125 F 
ATOM     21  F   UNL     1      33.992  -7.037 -24.629  0.00  0.00    -0.125 F 
ATOM     22  O   UNL     1      34.608  -9.194 -24.297  0.00  0.00    -0.395 OA
ATOM     23  O   UNL     1      33.297  -7.968 -22.682  0.00  0.00    -0.395 OA
ATOM     24  C   UNL     1      32.535 -11.980 -23.109  0.00  0.00    -0.040 C 
ATOM     25  C   UNL     1      33.516 -11.335 -23.867  0.00  0.00    +0.034 C 
ATOM     26  C   UNL     1      31.772 -11.266 -22.168  0.00  0.00    -0.003 C 
ATOM     27  C   UNL     1      33.703  -9.985 -23.656  0.00  0.00    +0.181 C 
ATOM     28  C   UNL     1      32.955  -9.284 -22.734  0.00  0.00    +0.182 C 
ATOM     29  C   UNL     1      31.981  -9.898 -21.974  0.00  0.00    +0.040 C 
ATOM     30  C   UNL     1      34.337  -7.932 -23.670  0.00  0.00    +0.589 C 
ENDBRANCH  19  24
ENDBRANCH   2  19
TORSDOF 3
ENDMDL
MODEL 4
REMARK VINA RESULT:     -11.7      4.025      6.184
REMARK  Name = 54576693
REMARK  3 active torsions:
REMARK  status: ('A' for Active; 'I' for Inactive)
REMARK    1  A    between atoms: N_2  and  C_19
REMARK    2  A    between atoms: N_4  and  C_14
REMARK    3  A    between atoms: C_19  and  C_24
REMARK                            x       y       z     vdW  Elec       q    Type
REMARK                         _______ _______ _______ _____ _____    ______ ____
ROOT
ATOM      1  O   UNL     1      32.337 -22.058 -18.492  0.00  0.00    -0.252 OA
ATOM      2  N   UNL     1      35.146 -19.163 -21.423  0.00  0.00    +0.392 N 
ATOM      3  N   UNL     1      34.117 -21.240 -19.723  0.00  0.00    -0.268 N 
ATOM      4  N   UNL     1      34.485 -22.747 -17.943  0.00  0.00    -0.266 N 
ATOM      5  C   UNL     1      33.788 -19.067 -20.873  0.00  0.00    -0.055 C 
ATOM      6  C   UNL     1      36.032 -19.837 -20.465  0.00  0.00    -0.055 C 
ATOM      7  C   UNL     1      35.528 -21.245 -20.133  0.00  0.00    +0.072 C 
ATOM      8  C   UNL     1      33.230 -20.459 -20.587  0.00  0.00    +0.072 C 
ATOM      9  C   UNL     1      33.554 -22.019 -18.687  0.00  0.00    +0.308 C 
ATOM     10  H   UNL     1      35.114 -19.714 -22.282  0.00  0.00    -0.079 HD
ATOM     11  H   UNL     1      35.298 -23.031 -18.419  0.00  0.00    +0.156 HD
ENDROOT
BRANCH   4  14
ATOM     12 CL   UNL     1      37.022 -22.496 -16.237  0.00  0.00    -0.081 Cl
ATOM     13  N   UNL     1      32.994 -23.955 -14.791  0.00  0.00    -0.241 NA
ATOM     14  C   UNL     1      34.390 -23.120 -16.579  0.00  0.00    +0.082 C 
ATOM     15  C   UNL     1      35.474 -23.049 -15.710  0.00  0.00    +0.074 C 
ATOM     16  C   UNL     1      33.183 -23.575 -16.074  0.00  0.00    +0.114 C 
ATOM     17  C   UNL     1      35.319 -23.432 -14.382  0.00  0.00    +0.033 C 
ATOM     18  C   UNL     1      34.070 -23.873 -13.976  0.00  0.00    +0.100 C 
ENDBRANCH   4  14
BRANCH   2  19
ATOM     19  C   UNL     1      35.662 -17.835 -21.752  0.00  0.00    -0.050 C 
BRANCH  19  24
ATOM     20  F   UNL     1      31.899 -14.218 -26.058  0.00  0.00    -0.125 F 
ATOM     21  F   UNL     1      33.887 -13.544 -26.678  0.00  0.00    -0.125 F 
ATOM     22  O   UNL     1      33.603 -14.322 -24.566  0.00  0.00    -0.395 OA
ATOM     23  O   UNL     1      33.492 -15.769 -26.497  0.00  0.00    -0.395 OA
ATOM     24  C   UNL     1      35.085 -17.313 -23.041  0.00  0.00    -0.040 C 
ATOM     25  C   UNL     1      34.621 -15.998 -23.110  0.00  0.00    +0.034 C 
ATOM     26  C   UNL     1      35.021 -18.156 -24.165  0.00  0.00    -0.003 C 
ATOM     27  C   UNL     1      34.101 -15.564 -24.313  0.00  0.00    +0.181 C 
ATOM     28  C   UNL     1      34.038 -16.390 -25.415  0.00  0.00    +0.182 C 
ATOM     29  C   UNL     1      34.490 -17.693 -25.372  0.00  0.00    +0.040 C 
ATOM     30  C   UNL     1      33.226 -14.473 -25.943  0.00  0.00    +0.589 C 
ENDBRANCH  19  24
ENDBRANCH   2  19
TORSDOF 3
ENDMDL
MODEL 5
REMARK VINA RESULT:     -11.4      2.010      2.694
REMARK  Name = 54576693
REMARK  3 active torsions:
REMARK  status: ('A' for Active; 'I' for Inactive)
REMARK    1  A    between atoms: N_2  and  C_19
REMARK    2  A    between atoms: N_4  and  C_14
REMARK    3  A    between atoms: C_19  and  C_24
REMARK                            x       y       z     vdW  Elec       q    Type
REMARK                         _______ _______ _______ _____ _____    ______ ____
ROOT
ATOM      1  O   UNL     1      35.121 -18.277 -23.261  0.00  0.00    -0.252 OA
ATOM      2  N   UNL     1      33.104 -13.737 -22.828  0.00  0.00    +0.392 N 
ATOM      3  N   UNL     1      34.408 -16.259 -22.380  0.00  0.00    -0.268 N 
ATOM      4  N   UNL     1      34.745 -18.126 -20.975  0.00  0.00    -0.266 N 
ATOM      5  C   UNL     1      33.222 -14.715 -23.917  0.00  0.00    -0.055 C 
ATOM      6  C   UNL     1      32.947 -14.430 -21.543  0.00  0.00    -0.055 C 
ATOM      7  C   UNL     1      34.134 -15.354 -21.256  0.00  0.00    +0.072 C 
ATOM      8  C   UNL     1      34.436 -15.614 -23.694  0.00  0.00    +0.072 C 
ATOM      9  C   UNL     1      34.777 -17.619 -22.276  0.00  0.00    +0.308 C 
ATOM     10  H   UNL     1      33.957 -13.178 -22.795  0.00  0.00    -0.079 HD
ATOM     11  H   UNL     1      34.930 -17.484 -20.252  0.00  0.00    +0.156 HD
ENDROOT
BRANCH   4  14
ATOM     12 CL   UNL     1      37.151 -19.898 -20.282  0.00  0.00    -0.081 Cl
ATOM     13  N   UNL     1      32.811 -21.161 -20.161  0.00  0.00    -0.241 NA
ATOM     14  C   UNL     1      34.477 -19.460 -20.581  0.00  0.00    +0.082 C 
ATOM     15  C   UNL     1      35.487 -20.355 -20.244  0.00  0.00    +0.074 C 
ATOM     16  C   UNL     1      33.167 -19.909 -20.523  0.00  0.00    +0.114 C 
ATOM     17  C   UNL     1      35.160 -21.654 -19.866  0.00  0.00    +0.033 C 
ATOM     18  C   UNL     1      33.819 -22.003 -19.840  0.00  0.00    +0.100 C 
ENDBRANCH   4  14
BRANCH   2  19
ATOM     19  C   UNL     1      31.977 -12.836 -23.066  0.00  0.00    -0.050 C 
BRANCH  19  24
ATOM     20  F   UNL     1      33.474  -7.057 -19.880  0.00  0.00    -0.125 F 
ATOM     21  F   UNL     1      31.412  -6.613 -20.464  0.00  0.00    -0.125 F 
ATOM     22  O   UNL     1      32.590  -8.126 -21.674  0.00  0.00    -0.395 OA
ATOM     23  O   UNL     1      31.854  -8.575 -19.418  0.00  0.00    -0.395 OA
ATOM     24  C   UNL     1      31.932 -11.716 -22.061  0.00  0.00    -0.040 C 
ATOM     25  C   UNL     1      32.315 -10.428 -22.442  0.00  0.00    +0.034 C 
ATOM     26  C   UNL     1      31.504 -11.977 -20.748  0.00  0.00    -0.003 C 
ATOM     27  C   UNL     1      32.257  -9.434 -21.487  0.00  0.00    +0.181 C 
ATOM     28  C   UNL     1      31.837  -9.690 -20.199  0.00  0.00    +0.182 C 
ATOM     29  C   UNL     1      31.454 -10.953 -19.799  0.00  0.00    +0.040 C 
ATOM     30  C   UNL     1      32.330  -7.605 -20.361  0.00  0.00    +0.589 C 
ENDBRANCH  19  24
ENDBRANCH   2  19
TORSDOF 3
ENDMDL
MODEL 6
REMARK VINA RESULT:     -11.2      7.853     12.437
REMARK  Name = 54576693
REMARK  3 active torsions:
REMARK  status: ('A' for Active; 'I' for Inactive)
REMARK    1  A    between atoms: N_2  and  C_19
REMARK    2  A    between atoms: N_4  and  C_14
REMARK    3  A    between atoms: C_19  and  C_24
REMARK                            x       y       z     vdW  Elec       q    Type
REMARK                         _______ _______ _______ _____ _____    ______ ____
ROOT
ATOM      1  O   UNL     1      37.059 -21.167 -17.978  0.00  0.00    -0.252 OA
ATOM      2  N   UNL     1      33.751 -23.706 -15.244  0.00  0.00    +0.392 N 
ATOM      3  N   UNL     1      35.286 -22.522 -17.367  0.00  0.00    -0.268 N 
ATOM      4  N   UNL     1      35.317 -21.473 -19.481  0.00  0.00    -0.266 N 
ATOM      5  C   UNL     1      34.867 -22.802 -14.938  0.00  0.00    -0.055 C 
ATOM      6  C   UNL     1      33.090 -23.288 -16.487  0.00  0.00    -0.055 C 
ATOM      7  C   UNL     1      34.067 -23.285 -17.667  0.00  0.00    +0.072 C 
ATOM      8  C   UNL     1      35.893 -22.822 -16.068  0.00  0.00    +0.072 C 
ATOM      9  C   UNL     1      35.968 -21.668 -18.261  0.00  0.00    +0.308 C 
ATOM     10  H   UNL     1      34.118 -24.649 -15.371  0.00  0.00    -0.079 HD
ATOM     11  H   UNL     1      34.761 -22.219 -19.802  0.00  0.00    +0.156 HD
ENDROOT
BRANCH   4  14
ATOM     12 CL   UNL     1      32.643 -20.278 -20.391  0.00  0.00    -0.081 Cl
ATOM     13  N   UNL     1      36.745 -18.698 -21.451  0.00  0.00    -0.241 NA
ATOM     14  C   UNL     1      35.368 -20.323 -20.307  0.00  0.00    +0.082 C 
ATOM     15  C   UNL     1      34.220 -19.695 -20.781  0.00  0.00    +0.074 C 
ATOM     16  C   UNL     1      36.594 -19.789 -20.668  0.00  0.00    +0.114 C 
ATOM     17  C   UNL     1      34.334 -18.569 -21.590  0.00  0.00    +0.033 C 
ATOM     18  C   UNL     1      35.608 -18.115 -21.892  0.00  0.00    +0.100 C 
ENDBRANCH   4  14
BRANCH   2  19
ATOM     19  C   UNL     1      32.794 -23.734 -14.138  0.00  0.00    -0.050 C 
BRANCH  19  24
ATOM     20  F   UNL     1      26.321 -22.094 -15.236  0.00  0.00    -0.125 F 
ATOM     21  F   UNL     1      27.035 -22.111 -17.305  0.00  0.00    -0.125 F 
ATOM     22  O   UNL     1      28.524 -21.730 -15.637  0.00  0.00    -0.395 OA
ATOM     23  O   UNL     1      27.494 -23.888 -15.974  0.00  0.00    -0.395 OA
ATOM     24  C   UNL     1      31.373 -23.812 -14.629  0.00  0.00    -0.040 C 
ATOM     25  C   UNL     1      30.663 -22.637 -14.887  0.00  0.00    +0.034 C 
ATOM     26  C   UNL     1      30.774 -25.069 -14.826  0.00  0.00    -0.003 C 
ATOM     27  C   UNL     1      29.364 -22.759 -15.336  0.00  0.00    +0.181 C 
ATOM     28  C   UNL     1      28.776 -23.990 -15.528  0.00  0.00    +0.182 C 
ATOM     29  C   UNL     1      29.456 -25.165 -15.281  0.00  0.00    +0.040 C 
ATOM     30  C   UNL     1      27.354 -22.462 -16.034  0.00  0.00    +0.589 C 
ENDBRANCH  19  24
ENDBRANCH   2  19
TORSDOF 3
ENDMDL
MODEL 7
REMARK VINA RESULT:     -11.0      1.316      1.552
REMARK  Name = 54576693
REMARK  3 active torsions:
REMARK  status: ('A' for Active; 'I' for Inactive)
REMARK    1  A    between atoms: N_2  and  C_19
REMARK    2  A    between atoms: N_4  and  C_14
REMARK    3  A    between atoms: C_19  and  C_24
REMARK                            x       y       z     vdW  Elec       q    Type
REMARK                         _______ _______ _______ _____ _____    ______ ____
ROOT
ATOM      1  O   UNL     1      34.963 -18.089 -23.341  0.00  0.00    -0.252 OA
ATOM      2  N   UNL     1      33.117 -13.518 -22.590  0.00  0.00    +0.392 N 
ATOM      3  N   UNL     1      34.395 -16.081 -22.342  0.00  0.00    -0.268 N 
ATOM      4  N   UNL     1      34.827 -17.993 -21.026  0.00  0.00    -0.266 N 
ATOM      5  C   UNL     1      33.098 -14.469 -23.709  0.00  0.00    -0.055 C 
ATOM      6  C   UNL     1      33.074 -14.243 -21.313  0.00  0.00    -0.055 C 
ATOM      7  C   UNL     1      34.261 -15.201 -21.173  0.00  0.00    +0.072 C 
ATOM      8  C   UNL     1      34.305 -15.402 -23.636  0.00  0.00    +0.072 C 
ATOM      9  C   UNL     1      34.739 -17.451 -22.310  0.00  0.00    +0.308 C 
ATOM     10  H   UNL     1      33.983 -12.980 -22.631  0.00  0.00    -0.079 HD
ATOM     11  H   UNL     1      35.101 -17.375 -20.310  0.00  0.00    +0.156 HD
ENDROOT
BRANCH   4  14
ATOM     12 CL   UNL     1      37.246 -19.774 -20.406  0.00  0.00    -0.081 Cl
ATOM     13  N   UNL     1      32.910 -21.035 -20.199  0.00  0.00    -0.241 NA
ATOM     14  C   UNL     1      34.566 -19.331 -20.639  0.00  0.00    +0.082 C 
ATOM     15  C   UNL     1      35.583 -20.230 -20.335  0.00  0.00    +0.074 C 
ATOM     16  C   UNL     1      33.258 -19.780 -20.556  0.00  0.00    +0.114 C 
ATOM     17  C   UNL     1      35.264 -21.532 -19.962  0.00  0.00    +0.033 C 
ATOM     18  C   UNL     1      33.924 -21.881 -19.910  0.00  0.00    +0.100 C 
ENDBRANCH   4  14
BRANCH   2  19
ATOM     19  C   UNL     1      31.994 -12.586 -22.689  0.00  0.00    -0.050 C 
BRANCH  19  24
ATOM     20  F   UNL     1      31.809  -5.969 -24.091  0.00  0.00    -0.125 F 
ATOM     21  F   UNL     1      32.820  -5.889 -22.152  0.00  0.00    -0.125 F 
ATOM     22  O   UNL     1      31.487  -7.663 -22.619  0.00  0.00    -0.395 OA
ATOM     23  O   UNL     1      33.600  -7.312 -23.735  0.00  0.00    -0.395 OA
ATOM     24  C   UNL     1      32.456 -11.184 -22.986  0.00  0.00    -0.040 C 
ATOM     25  C   UNL     1      31.659 -10.099 -22.612  0.00  0.00    +0.034 C 
ATOM     26  C   UNL     1      33.686 -10.980 -23.635  0.00  0.00    -0.003 C 
ATOM     27  C   UNL     1      32.124  -8.833 -22.904  0.00  0.00    +0.181 C 
ATOM     28  C   UNL     1      33.329  -8.633 -23.541  0.00  0.00    +0.182 C 
ATOM     29  C   UNL     1      34.134  -9.688 -23.920  0.00  0.00    +0.040 C 
ATOM     30  C   UNL     1      32.432  -6.721 -23.150  0.00  0.00    +0.589 C 
ENDBRANCH  19  24
ENDBRANCH   2  19
TORSDOF 3
ENDMDL
MODEL 8
REMARK VINA RESULT:     -10.8      5.529     10.975
REMARK  Name = 54576693
REMARK  3 active torsions:
REMARK  status: ('A' for Active; 'I' for Inactive)
REMARK    1  A    between atoms: N_2  and  C_19
REMARK    2  A    between atoms: N_4  and  C_14
REMARK    3  A    between atoms: C_19  and  C_24
REMARK                            x       y       z     vdW  Elec       q    Type
REMARK                         _______ _______ _______ _____ _____    ______ ____
ROOT
ATOM      1  O   UNL     1      31.337  -7.711 -22.303  0.00  0.00    -0.252 OA
ATOM      2  N   UNL     1      33.480 -12.084 -23.375  0.00  0.00    +0.392 N 
ATOM      3  N   UNL     1      32.867  -9.301 -23.000  0.00  0.00    -0.268 N 
ATOM      4  N   UNL     1      32.982  -7.089 -23.819  0.00  0.00    -0.266 N 
ATOM      5  C   UNL     1      32.165 -11.676 -22.866  0.00  0.00    -0.055 C 
ATOM      6  C   UNL     1      33.987 -11.084 -24.323  0.00  0.00    -0.055 C 
ATOM      7  C   UNL     1      34.111  -9.704 -23.669  0.00  0.00    +0.072 C 
ATOM      8  C   UNL     1      32.265 -10.330 -22.151  0.00  0.00    +0.072 C 
ATOM      9  C   UNL     1      32.314  -8.000 -22.999  0.00  0.00    +0.308 C 
ATOM     10  H   UNL     1      34.129 -12.148 -22.591  0.00  0.00    -0.079 HD
ATOM     11  H   UNL     1      33.947  -7.239 -23.942  0.00  0.00    +0.156 HD
ENDROOT
BRANCH   4  14
ATOM     12 CL   UNL     1      34.625  -5.865 -26.101  0.00  0.00    -0.081 Cl
ATOM     13  N   UNL     1      30.578  -4.428 -24.688  0.00  0.00    -0.241 NA
ATOM     14  C   UNL     1      32.426  -5.974 -24.493  0.00  0.00    +0.082 C 
ATOM     15  C   UNL     1      33.080  -5.336 -25.543  0.00  0.00    +0.074 C 
ATOM     16  C   UNL     1      31.189  -5.485 -24.108  0.00  0.00    +0.114 C 
ATOM     17  C   UNL     1      32.484  -4.244 -26.165  0.00  0.00    +0.033 C 
ATOM     18  C   UNL     1      31.243  -3.834 -25.704  0.00  0.00    +0.100 C 
ENDBRANCH   4  14
BRANCH   2  19
ATOM     19  C   UNL     1      33.400 -13.399 -24.010  0.00  0.00    -0.050 C 
BRANCH  19  24
ATOM     20  F   UNL     1      35.134 -19.546 -21.775  0.00  0.00    -0.125 F 
ATOM     21  F   UNL     1      37.110 -18.603 -21.780  0.00  0.00    -0.125 F 
ATOM     22  O   UNL     1      35.509 -17.797 -23.169  0.00  0.00    -0.395 OA
ATOM     23  O   UNL     1      35.387 -17.528 -20.772  0.00  0.00    -0.395 OA
ATOM     24  C   UNL     1      33.923 -14.488 -23.112  0.00  0.00    -0.040 C 
ATOM     25  C   UNL     1      34.475 -15.642 -23.672  0.00  0.00    +0.034 C 
ATOM     26  C   UNL     1      33.852 -14.331 -21.716  0.00  0.00    -0.003 C 
ATOM     27  C   UNL     1      34.942 -16.612 -22.808  0.00  0.00    +0.181 C 
ATOM     28  C   UNL     1      34.873 -16.459 -21.440  0.00  0.00    +0.182 C 
ATOM     29  C   UNL     1      34.332 -15.328 -20.863  0.00  0.00    +0.040 C 
ATOM     30  C   UNL     1      35.779 -18.357 -21.875  0.00  0.00    +0.589 C 
ENDBRANCH  19  24
ENDBRANCH   2  19
TORSDOF 3
ENDMDL
MODEL 9
REMARK VINA RESULT:     -10.8      5.135     10.292
REMARK  Name = 54576693
REMARK  3 active torsions:
REMARK  status: ('A' for Active; 'I' for Inactive)
REMARK    1  A    between atoms: N_2  and  C_19
REMARK    2  A    between atoms: N_4  and  C_14
REMARK    3  A    between atoms: C_19  and  C_24
REMARK                            x       y       z     vdW  Elec       q    Type
REMARK                         _______ _______ _______ _____ _____    ______ ____
ROOT
ATOM      1  O   UNL     1      31.304  -9.516 -21.519  0.00  0.00    -0.252 OA
ATOM      2  N   UNL     1      33.431 -13.245 -24.055  0.00  0.00    +0.392 N 
ATOM      3  N   UNL     1      32.796 -10.742 -22.793  0.00  0.00    -0.268 N 
ATOM      4  N   UNL     1      32.787  -8.383 -22.898  0.00  0.00    -0.266 N 
ATOM      5  C   UNL     1      32.160 -13.076 -23.340  0.00  0.00    -0.055 C 
ATOM      6  C   UNL     1      33.826 -11.980 -24.687  0.00  0.00    -0.055 C 
ATOM      7  C   UNL     1      33.981 -10.862 -23.653  0.00  0.00    +0.072 C 
ATOM      8  C   UNL     1      32.297 -12.009 -22.256  0.00  0.00    +0.072 C 
ATOM      9  C   UNL     1      32.217  -9.532 -22.347  0.00  0.00    +0.308 C 
ATOM     10  H   UNL     1      34.151 -13.514 -23.384  0.00  0.00    -0.079 HD
ATOM     11  H   UNL     1      33.740  -8.441 -23.140  0.00  0.00    +0.156 HD
ENDROOT
BRANCH   4  14
ATOM     12 CL   UNL     1      32.374  -6.505 -20.509  0.00  0.00    -0.081 Cl
ATOM     13  N   UNL     1      31.122  -5.677 -24.774  0.00  0.00    -0.241 NA
ATOM     14  C   UNL     1      32.148  -7.144 -23.150  0.00  0.00    +0.082 C 
ATOM     15  C   UNL     1      31.906  -6.213 -22.145  0.00  0.00    +0.074 C 
ATOM     16  C   UNL     1      31.739  -6.830 -24.436  0.00  0.00    +0.114 C 
ATOM     17  C   UNL     1      31.272  -5.014 -22.454  0.00  0.00    +0.033 C 
ATOM     18  C   UNL     1      30.904  -4.796 -23.772  0.00  0.00    +0.100 C 
ENDBRANCH   4  14
BRANCH   2  19
ATOM     19  C   UNL     1      33.320 -14.307 -25.055  0.00  0.00    -0.050 C 
BRANCH  19  24
ATOM     20  F   UNL     1      37.074 -18.677 -21.505  0.00  0.00    -0.125 F 
ATOM     21  F   UNL     1      35.083 -19.332 -20.875  0.00  0.00    -0.125 F 
ATOM     22  O   UNL     1      35.357 -17.198 -21.592  0.00  0.00    -0.395 OA
ATOM     23  O   UNL     1      35.505 -19.087 -23.089  0.00  0.00    -0.395 OA
ATOM     24  C   UNL     1      33.902 -15.604 -24.561  0.00  0.00    -0.040 C 
ATOM     25  C   UNL     1      34.349 -15.705 -23.241  0.00  0.00    +0.034 C 
ATOM     26  C   UNL     1      33.988 -16.704 -25.432  0.00  0.00    -0.003 C 
ATOM     27  C   UNL     1      34.874 -16.915 -22.833  0.00  0.00    +0.181 C 
ATOM     28  C   UNL     1      34.958 -17.993 -23.688  0.00  0.00    +0.182 C 
ATOM     29  C   UNL     1      34.523 -17.919 -24.995  0.00  0.00    +0.040 C 
ATOM     30  C   UNL     1      35.750 -18.567 -21.775  0.00  0.00    +0.589 C 
ENDBRANCH  19  24
ENDBRANCH   2  19
TORSDOF 3
ENDMDL
