MODEL 1
REMARK VINA RESULT:      -7.8      0.000      0.000
REMARK  Name = 11138
REMARK  6 active torsions:
REMARK  status: ('A' for Active; 'I' for Inactive)
REMARK    1  A    between atoms: C_1  and  C_8
REMARK    2  A    between atoms: C_2  and  C_12
REMARK    3  A    between atoms: C_3  and  C_16
REMARK    4  A    between atoms: C_8  and  O_9
REMARK    5  A    between atoms: C_12  and  O_13
REMARK    6  A    between atoms: C_16  and  O_17
REMARK                            x       y       z     vdW  Elec       q    Type
REMARK                         _______ _______ _______ _____ _____    ______ ____
ROOT
ATOM      1  C   UNL     1      37.388 -24.202 -12.874  0.00  0.00    +0.076 C 
ATOM      2  C   UNL     1      39.045 -24.991 -14.447  0.00  0.00    +0.076 C 
ATOM      3  C   UNL     1      37.385 -23.380 -15.146  0.00  0.00    +0.076 C 
ATOM      4  C   UNL     1      38.494 -25.002 -13.165  0.00  0.00    +0.013 C 
ATOM      5  C   UNL     1      36.835 -23.391 -13.865  0.00  0.00    +0.013 C 
ATOM      6  C   UNL     1      38.490 -24.180 -15.438  0.00  0.00    +0.013 C 
ENDROOT
BRANCH   1   8
ATOM      7  O   UNL     1      36.061 -25.083 -11.090  0.00  0.00    -0.245 OA
ATOM      8  C   UNL     1      36.814 -24.213 -11.539  0.00  0.00    +0.338 C 
BRANCH   8   9
ATOM      9  O   UNL     1      37.197 -23.136 -10.798  0.00  0.00    -0.477 OA
ATOM     10  H   UNL     1      37.887 -23.220 -10.170  0.00  0.00    +0.295 HD
ENDBRANCH   8   9
ENDBRANCH   1   8
BRANCH   2  12
ATOM     11  O   UNL     1      40.913 -26.386 -13.915  0.00  0.00    -0.245 OA
ATOM     12  C   UNL     1      40.197 -25.825 -14.750  0.00  0.00    +0.338 C 
BRANCH  12  13
ATOM     13  O   UNL     1      40.422 -25.935 -16.088  0.00  0.00    -0.477 OA
ATOM     14  H   UNL     1      40.098 -25.279 -16.674  0.00  0.00    +0.295 HD
ENDBRANCH  12  13
ENDBRANCH   2  12
BRANCH   3  16
ATOM     15  O   UNL     1      35.844 -22.837 -16.894  0.00  0.00    -0.245 OA
ATOM     16  C   UNL     1      36.807 -22.536 -16.180  0.00  0.00    +0.338 C 
BRANCH  16  17
ATOM     17  O   UNL     1      37.446 -21.340 -16.293  0.00  0.00    -0.477 OA
ATOM     18  H   UNL     1      37.061 -20.648 -16.796  0.00  0.00    +0.295 HD
ENDBRANCH  16  17
ENDBRANCH   3  16
TORSDOF 6
ENDMDL
MODEL 2
REMARK VINA RESULT:      -7.8      0.014      4.740
REMARK  Name = 11138
REMARK  6 active torsions:
REMARK  status: ('A' for Active; 'I' for Inactive)
REMARK    1  A    between atoms: C_1  and  C_8
REMARK    2  A    between atoms: C_2  and  C_12
REMARK    3  A    between atoms: C_3  and  C_16
REMARK    4  A    between atoms: C_8  and  O_9
REMARK    5  A    between atoms: C_12  and  O_13
REMARK    6  A    between atoms: C_16  and  O_17
REMARK                            x       y       z     vdW  Elec       q    Type
REMARK                         _______ _______ _______ _____ _____    ______ ____
ROOT
ATOM      1  C   UNL     1      37.375 -23.389 -15.140  0.00  0.00    +0.076 C 
ATOM      2  C   UNL     1      37.380 -24.208 -12.867  0.00  0.00    +0.076 C 
ATOM      3  C   UNL     1      39.037 -24.996 -14.438  0.00  0.00    +0.076 C 
ATOM      4  C   UNL     1      36.824 -23.399 -13.859  0.00  0.00    +0.013 C 
ATOM      5  C   UNL     1      38.482 -24.187 -15.429  0.00  0.00    +0.013 C 
ATOM      6  C   UNL     1      38.487 -25.006 -13.157  0.00  0.00    +0.013 C 
ENDROOT
BRANCH   1   8
ATOM      7  O   UNL     1      35.835 -22.847 -16.888  0.00  0.00    -0.245 OA
ATOM      8  C   UNL     1      36.796 -22.546 -16.174  0.00  0.00    +0.338 C 
BRANCH   8   9
ATOM      9  O   UNL     1      37.434 -21.348 -16.287  0.00  0.00    -0.477 OA
ATOM     10  H   UNL     1      38.176 -21.264 -16.853  0.00  0.00    +0.295 HD
ENDBRANCH   8   9
ENDBRANCH   1   8
BRANCH   2  12
ATOM     11  O   UNL     1      36.052 -25.089 -11.082  0.00  0.00    -0.245 OA
ATOM     12  C   UNL     1      36.805 -24.219 -11.530  0.00  0.00    +0.338 C 
BRANCH  12  13
ATOM     13  O   UNL     1      37.188 -23.141 -10.791  0.00  0.00    -0.477 OA
ATOM     14  H   UNL     1      37.521 -23.262  -9.925  0.00  0.00    +0.295 HD
ENDBRANCH  12  13
ENDBRANCH   2  12
BRANCH   3  16
ATOM     15  O   UNL     1      40.901 -26.399 -13.905  0.00  0.00    -0.245 OA
ATOM     16  C   UNL     1      40.190 -25.829 -14.740  0.00  0.00    +0.338 C 
BRANCH  16  17
ATOM     17  O   UNL     1      40.423 -25.930 -16.077  0.00  0.00    -0.477 OA
ATOM     18  H   UNL     1      40.183 -25.227 -16.649  0.00  0.00    +0.295 HD
ENDBRANCH  16  17
ENDBRANCH   3  16
TORSDOF 6
ENDMDL
MODEL 3
REMARK VINA RESULT:      -7.7      0.063      3.920
REMARK  Name = 11138
REMARK  6 active torsions:
REMARK  status: ('A' for Active; 'I' for Inactive)
REMARK    1  A    between atoms: C_1  and  C_8
REMARK    2  A    between atoms: C_2  and  C_12
REMARK    3  A    between atoms: C_3  and  C_16
REMARK    4  A    between atoms: C_8  and  O_9
REMARK    5  A    between atoms: C_12  and  O_13
REMARK    6  A    between atoms: C_16  and  O_17
REMARK                            x       y       z     vdW  Elec       q    Type
REMARK                         _______ _______ _______ _____ _____    ______ ____
ROOT
ATOM      1  C   UNL     1      39.040 -24.952 -14.481  0.00  0.00    +0.076 C 
ATOM      2  C   UNL     1      37.386 -24.177 -12.899  0.00  0.00    +0.076 C 
ATOM      3  C   UNL     1      37.373 -23.344 -15.167  0.00  0.00    +0.076 C 
ATOM      4  C   UNL     1      38.493 -24.972 -13.198  0.00  0.00    +0.013 C 
ATOM      5  C   UNL     1      38.479 -24.138 -15.465  0.00  0.00    +0.013 C 
ATOM      6  C   UNL     1      36.825 -23.363 -13.884  0.00  0.00    +0.013 C 
ENDROOT
BRANCH   1   8
ATOM      7  O   UNL     1      40.858 -26.419 -13.971  0.00  0.00    -0.245 OA
ATOM      8  C   UNL     1      40.194 -25.780 -14.792  0.00  0.00    +0.338 C 
BRANCH   8   9
ATOM      9  O   UNL     1      40.487 -25.787 -16.122  0.00  0.00    -0.477 OA
ATOM     10  H   UNL     1      39.821 -25.585 -16.750  0.00  0.00    +0.295 HD
ENDBRANCH   8   9
ENDBRANCH   1   8
BRANCH   2  12
ATOM     11  O   UNL     1      36.069 -25.075 -11.116  0.00  0.00    -0.245 OA
ATOM     12  C   UNL     1      36.815 -24.198 -11.561  0.00  0.00    +0.338 C 
BRANCH  12  13
ATOM     13  O   UNL     1      37.194 -23.122 -10.818  0.00  0.00    -0.477 OA
ATOM     14  H   UNL     1      36.551 -22.621 -10.357  0.00  0.00    +0.295 HD
ENDBRANCH  12  13
ENDBRANCH   2  12
BRANCH   3  16
ATOM     15  O   UNL     1      35.817 -22.786 -16.897  0.00  0.00    -0.245 OA
ATOM     16  C   UNL     1      36.789 -22.493 -16.193  0.00  0.00    +0.338 C 
BRANCH  16  17
ATOM     17  O   UNL     1      37.436 -21.301 -16.310  0.00  0.00    -0.477 OA
ATOM     18  H   UNL     1      37.705 -20.836 -15.542  0.00  0.00    +0.295 HD
ENDBRANCH  16  17
ENDBRANCH   3  16
TORSDOF 6
ENDMDL
MODEL 4
REMARK VINA RESULT:      -7.7      0.492      4.785
REMARK  Name = 11138
REMARK  6 active torsions:
REMARK  status: ('A' for Active; 'I' for Inactive)
REMARK    1  A    between atoms: C_1  and  C_8
REMARK    2  A    between atoms: C_2  and  C_12
REMARK    3  A    between atoms: C_3  and  C_16
REMARK    4  A    between atoms: C_8  and  O_9
REMARK    5  A    between atoms: C_12  and  O_13
REMARK    6  A    between atoms: C_16  and  O_17
REMARK                            x       y       z     vdW  Elec       q    Type
REMARK                         _______ _______ _______ _____ _____    ______ ____
ROOT
ATOM      1  C   UNL     1      38.888 -25.008 -14.444  0.00  0.00    +0.076 C 
ATOM      2  C   UNL     1      37.242 -23.405 -15.191  0.00  0.00    +0.076 C 
ATOM      3  C   UNL     1      37.061 -24.385 -12.990  0.00  0.00    +0.076 C 
ATOM      4  C   UNL     1      38.400 -24.147 -15.427  0.00  0.00    +0.013 C 
ATOM      5  C   UNL     1      38.219 -25.127 -13.226  0.00  0.00    +0.013 C 
ATOM      6  C   UNL     1      36.573 -23.524 -13.972  0.00  0.00    +0.013 C 
ENDROOT
BRANCH   1   8
ATOM      7  O   UNL     1      40.802 -26.300 -13.820  0.00  0.00    -0.245 OA
ATOM      8  C   UNL     1      40.095 -25.781 -14.689  0.00  0.00    +0.338 C 
BRANCH   8   9
ATOM      9  O   UNL     1      40.386 -25.886 -16.016  0.00  0.00    -0.477 OA
ATOM     10  H   UNL     1      41.277 -25.859 -16.303  0.00  0.00    +0.295 HD
ENDBRANCH   8   9
ENDBRANCH   1   8
BRANCH   2  12
ATOM     11  O   UNL     1      35.786 -22.746 -16.971  0.00  0.00    -0.245 OA
ATOM     12  C   UNL     1      36.733 -22.506 -16.216  0.00  0.00    +0.338 C 
BRANCH  12  13
ATOM     13  O   UNL     1      37.421 -21.333 -16.267  0.00  0.00    -0.477 OA
ATOM     14  H   UNL     1      37.032 -20.546 -15.938  0.00  0.00    +0.295 HD
ENDBRANCH  12  13
ENDBRANCH   2  12
BRANCH   3  16
ATOM     15  O   UNL     1      36.821 -24.198 -10.617  0.00  0.00    -0.245 OA
ATOM     16  C   UNL     1      36.362 -24.511 -11.721  0.00  0.00    +0.338 C 
BRANCH  16  17
ATOM     17  O   UNL     1      35.109 -25.022 -11.865  0.00  0.00    -0.477 OA
ATOM     18  H   UNL     1      34.761 -25.600 -11.214  0.00  0.00    +0.295 HD
ENDBRANCH  16  17
ENDBRANCH   3  16
TORSDOF 6
ENDMDL
MODEL 5
REMARK VINA RESULT:      -7.7      0.504      3.890
REMARK  Name = 11138
REMARK  6 active torsions:
REMARK  status: ('A' for Active; 'I' for Inactive)
REMARK    1  A    between atoms: C_1  and  C_8
REMARK    2  A    between atoms: C_2  and  C_12
REMARK    3  A    between atoms: C_3  and  C_16
REMARK    4  A    between atoms: C_8  and  O_9
REMARK    5  A    between atoms: C_12  and  O_13
REMARK    6  A    between atoms: C_16  and  O_17
REMARK                            x       y       z     vdW  Elec       q    Type
REMARK                         _______ _______ _______ _____ _____    ______ ____
ROOT
ATOM      1  C   UNL     1      37.212 -23.416 -15.206  0.00  0.00    +0.076 C 
ATOM      2  C   UNL     1      38.869 -25.007 -14.454  0.00  0.00    +0.076 C 
ATOM      3  C   UNL     1      37.039 -24.391 -13.002  0.00  0.00    +0.076 C 
ATOM      4  C   UNL     1      38.374 -24.152 -15.440  0.00  0.00    +0.013 C 
ATOM      5  C   UNL     1      36.545 -23.536 -13.988  0.00  0.00    +0.013 C 
ATOM      6  C   UNL     1      38.200 -25.126 -13.235  0.00  0.00    +0.013 C 
ENDROOT
BRANCH   1   8
ATOM      7  O   UNL     1      35.743 -22.769 -16.979  0.00  0.00    -0.245 OA
ATOM      8  C   UNL     1      36.697 -22.526 -16.233  0.00  0.00    +0.338 C 
BRANCH   8   9
ATOM      9  O   UNL     1      37.388 -21.354 -16.302  0.00  0.00    -0.477 OA
ATOM     10  H   UNL     1      37.035 -20.579 -15.912  0.00  0.00    +0.295 HD
ENDBRANCH   8   9
ENDBRANCH   1   8
BRANCH   2  12
ATOM     11  O   UNL     1      40.786 -26.291 -13.826  0.00  0.00    -0.245 OA
ATOM     12  C   UNL     1      40.080 -25.774 -14.697  0.00  0.00    +0.338 C 
BRANCH  12  13
ATOM     13  O   UNL     1      40.375 -25.873 -16.022  0.00  0.00    -0.477 OA
ATOM     14  H   UNL     1      40.593 -25.105 -16.513  0.00  0.00    +0.295 HD
ENDBRANCH  12  13
ENDBRANCH   2  12
BRANCH   3  16
ATOM     15  O   UNL     1      36.805 -24.201 -10.628  0.00  0.00    -0.245 OA
ATOM     16  C   UNL     1      36.343 -24.514 -11.731  0.00  0.00    +0.338 C 
BRANCH  16  17
ATOM     17  O   UNL     1      35.089 -25.023 -11.871  0.00  0.00    -0.477 OA
ATOM     18  H   UNL     1      34.669 -25.443 -11.145  0.00  0.00    +0.295 HD
ENDBRANCH  16  17
ENDBRANCH   3  16
TORSDOF 6
ENDMDL
MODEL 6
REMARK VINA RESULT:      -7.6      2.466      4.609
REMARK  Name = 11138
REMARK  6 active torsions:
REMARK  status: ('A' for Active; 'I' for Inactive)
REMARK    1  A    between atoms: C_1  and  C_8
REMARK    2  A    between atoms: C_2  and  C_12
REMARK    3  A    between atoms: C_3  and  C_16
REMARK    4  A    between atoms: C_8  and  O_9
REMARK    5  A    between atoms: C_12  and  O_13
REMARK    6  A    between atoms: C_16  and  O_17
REMARK                            x       y       z     vdW  Elec       q    Type
REMARK                         _______ _______ _______ _____ _____    ______ ____
ROOT
ATOM      1  C   UNL     1      36.497 -25.645 -14.315  0.00  0.00    +0.076 C 
ATOM      2  C   UNL     1      35.884 -24.417 -12.326  0.00  0.00    +0.076 C 
ATOM      3  C   UNL     1      34.636 -24.104 -14.371  0.00  0.00    +0.076 C 
ATOM      4  C   UNL     1      36.708 -25.340 -12.970  0.00  0.00    +0.013 C 
ATOM      5  C   UNL     1      35.460 -25.027 -15.014  0.00  0.00    +0.013 C 
ATOM      6  C   UNL     1      34.847 -23.799 -13.026  0.00  0.00    +0.013 C 
ENDROOT
BRANCH   1   8
ATOM      7  O   UNL     1      38.476 -26.956 -14.602  0.00  0.00    -0.245 OA
ATOM      8  C   UNL     1      37.355 -26.607 -14.986  0.00  0.00    +0.338 C 
BRANCH   8   9
ATOM      9  O   UNL     1      36.791 -27.106 -16.121  0.00  0.00    -0.477 OA
ATOM     10  H   UNL     1      35.862 -27.071 -16.237  0.00  0.00    +0.295 HD
ENDBRANCH   8   9
ENDBRANCH   1   8
BRANCH   2  12
ATOM     11  O   UNL     1      35.446 -24.542  -9.977  0.00  0.00    -0.245 OA
ATOM     12  C   UNL     1      36.104 -24.099 -10.923  0.00  0.00    +0.338 C 
BRANCH  12  13
ATOM     13  O   UNL     1      37.142 -23.237 -10.742  0.00  0.00    -0.477 OA
ATOM     14  H   UNL     1      37.292 -22.854  -9.901  0.00  0.00    +0.295 HD
ENDBRANCH  12  13
ENDBRANCH   2  12
BRANCH   3  16
ATOM     15  O   UNL     1      33.409 -23.480 -16.328  0.00  0.00    -0.245 OA
ATOM     16  C   UNL     1      33.557 -23.458 -15.101  0.00  0.00    +0.338 C 
BRANCH  16  17
ATOM     17  O   UNL     1      32.691 -22.804 -14.280  0.00  0.00    -0.477 OA
ATOM     18  H   UNL     1      31.939 -23.249 -13.941  0.00  0.00    +0.295 HD
ENDBRANCH  16  17
ENDBRANCH   3  16
TORSDOF 6
ENDMDL
MODEL 7
REMARK VINA RESULT:      -7.5      2.466      2.889
REMARK  Name = 11138
REMARK  6 active torsions:
REMARK  status: ('A' for Active; 'I' for Inactive)
REMARK    1  A    between atoms: C_1  and  C_8
REMARK    2  A    between atoms: C_2  and  C_12
REMARK    3  A    between atoms: C_3  and  C_16
REMARK    4  A    between atoms: C_8  and  O_9
REMARK    5  A    between atoms: C_12  and  O_13
REMARK    6  A    between atoms: C_16  and  O_17
REMARK                            x       y       z     vdW  Elec       q    Type
REMARK                         _______ _______ _______ _____ _____    ______ ____
ROOT
ATOM      1  C   UNL     1      35.915 -24.486 -12.391  0.00  0.00    +0.076 C 
ATOM      2  C   UNL     1      36.503 -25.711 -14.390  0.00  0.00    +0.076 C 
ATOM      3  C   UNL     1      34.672 -24.135 -14.433  0.00  0.00    +0.076 C 
ATOM      4  C   UNL     1      36.721 -25.419 -13.043  0.00  0.00    +0.013 C 
ATOM      5  C   UNL     1      34.890 -23.844 -13.087  0.00  0.00    +0.013 C 
ATOM      6  C   UNL     1      35.478 -25.068 -15.085  0.00  0.00    +0.013 C 
ENDROOT
BRANCH   1   8
ATOM      7  O   UNL     1      36.960 -23.364 -10.556  0.00  0.00    -0.245 OA
ATOM      8  C   UNL     1      36.142 -24.183 -10.988  0.00  0.00    +0.338 C 
BRANCH   8   9
ATOM      9  O   UNL     1      35.342 -24.910 -10.161  0.00  0.00    -0.477 OA
ATOM     10  H   UNL     1      34.775 -24.475  -9.555  0.00  0.00    +0.295 HD
ENDBRANCH   8   9
ENDBRANCH   1   8
BRANCH   2  12
ATOM     11  O   UNL     1      38.462 -27.050 -14.693  0.00  0.00    -0.245 OA
ATOM     12  C   UNL     1      37.344 -26.684 -15.069  0.00  0.00    +0.338 C 
BRANCH  12  13
ATOM     13  O   UNL     1      36.764 -27.173 -16.200  0.00  0.00    -0.477 OA
ATOM     14  H   UNL     1      36.219 -27.933 -16.157  0.00  0.00    +0.295 HD
ENDBRANCH  12  13
ENDBRANCH   2  12
BRANCH   3  16
ATOM     15  O   UNL     1      33.452 -23.478 -16.384  0.00  0.00    -0.245 OA
ATOM     16  C   UNL     1      33.602 -23.467 -15.158  0.00  0.00    +0.338 C 
BRANCH  16  17
ATOM     17  O   UNL     1      32.749 -22.804 -14.331  0.00  0.00    -0.477 OA
ATOM     18  H   UNL     1      31.869 -23.110 -14.222  0.00  0.00    +0.295 HD
ENDBRANCH  16  17
ENDBRANCH   3  16
TORSDOF 6
ENDMDL
MODEL 8
REMARK VINA RESULT:      -7.5      2.460      4.786
REMARK  Name = 11138
REMARK  6 active torsions:
REMARK  status: ('A' for Active; 'I' for Inactive)
REMARK    1  A    between atoms: C_1  and  C_8
REMARK    2  A    between atoms: C_2  and  C_12
REMARK    3  A    between atoms: C_3  and  C_16
REMARK    4  A    between atoms: C_8  and  O_9
REMARK    5  A    between atoms: C_12  and  O_13
REMARK    6  A    between atoms: C_16  and  O_17
REMARK                            x       y       z     vdW  Elec       q    Type
REMARK                         _______ _______ _______ _____ _____    ______ ____
ROOT
ATOM      1  C   UNL     1      35.916 -24.483 -12.390  0.00  0.00    +0.076 C 
ATOM      2  C   UNL     1      34.674 -24.136 -14.434  0.00  0.00    +0.076 C 
ATOM      3  C   UNL     1      36.510 -25.706 -14.388  0.00  0.00    +0.076 C 
ATOM      4  C   UNL     1      34.890 -23.844 -13.087  0.00  0.00    +0.013 C 
ATOM      5  C   UNL     1      36.725 -25.414 -13.041  0.00  0.00    +0.013 C 
ATOM      6  C   UNL     1      35.484 -25.067 -15.084  0.00  0.00    +0.013 C 
ENDROOT
BRANCH   1   8
ATOM      7  O   UNL     1      36.959 -23.362 -10.553  0.00  0.00    -0.245 OA
ATOM      8  C   UNL     1      36.140 -24.179 -10.987  0.00  0.00    +0.338 C 
BRANCH   8   9
ATOM      9  O   UNL     1      35.335 -24.903 -10.161  0.00  0.00    -0.477 OA
ATOM     10  H   UNL     1      35.290 -24.694  -9.249  0.00  0.00    +0.295 HD
ENDBRANCH   8   9
ENDBRANCH   1   8
BRANCH   2  12
ATOM     11  O   UNL     1      33.453 -23.487 -16.386  0.00  0.00    -0.245 OA
ATOM     12  C   UNL     1      33.604 -23.469 -15.161  0.00  0.00    +0.338 C 
BRANCH  12  13
ATOM     13  O   UNL     1      32.753 -22.800 -14.335  0.00  0.00    -0.477 OA
ATOM     14  H   UNL     1      31.839 -23.001 -14.342  0.00  0.00    +0.295 HD
ENDBRANCH  12  13
ENDBRANCH   2  12
BRANCH   3  16
ATOM     15  O   UNL     1      38.478 -27.032 -14.693  0.00  0.00    -0.245 OA
ATOM     16  C   UNL     1      37.355 -26.676 -15.066  0.00  0.00    +0.338 C 
BRANCH  16  17
ATOM     17  O   UNL     1      36.774 -27.175 -16.192  0.00  0.00    -0.477 OA
ATOM     18  H   UNL     1      35.840 -27.194 -16.268  0.00  0.00    +0.295 HD
ENDBRANCH  16  17
ENDBRANCH   3  16
TORSDOF 6
ENDMDL
MODEL 9
REMARK VINA RESULT:      -7.5      2.475      4.969
REMARK  Name = 11138
REMARK  6 active torsions:
REMARK  status: ('A' for Active; 'I' for Inactive)
REMARK    1  A    between atoms: C_1  and  C_8
REMARK    2  A    between atoms: C_2  and  C_12
REMARK    3  A    between atoms: C_3  and  C_16
REMARK    4  A    between atoms: C_8  and  O_9
REMARK    5  A    between atoms: C_12  and  O_13
REMARK    6  A    between atoms: C_16  and  O_17
REMARK                            x       y       z     vdW  Elec       q    Type
REMARK                         _______ _______ _______ _____ _____    ______ ____
ROOT
ATOM      1  C   UNL     1      34.661 -24.144 -14.427  0.00  0.00    +0.076 C 
ATOM      2  C   UNL     1      35.902 -24.494 -12.382  0.00  0.00    +0.076 C 
ATOM      3  C   UNL     1      36.499 -25.712 -14.381  0.00  0.00    +0.076 C 
ATOM      4  C   UNL     1      34.876 -23.854 -13.079  0.00  0.00    +0.013 C 
ATOM      5  C   UNL     1      35.473 -25.073 -15.077  0.00  0.00    +0.013 C 
ATOM      6  C   UNL     1      36.714 -25.423 -13.034  0.00  0.00    +0.013 C 
ENDROOT
BRANCH   1   8
ATOM      7  O   UNL     1      33.439 -23.496 -16.377  0.00  0.00    -0.245 OA
ATOM      8  C   UNL     1      33.592 -23.478 -15.152  0.00  0.00    +0.338 C 
BRANCH   8   9
ATOM      9  O   UNL     1      32.742 -22.806 -14.327  0.00  0.00    -0.477 OA
ATOM     10  H   UNL     1      32.947 -21.934 -14.052  0.00  0.00    +0.295 HD
ENDBRANCH   8   9
ENDBRANCH   1   8
BRANCH   2  12
ATOM     11  O   UNL     1      36.947 -23.378 -10.543  0.00  0.00    -0.245 OA
ATOM     12  C   UNL     1      36.126 -24.191 -10.977  0.00  0.00    +0.338 C 
BRANCH  12  13
ATOM     13  O   UNL     1      35.317 -24.914 -10.155  0.00  0.00    -0.477 OA
ATOM     14  H   UNL     1      35.671 -25.620  -9.651  0.00  0.00    +0.295 HD
ENDBRANCH  12  13
ENDBRANCH   2  12
BRANCH   3  16
ATOM     15  O   UNL     1      38.460 -27.051 -14.678  0.00  0.00    -0.245 OA
ATOM     16  C   UNL     1      37.344 -26.682 -15.060  0.00  0.00    +0.338 C 
BRANCH  16  17
ATOM     17  O   UNL     1      36.773 -27.165 -16.197  0.00  0.00    -0.477 OA
ATOM     18  H   UNL     1      36.756 -28.089 -16.357  0.00  0.00    +0.295 HD
ENDBRANCH  16  17
ENDBRANCH   3  16
TORSDOF 6
ENDMDL
