MODEL 1
REMARK VINA RESULT:     -10.2      0.000      0.000
REMARK  Name = 60151477
REMARK  6 active torsions:
REMARK  status: ('A' for Active; 'I' for Inactive)
REMARK    1  A    between atoms: C_1  and  O_19
REMARK    2  A    between atoms: C_6  and  N_8
REMARK    3  A    between atoms: C_9  and  C_11
REMARK    4  A    between atoms: C_11  and  N_13
REMARK    5  A    between atoms: O_19  and  C_25
REMARK    6  A    between atoms: N_20  and  C_27
REMARK                            x       y       z     vdW  Elec       q    Type
REMARK                         _______ _______ _______ _____ _____    ______ ____
ROOT
ATOM      1  C   UNL     1      34.805 -22.142 -18.637  0.00  0.00    +0.138 C 
ATOM      2  C   UNL     1      33.551 -21.680 -19.033  0.00  0.00    +0.038 C 
ATOM      3  C   UNL     1      35.959 -21.603 -19.205  0.00  0.00    +0.038 C 
ATOM      4  C   UNL     1      33.450 -20.679 -19.999  0.00  0.00    +0.018 C 
ATOM      5  C   UNL     1      35.859 -20.601 -20.172  0.00  0.00    +0.018 C 
ATOM      6  C   UNL     1      34.604 -20.140 -20.569  0.00  0.00    +0.050 C 
ENDROOT
BRANCH   6   8
ATOM      7  O   UNL     1      35.455 -17.263 -20.479  0.00  0.00    -0.277 OA
ATOM      8  N   UNL     1      34.502 -19.138 -21.534  0.00  0.00    -0.286 N 
ATOM      9  C   UNL     1      34.921 -17.799 -21.445  0.00  0.00    +0.205 C 
ATOM     10  H   UNL     1      34.085 -19.403 -22.385  0.00  0.00    +0.155 HD
BRANCH   9  11
ATOM     11  C   UNL     1      34.617 -17.050 -22.732  0.00  0.00    +0.010 C 
BRANCH  11  13
ATOM     12  O   UNL     1      32.575 -13.385 -22.635  0.00  0.00    -0.358 OA
ATOM     13  N   UNL     1      34.260 -15.669 -22.417  0.00  0.00    +0.396 N 
ATOM     14  C   UNL     1      32.956 -15.609 -21.741  0.00  0.00    -0.044 C 
ATOM     15  C   UNL     1      34.235 -14.845 -23.634  0.00  0.00    -0.044 C 
ATOM     16  C   UNL     1      32.599 -14.157 -21.434  0.00  0.00    +0.119 C 
ATOM     17  C   UNL     1      33.849 -13.412 -23.281  0.00  0.00    +0.119 C 
ATOM     18  H   UNL     1      34.972 -15.297 -21.787  0.00  0.00    -0.079 HD
ENDBRANCH  11  13
ENDBRANCH   9  11
ENDBRANCH   6   8
BRANCH   1  19
ATOM     19  O   UNL     1      34.904 -23.126 -17.688  0.00  0.00    -0.479 OA
BRANCH  19  25
ATOM     20  N   UNL     1      36.864 -24.447 -15.012  0.00  0.00    +0.388 N 
ATOM     21  C   UNL     1      35.538 -24.958 -15.378  0.00  0.00    -0.074 C 
ATOM     22  C   UNL     1      37.262 -23.299 -15.836  0.00  0.00    -0.074 C 
ATOM     23  C   UNL     1      34.440 -23.890 -15.441  0.00  0.00    +0.021 C 
ATOM     24  C   UNL     1      36.217 -22.180 -15.916  0.00  0.00    +0.021 C 
ATOM     25  C   UNL     1      34.846 -22.712 -16.325  0.00  0.00    +0.162 C 
ATOM     26  H   UNL     1      37.534 -25.194 -15.197  0.00  0.00    -0.080 HD
BRANCH  20  27
ATOM     27  C   UNL     1      36.928 -24.118 -13.580  0.00  0.00    -0.058 C 
ATOM     28  C   UNL     1      38.352 -24.395 -13.050  0.00  0.00    -0.021 C 
ATOM     29  C   UNL     1      36.466 -25.333 -12.748  0.00  0.00    -0.021 C 
ATOM     30  C   UNL     1      37.685 -25.077 -11.838  0.00  0.00    -0.004 C 
ENDBRANCH  20  27
ENDBRANCH  19  25
ENDBRANCH   1  19
TORSDOF 6
ENDMDL
MODEL 2
REMARK VINA RESULT:     -10.2      2.030     10.744
REMARK  Name = 60151477
REMARK  6 active torsions:
REMARK  status: ('A' for Active; 'I' for Inactive)
REMARK    1  A    between atoms: C_1  and  O_19
REMARK    2  A    between atoms: C_6  and  N_8
REMARK    3  A    between atoms: C_9  and  C_11
REMARK    4  A    between atoms: C_11  and  N_13
REMARK    5  A    between atoms: O_19  and  C_25
REMARK    6  A    between atoms: N_20  and  C_27
REMARK                            x       y       z     vdW  Elec       q    Type
REMARK                         _______ _______ _______ _____ _____    ______ ____
ROOT
ATOM      1  C   UNL     1      35.438 -20.380 -20.565  0.00  0.00    +0.138 C 
ATOM      2  C   UNL     1      36.627 -20.616 -19.876  0.00  0.00    +0.038 C 
ATOM      3  C   UNL     1      34.247 -20.949 -20.115  0.00  0.00    +0.038 C 
ATOM      4  C   UNL     1      36.626 -21.421 -18.738  0.00  0.00    +0.018 C 
ATOM      5  C   UNL     1      34.245 -21.755 -18.976  0.00  0.00    +0.018 C 
ATOM      6  C   UNL     1      35.435 -21.991 -18.288  0.00  0.00    +0.050 C 
ENDROOT
BRANCH   6   8
ATOM      7  O   UNL     1      37.233 -21.955 -15.885  0.00  0.00    -0.277 OA
ATOM      8  N   UNL     1      35.435 -22.796 -17.148  0.00  0.00    -0.286 N 
ATOM      9  C   UNL     1      36.300 -22.738 -16.042  0.00  0.00    +0.205 C 
ATOM     10  H   UNL     1      34.740 -23.492 -17.114  0.00  0.00    +0.155 HD
BRANCH   9  11
ATOM     11  C   UNL     1      35.945 -23.804 -15.019  0.00  0.00    +0.010 C 
BRANCH  11  13
ATOM     12  O   UNL     1      37.755 -24.493 -11.297  0.00  0.00    -0.358 OA
ATOM     13  N   UNL     1      36.818 -23.671 -13.856  0.00  0.00    +0.396 N 
ATOM     14  C   UNL     1      37.653 -24.870 -13.692  0.00  0.00    -0.044 C 
ATOM     15  C   UNL     1      36.033 -23.434 -12.637  0.00  0.00    -0.044 C 
ATOM     16  C   UNL     1      38.547 -24.715 -12.465  0.00  0.00    +0.119 C 
ATOM     17  C   UNL     1      36.966 -23.311 -11.436  0.00  0.00    +0.119 C 
ATOM     18  H   UNL     1      37.428 -22.868 -14.012  0.00  0.00    -0.079 HD
ENDBRANCH  11  13
ENDBRANCH   9  11
ENDBRANCH   6   8
BRANCH   1  19
ATOM     19  O   UNL     1      35.440 -19.589 -21.684  0.00  0.00    -0.479 OA
BRANCH  19  25
ATOM     20  N   UNL     1      34.983 -16.359 -23.134  0.00  0.00    +0.388 N 
ATOM     21  C   UNL     1      34.933 -16.617 -21.690  0.00  0.00    -0.074 C 
ATOM     22  C   UNL     1      35.188 -17.588 -23.909  0.00  0.00    -0.074 C 
ATOM     23  C   UNL     1      33.956 -17.723 -21.276  0.00  0.00    +0.021 C 
ATOM     24  C   UNL     1      34.221 -18.727 -23.563  0.00  0.00    +0.021 C 
ATOM     25  C   UNL     1      34.193 -19.011 -22.063  0.00  0.00    +0.162 C 
ATOM     26  H   UNL     1      35.793 -15.761 -23.303  0.00  0.00    -0.080 HD
BRANCH  20  27
ATOM     27  C   UNL     1      33.782 -15.641 -23.587  0.00  0.00    -0.058 C 
ATOM     28  C   UNL     1      33.797 -15.529 -25.126  0.00  0.00    -0.021 C 
ATOM     29  C   UNL     1      34.043 -14.120 -23.551  0.00  0.00    -0.021 C 
ATOM     30  C   UNL     1      33.389 -14.052 -24.947  0.00  0.00    -0.004 C 
ENDBRANCH  20  27
ENDBRANCH  19  25
ENDBRANCH   1  19
TORSDOF 6
ENDMDL
MODEL 3
REMARK VINA RESULT:     -10.0      1.934     10.601
REMARK  Name = 60151477
REMARK  6 active torsions:
REMARK  status: ('A' for Active; 'I' for Inactive)
REMARK    1  A    between atoms: C_1  and  O_19
REMARK    2  A    between atoms: C_6  and  N_8
REMARK    3  A    between atoms: C_9  and  C_11
REMARK    4  A    between atoms: C_11  and  N_13
REMARK    5  A    between atoms: O_19  and  C_25
REMARK    6  A    between atoms: N_20  and  C_27
REMARK                            x       y       z     vdW  Elec       q    Type
REMARK                         _______ _______ _______ _____ _____    ______ ____
ROOT
ATOM      1  C   UNL     1      35.068 -20.465 -20.617  0.00  0.00    +0.138 C 
ATOM      2  C   UNL     1      36.302 -20.751 -20.033  0.00  0.00    +0.038 C 
ATOM      3  C   UNL     1      33.896 -20.970 -20.054  0.00  0.00    +0.038 C 
ATOM      4  C   UNL     1      36.364 -21.543 -18.887  0.00  0.00    +0.018 C 
ATOM      5  C   UNL     1      33.958 -21.763 -18.908  0.00  0.00    +0.018 C 
ATOM      6  C   UNL     1      35.192 -22.049 -18.324  0.00  0.00    +0.050 C 
ENDROOT
BRANCH   6   8
ATOM      7  O   UNL     1      37.000 -21.866 -15.936  0.00  0.00    -0.277 OA
ATOM      8  N   UNL     1      35.255 -22.841 -17.177  0.00  0.00    -0.286 N 
ATOM      9  C   UNL     1      36.122 -22.712 -16.078  0.00  0.00    +0.205 C 
ATOM     10  H   UNL     1      34.610 -23.582 -17.132  0.00  0.00    +0.155 HD
BRANCH   9  11
ATOM     11  C   UNL     1      35.848 -23.790 -15.043  0.00  0.00    +0.010 C 
BRANCH  11  13
ATOM     12  O   UNL     1      37.910 -24.474 -11.453  0.00  0.00    -0.358 OA
ATOM     13  N   UNL     1      36.839 -23.700 -13.974  0.00  0.00    +0.396 N 
ATOM     14  C   UNL     1      37.532 -24.984 -13.795  0.00  0.00    -0.044 C 
ATOM     15  C   UNL     1      36.212 -23.286 -12.711  0.00  0.00    -0.044 C 
ATOM     16  C   UNL     1      38.552 -24.870 -12.666  0.00  0.00    +0.119 C 
ATOM     17  C   UNL     1      37.264 -23.210 -11.610  0.00  0.00    +0.119 C 
ATOM     18  H   UNL     1      37.526 -22.994 -14.242  0.00  0.00    -0.079 HD
ENDBRANCH  11  13
ENDBRANCH   9  11
ENDBRANCH   6   8
BRANCH   1  19
ATOM     19  O   UNL     1      35.008 -19.687 -21.743  0.00  0.00    -0.479 OA
BRANCH  19  25
ATOM     20  N   UNL     1      33.926 -16.516 -22.977  0.00  0.00    +0.388 N 
ATOM     21  C   UNL     1      34.658 -17.497 -23.786  0.00  0.00    -0.074 C 
ATOM     22  C   UNL     1      33.740 -16.969 -21.593  0.00  0.00    -0.074 C 
ATOM     23  C   UNL     1      35.972 -17.982 -23.162  0.00  0.00    +0.021 C 
ATOM     24  C   UNL     1      35.024 -17.439 -20.900  0.00  0.00    +0.021 C 
ATOM     25  C   UNL     1      35.768 -18.480 -21.732  0.00  0.00    +0.162 C 
ATOM     26  H   UNL     1      32.996 -16.425 -23.388  0.00  0.00    -0.080 HD
BRANCH  20  27
ATOM     27  C   UNL     1      34.578 -15.199 -23.021  0.00  0.00    -0.058 C 
ATOM     28  C   UNL     1      33.825 -14.219 -22.096  0.00  0.00    -0.021 C 
ATOM     29  C   UNL     1      34.022 -14.384 -24.208  0.00  0.00    -0.021 C 
ATOM     30  C   UNL     1      33.918 -13.188 -23.240  0.00  0.00    -0.004 C 
ENDBRANCH  20  27
ENDBRANCH  19  25
ENDBRANCH   1  19
TORSDOF 6
ENDMDL
MODEL 4
REMARK VINA RESULT:      -9.9      2.387     10.645
REMARK  Name = 60151477
REMARK  6 active torsions:
REMARK  status: ('A' for Active; 'I' for Inactive)
REMARK    1  A    between atoms: C_1  and  O_19
REMARK    2  A    between atoms: C_6  and  N_8
REMARK    3  A    between atoms: C_9  and  C_11
REMARK    4  A    between atoms: C_11  and  N_13
REMARK    5  A    between atoms: O_19  and  C_25
REMARK    6  A    between atoms: N_20  and  C_27
REMARK                            x       y       z     vdW  Elec       q    Type
REMARK                         _______ _______ _______ _____ _____    ______ ____
ROOT
ATOM      1  C   UNL     1      34.260 -19.107 -21.550  0.00  0.00    +0.138 C 
ATOM      2  C   UNL     1      35.489 -19.621 -21.137  0.00  0.00    +0.038 C 
ATOM      3  C   UNL     1      33.076 -19.623 -21.026  0.00  0.00    +0.038 C 
ATOM      4  C   UNL     1      35.533 -20.653 -20.199  0.00  0.00    +0.018 C 
ATOM      5  C   UNL     1      33.119 -20.656 -20.088  0.00  0.00    +0.018 C 
ATOM      6  C   UNL     1      34.348 -21.171 -19.675  0.00  0.00    +0.050 C 
ENDROOT
BRANCH   6   8
ATOM      7  O   UNL     1      32.154 -22.409 -18.044  0.00  0.00    -0.277 OA
ATOM      8  N   UNL     1      34.394 -22.202 -18.737  0.00  0.00    -0.286 N 
ATOM      9  C   UNL     1      33.332 -22.752 -17.998  0.00  0.00    +0.205 C 
ATOM     10  H   UNL     1      35.281 -22.594 -18.573  0.00  0.00    +0.155 HD
BRANCH   9  11
ATOM     11  C   UNL     1      33.825 -23.863 -17.086  0.00  0.00    +0.010 C 
BRANCH  11  13
ATOM     12  O   UNL     1      32.911 -24.061 -12.995  0.00  0.00    -0.358 OA
ATOM     13  N   UNL     1      33.607 -23.480 -15.693  0.00  0.00    +0.396 N 
ATOM     14  C   UNL     1      34.523 -24.208 -14.802  0.00  0.00    -0.044 C 
ATOM     15  C   UNL     1      32.215 -23.727 -15.294  0.00  0.00    -0.044 C 
ATOM     16  C   UNL     1      34.269 -23.802 -13.354  0.00  0.00    +0.119 C 
ATOM     17  C   UNL     1      32.016 -23.331 -13.834  0.00  0.00    +0.119 C 
ATOM     18  H   UNL     1      33.797 -22.481 -15.609  0.00  0.00    -0.079 HD
ENDBRANCH  11  13
ENDBRANCH   9  11
ENDBRANCH   6   8
BRANCH   1  19
ATOM     19  O   UNL     1      34.217 -18.094 -22.472  0.00  0.00    -0.479 OA
BRANCH  19  25
ATOM     20  N   UNL     1      33.014 -14.791 -23.095  0.00  0.00    +0.388 N 
ATOM     21  C   UNL     1      33.885 -15.527 -24.019  0.00  0.00    -0.074 C 
ATOM     22  C   UNL     1      32.744 -15.548 -21.867  0.00  0.00    -0.074 C 
ATOM     23  C   UNL     1      35.172 -16.068 -23.385  0.00  0.00    +0.021 C 
ATOM     24  C   UNL     1      33.994 -16.092 -21.167  0.00  0.00    +0.021 C 
ATOM     25  C   UNL     1      34.883 -16.881 -22.125  0.00  0.00    +0.162 C 
ATOM     26  H   UNL     1      32.120 -14.660 -23.568  0.00  0.00    -0.080 HD
BRANCH  20  27
ATOM     27  C   UNL     1      33.569 -13.464 -22.788  0.00  0.00    -0.058 C 
ATOM     28  C   UNL     1      32.418 -12.481 -22.484  0.00  0.00    -0.021 C 
ATOM     29  C   UNL     1      33.790 -12.679 -24.098  0.00  0.00    -0.021 C 
ATOM     30  C   UNL     1      33.146 -11.468 -23.392  0.00  0.00    -0.004 C 
ENDBRANCH  20  27
ENDBRANCH  19  25
ENDBRANCH   1  19
TORSDOF 6
ENDMDL
MODEL 5
REMARK VINA RESULT:      -9.7      4.613     13.530
REMARK  Name = 60151477
REMARK  6 active torsions:
REMARK  status: ('A' for Active; 'I' for Inactive)
REMARK    1  A    between atoms: C_1  and  O_19
REMARK    2  A    between atoms: C_6  and  N_8
REMARK    3  A    between atoms: C_9  and  C_11
REMARK    4  A    between atoms: C_11  and  N_13
REMARK    5  A    between atoms: O_19  and  C_25
REMARK    6  A    between atoms: N_20  and  C_27
REMARK                            x       y       z     vdW  Elec       q    Type
REMARK                         _______ _______ _______ _____ _____    ______ ____
ROOT
ATOM      1  C   UNL     1      32.427 -11.832 -22.407  0.00  0.00    +0.138 C 
ATOM      2  C   UNL     1      32.000 -12.770 -21.468  0.00  0.00    +0.038 C 
ATOM      3  C   UNL     1      33.341 -12.199 -23.395  0.00  0.00    +0.038 C 
ATOM      4  C   UNL     1      32.487 -14.076 -21.516  0.00  0.00    +0.018 C 
ATOM      5  C   UNL     1      33.829 -13.505 -23.443  0.00  0.00    +0.018 C 
ATOM      6  C   UNL     1      33.402 -14.444 -22.504  0.00  0.00    +0.050 C 
ENDROOT
BRANCH   6   8
ATOM      7  O   UNL     1      34.936 -16.021 -20.462  0.00  0.00    -0.277 OA
ATOM      8  N   UNL     1      33.888 -15.750 -22.551  0.00  0.00    -0.286 N 
ATOM      9  C   UNL     1      34.602 -16.450 -21.562  0.00  0.00    +0.205 C 
ATOM     10  H   UNL     1      33.707 -16.245 -23.382  0.00  0.00    +0.155 HD
BRANCH   9  11
ATOM     11  C   UNL     1      34.939 -17.855 -22.029  0.00  0.00    +0.010 C 
BRANCH  11  13
ATOM     12  O   UNL     1      34.185 -21.417 -19.943  0.00  0.00    -0.358 OA
ATOM     13  N   UNL     1      34.688 -18.801 -20.945  0.00  0.00    +0.396 N 
ATOM     14  C   UNL     1      35.749 -19.817 -20.883  0.00  0.00    -0.044 C 
ATOM     15  C   UNL     1      33.379 -19.449 -21.107  0.00  0.00    -0.044 C 
ATOM     16  C   UNL     1      35.459 -20.800 -19.752  0.00  0.00    +0.119 C 
ATOM     17  C   UNL     1      33.146 -20.438 -19.970  0.00  0.00    +0.119 C 
ATOM     18  H   UNL     1      34.686 -18.278 -20.068  0.00  0.00    -0.079 HD
ENDBRANCH  11  13
ENDBRANCH   9  11
ENDBRANCH   6   8
BRANCH   1  19
ATOM     19  O   UNL     1      31.948 -10.549 -22.359  0.00  0.00    -0.479 OA
BRANCH  19  25
ATOM     20  N   UNL     1      31.117  -7.091 -22.669  0.00  0.00    +0.388 N 
ATOM     21  C   UNL     1      30.909  -8.076 -23.737  0.00  0.00    -0.074 C 
ATOM     22  C   UNL     1      31.754  -7.682 -21.487  0.00  0.00    -0.074 C 
ATOM     23  C   UNL     1      32.157  -8.887 -24.105  0.00  0.00    +0.021 C 
ATOM     24  C   UNL     1      33.026  -8.483 -21.783  0.00  0.00    +0.021 C 
ATOM     25  C   UNL     1      32.799  -9.526 -22.874  0.00  0.00    +0.162 C 
ATOM     26  H   UNL     1      30.194  -6.765 -22.380  0.00  0.00    -0.080 HD
BRANCH  20  27
ATOM     27  C   UNL     1      31.879  -5.932 -23.158  0.00  0.00    -0.058 C 
ATOM     28  C   UNL     1      31.262  -4.634 -22.595  0.00  0.00    -0.021 C 
ATOM     29  C   UNL     1      31.338  -5.500 -24.537  0.00  0.00    -0.021 C 
ATOM     30  C   UNL     1      31.388  -4.048 -24.018  0.00  0.00    -0.004 C 
ENDBRANCH  20  27
ENDBRANCH  19  25
ENDBRANCH   1  19
TORSDOF 6
ENDMDL
MODEL 6
REMARK VINA RESULT:      -9.4      3.924     12.929
REMARK  Name = 60151477
REMARK  6 active torsions:
REMARK  status: ('A' for Active; 'I' for Inactive)
REMARK    1  A    between atoms: C_1  and  O_19
REMARK    2  A    between atoms: C_6  and  N_8
REMARK    3  A    between atoms: C_9  and  C_11
REMARK    4  A    between atoms: C_11  and  N_13
REMARK    5  A    between atoms: O_19  and  C_25
REMARK    6  A    between atoms: N_20  and  C_27
REMARK                            x       y       z     vdW  Elec       q    Type
REMARK                         _______ _______ _______ _____ _____    ______ ____
ROOT
ATOM      1  C   UNL     1      32.733 -12.971 -22.951  0.00  0.00    +0.138 C 
ATOM      2  C   UNL     1      33.755 -13.399 -23.797  0.00  0.00    +0.038 C 
ATOM      3  C   UNL     1      32.275 -13.806 -21.932  0.00  0.00    +0.038 C 
ATOM      4  C   UNL     1      34.319 -14.663 -23.625  0.00  0.00    +0.018 C 
ATOM      5  C   UNL     1      32.839 -15.071 -21.760  0.00  0.00    +0.018 C 
ATOM      6  C   UNL     1      33.861 -15.499 -22.607  0.00  0.00    +0.050 C 
ENDROOT
BRANCH   6   8
ATOM      7  O   UNL     1      35.300 -16.679 -20.253  0.00  0.00    -0.277 OA
ATOM      8  N   UNL     1      34.426 -16.763 -22.436  0.00  0.00    -0.286 N 
ATOM      9  C   UNL     1      35.090 -17.273 -21.306  0.00  0.00    +0.205 C 
ATOM     10  H   UNL     1      34.348 -17.376 -23.202  0.00  0.00    +0.155 HD
BRANCH   9  11
ATOM     11  C   UNL     1      35.549 -18.701 -21.547  0.00  0.00    +0.010 C 
BRANCH  11  13
ATOM     12  O   UNL     1      33.955 -22.033 -19.555  0.00  0.00    -0.358 OA
ATOM     13  N   UNL     1      35.018 -19.566 -20.497  0.00  0.00    +0.396 N 
ATOM     14  C   UNL     1      35.869 -20.751 -20.316  0.00  0.00    -0.044 C 
ATOM     15  C   UNL     1      33.641 -19.977 -20.804  0.00  0.00    -0.044 C 
ATOM     16  C   UNL     1      35.288 -21.644 -19.224  0.00  0.00    +0.119 C 
ATOM     17  C   UNL     1      33.113 -20.888 -19.700  0.00  0.00    +0.119 C 
ATOM     18  H   UNL     1      35.011 -19.033 -19.626  0.00  0.00    -0.079 HD
ENDBRANCH  11  13
ENDBRANCH   9  11
ENDBRANCH   6   8
BRANCH   1  19
ATOM     19  O   UNL     1      32.179 -11.729 -23.120  0.00  0.00    -0.479 OA
BRANCH  19  25
ATOM     20  N   UNL     1      31.569  -8.255 -23.675  0.00  0.00    +0.388 N 
ATOM     21  C   UNL     1      32.625  -9.015 -24.355  0.00  0.00    -0.074 C 
ATOM     22  C   UNL     1      30.834  -9.076 -22.706  0.00  0.00    -0.074 C 
ATOM     23  C   UNL     1      33.570  -9.772 -23.414  0.00  0.00    +0.021 C 
ATOM     24  C   UNL     1      31.722  -9.838 -21.714  0.00  0.00    +0.021 C 
ATOM     25  C   UNL     1      32.801 -10.649 -22.427  0.00  0.00    +0.162 C 
ATOM     26  H   UNL     1      30.901  -7.968 -24.390  0.00  0.00    -0.080 HD
BRANCH  20  27
ATOM     27  C   UNL     1      32.111  -7.044 -23.041  0.00  0.00    -0.058 C 
ATOM     28  C   UNL     1      30.964  -6.250 -22.380  0.00  0.00    -0.021 C 
ATOM     29  C   UNL     1      32.195  -5.908 -24.082  0.00  0.00    -0.021 C 
ATOM     30  C   UNL     1      31.581  -4.984 -23.009  0.00  0.00    -0.004 C 
ENDBRANCH  20  27
ENDBRANCH  19  25
ENDBRANCH   1  19
TORSDOF 6
ENDMDL
MODEL 7
REMARK VINA RESULT:      -9.4      2.563      9.982
REMARK  Name = 60151477
REMARK  6 active torsions:
REMARK  status: ('A' for Active; 'I' for Inactive)
REMARK    1  A    between atoms: C_1  and  O_19
REMARK    2  A    between atoms: C_6  and  N_8
REMARK    3  A    between atoms: C_9  and  C_11
REMARK    4  A    between atoms: C_11  and  N_13
REMARK    5  A    between atoms: O_19  and  C_25
REMARK    6  A    between atoms: N_20  and  C_27
REMARK                            x       y       z     vdW  Elec       q    Type
REMARK                         _______ _______ _______ _____ _____    ______ ____
ROOT
ATOM      1  C   UNL     1      35.117 -20.519 -20.355  0.00  0.00    +0.138 C 
ATOM      2  C   UNL     1      36.135 -21.024 -19.547  0.00  0.00    +0.038 C 
ATOM      3  C   UNL     1      33.794 -20.898 -20.130  0.00  0.00    +0.038 C 
ATOM      4  C   UNL     1      35.830 -21.909 -18.513  0.00  0.00    +0.018 C 
ATOM      5  C   UNL     1      33.488 -21.784 -19.096  0.00  0.00    +0.018 C 
ATOM      6  C   UNL     1      34.506 -22.290 -18.288  0.00  0.00    +0.050 C 
ENDROOT
BRANCH   6   8
ATOM      7  O   UNL     1      35.315 -22.251 -15.398  0.00  0.00    -0.277 OA
ATOM      8  N   UNL     1      34.202 -23.175 -17.254  0.00  0.00    -0.286 N 
ATOM      9  C   UNL     1      34.604 -23.112 -15.908  0.00  0.00    +0.205 C 
ATOM     10  H   UNL     1      33.633 -23.940 -17.497  0.00  0.00    +0.155 HD
BRANCH   9  11
ATOM     11  C   UNL     1      34.045 -24.284 -15.120  0.00  0.00    +0.010 C 
BRANCH  11  13
ATOM     12  O   UNL     1      29.930 -24.155 -14.310  0.00  0.00    -0.358 OA
ATOM     13  N   UNL     1      32.756 -23.911 -14.543  0.00  0.00    +0.396 N 
ATOM     14  C   UNL     1      32.137 -25.059 -13.863  0.00  0.00    -0.044 C 
ATOM     15  C   UNL     1      31.851 -23.391 -15.577  0.00  0.00    -0.044 C 
ATOM     16  C   UNL     1      30.788 -24.649 -13.280  0.00  0.00    +0.119 C 
ATOM     17  C   UNL     1      30.510 -23.019 -14.952  0.00  0.00    +0.119 C 
ATOM     18  H   UNL     1      32.922 -23.175 -13.856  0.00  0.00    -0.079 HD
ENDBRANCH  11  13
ENDBRANCH   9  11
ENDBRANCH   6   8
BRANCH   1  19
ATOM     19  O   UNL     1      35.417 -19.649 -21.370  0.00  0.00    -0.479 OA
BRANCH  19  25
ATOM     20  N   UNL     1      34.861 -16.230 -22.235  0.00  0.00    +0.388 N 
ATOM     21  C   UNL     1      34.314 -16.863 -21.030  0.00  0.00    -0.074 C 
ATOM     22  C   UNL     1      35.614 -17.178 -23.065  0.00  0.00    -0.074 C 
ATOM     23  C   UNL     1      33.521 -18.150 -21.291  0.00  0.00    +0.021 C 
ATOM     24  C   UNL     1      34.864 -18.475 -23.389  0.00  0.00    +0.021 C 
ATOM     25  C   UNL     1      34.321 -19.145 -22.130  0.00  0.00    +0.162 C 
ATOM     26  H   UNL     1      35.521 -15.516 -21.924  0.00  0.00    -0.080 HD
BRANCH  20  27
ATOM     27  C   UNL     1      33.803 -15.568 -23.013  0.00  0.00    -0.058 C 
ATOM     28  C   UNL     1      34.276 -14.160 -23.434  0.00  0.00    -0.021 C 
ATOM     29  C   UNL     1      32.818 -14.866 -22.055  0.00  0.00    -0.021 C 
ATOM     30  C   UNL     1      32.888 -13.647 -22.998  0.00  0.00    -0.004 C 
ENDBRANCH  20  27
ENDBRANCH  19  25
ENDBRANCH   1  19
TORSDOF 6
ENDMDL
MODEL 8
REMARK VINA RESULT:      -9.1      6.750     14.102
REMARK  Name = 60151477
REMARK  6 active torsions:
REMARK  status: ('A' for Active; 'I' for Inactive)
REMARK    1  A    between atoms: C_1  and  O_19
REMARK    2  A    between atoms: C_6  and  N_8
REMARK    3  A    between atoms: C_9  and  C_11
REMARK    4  A    between atoms: C_11  and  N_13
REMARK    5  A    between atoms: O_19  and  C_25
REMARK    6  A    between atoms: N_20  and  C_27
REMARK                            x       y       z     vdW  Elec       q    Type
REMARK                         _______ _______ _______ _____ _____    ______ ____
ROOT
ATOM      1  C   UNL     1      31.781 -10.642 -21.606  0.00  0.00    +0.138 C 
ATOM      2  C   UNL     1      32.197 -11.316 -22.754  0.00  0.00    +0.038 C 
ATOM      3  C   UNL     1      31.672 -11.328 -20.397  0.00  0.00    +0.038 C 
ATOM      4  C   UNL     1      32.503 -12.675 -22.694  0.00  0.00    +0.018 C 
ATOM      5  C   UNL     1      31.977 -12.688 -20.335  0.00  0.00    +0.018 C 
ATOM      6  C   UNL     1      32.392 -13.362 -21.484  0.00  0.00    +0.050 C 
ENDROOT
BRANCH   6   8
ATOM      7  O   UNL     1      34.921 -14.747 -20.650  0.00  0.00    -0.277 OA
ATOM      8  N   UNL     1      32.699 -14.721 -21.424  0.00  0.00    -0.286 N 
ATOM      9  C   UNL     1      33.903 -15.324 -21.021  0.00  0.00    +0.205 C 
ATOM     10  H   UNL     1      31.980 -15.336 -21.697  0.00  0.00    +0.155 HD
BRANCH   9  11
ATOM     11  C   UNL     1      33.806 -16.838 -21.108  0.00  0.00    +0.010 C 
BRANCH  11  13
ATOM     12  O   UNL     1      34.679 -18.458 -24.879  0.00  0.00    -0.358 OA
ATOM     13  N   UNL     1      34.541 -17.305 -22.281  0.00  0.00    +0.396 N 
ATOM     14  C   UNL     1      34.147 -16.549 -23.478  0.00  0.00    -0.044 C 
ATOM     15  C   UNL     1      34.323 -18.742 -22.497  0.00  0.00    -0.044 C 
ATOM     16  C   UNL     1      34.917 -17.062 -24.691  0.00  0.00    +0.119 C 
ATOM     17  C   UNL     1      35.091 -19.202 -23.732  0.00  0.00    +0.119 C 
ATOM     18  H   UNL     1      35.535 -17.149 -22.109  0.00  0.00    -0.079 HD
ENDBRANCH  11  13
ENDBRANCH   9  11
ENDBRANCH   6   8
BRANCH   1  19
ATOM     19  O   UNL     1      31.481  -9.307 -21.667  0.00  0.00    -0.479 OA
BRANCH  19  25
ATOM     20  N   UNL     1      30.898  -6.010 -22.907  0.00  0.00    +0.388 N 
ATOM     21  C   UNL     1      30.788  -7.220 -23.730  0.00  0.00    -0.074 C 
ATOM     22  C   UNL     1      31.327  -6.311 -21.536  0.00  0.00    -0.074 C 
ATOM     23  C   UNL     1      32.028  -8.122 -23.703  0.00  0.00    +0.021 C 
ATOM     24  C   UNL     1      32.581  -7.186 -21.439  0.00  0.00    +0.021 C 
ATOM     25  C   UNL     1      32.452  -8.457 -22.274  0.00  0.00    +0.162 C 
ATOM     26  H   UNL     1      29.963  -5.605 -22.845  0.00  0.00    -0.080 HD
BRANCH  20  27
ATOM     27  C   UNL     1      31.785  -5.020 -23.535  0.00  0.00    -0.058 C 
ATOM     28  C   UNL     1      31.278  -3.597 -23.217  0.00  0.00    -0.021 C 
ATOM     29  C   UNL     1      31.337  -4.772 -24.990  0.00  0.00    -0.021 C 
ATOM     30  C   UNL     1      31.510  -3.265 -24.706  0.00  0.00    -0.004 C 
ENDBRANCH  20  27
ENDBRANCH  19  25
ENDBRANCH   1  19
TORSDOF 6
ENDMDL
MODEL 9
REMARK VINA RESULT:      -9.1      6.303     11.221
REMARK  Name = 60151477
REMARK  6 active torsions:
REMARK  status: ('A' for Active; 'I' for Inactive)
REMARK    1  A    between atoms: C_1  and  O_19
REMARK    2  A    between atoms: C_6  and  N_8
REMARK    3  A    between atoms: C_9  and  C_11
REMARK    4  A    between atoms: C_11  and  N_13
REMARK    5  A    between atoms: O_19  and  C_25
REMARK    6  A    between atoms: N_20  and  C_27
REMARK                            x       y       z     vdW  Elec       q    Type
REMARK                         _______ _______ _______ _____ _____    ______ ____
ROOT
ATOM      1  C   UNL     1      33.330 -12.010 -23.304  0.00  0.00    +0.138 C 
ATOM      2  C   UNL     1      33.803 -10.919 -24.032  0.00  0.00    +0.038 C 
ATOM      3  C   UNL     1      32.213 -11.868 -22.482  0.00  0.00    +0.038 C 
ATOM      4  C   UNL     1      33.160  -9.685 -23.937  0.00  0.00    +0.018 C 
ATOM      5  C   UNL     1      31.568 -10.634 -22.386  0.00  0.00    +0.018 C 
ATOM      6  C   UNL     1      32.042  -9.543 -23.114  0.00  0.00    +0.050 C 
ENDROOT
BRANCH   6   8
ATOM      7  O   UNL     1      32.761  -7.092 -21.537  0.00  0.00    -0.277 OA
ATOM      8  N   UNL     1      31.399  -8.309 -23.021  0.00  0.00    -0.286 N 
ATOM      9  C   UNL     1      31.778  -7.184 -22.267  0.00  0.00    +0.205 C 
ATOM     10  H   UNL     1      30.575  -8.213 -23.551  0.00  0.00    +0.155 HD
BRANCH   9  11
ATOM     11  C   UNL     1      30.789  -6.047 -22.455  0.00  0.00    +0.010 C 
BRANCH  11  13
ATOM     12  O   UNL     1      31.319  -2.783 -25.039  0.00  0.00    -0.358 OA
ATOM     13  N   UNL     1      31.416  -4.982 -23.234  0.00  0.00    +0.396 N 
ATOM     14  C   UNL     1      30.914  -3.665 -22.815  0.00  0.00    -0.044 C 
ATOM     15  C   UNL     1      31.180  -5.176 -24.671  0.00  0.00    -0.044 C 
ATOM     16  C   UNL     1      31.573  -2.570 -23.649  0.00  0.00    +0.119 C 
ATOM     17  C   UNL     1      31.834  -4.046 -25.461  0.00  0.00    +0.119 C 
ATOM     18  H   UNL     1      32.421  -5.018 -23.061  0.00  0.00    -0.079 HD
ENDBRANCH  11  13
ENDBRANCH   9  11
ENDBRANCH   6   8
BRANCH   1  19
ATOM     19  O   UNL     1      33.963 -13.222 -23.397  0.00  0.00    -0.479 OA
BRANCH  19  25
ATOM     20  N   UNL     1      35.079 -16.489 -22.489  0.00  0.00    +0.388 N 
ATOM     21  C   UNL     1      34.990 -16.016 -23.875  0.00  0.00    -0.074 C 
ATOM     22  C   UNL     1      34.605 -15.484 -21.530  0.00  0.00    -0.074 C 
ATOM     23  C   UNL     1      33.620 -15.452 -24.268  0.00  0.00    +0.021 C 
ATOM     24  C   UNL     1      33.224 -14.901 -21.850  0.00  0.00    +0.021 C 
ATOM     25  C   UNL     1      33.145 -14.384 -23.284  0.00  0.00    +0.162 C 
ATOM     26  H   UNL     1      36.067 -16.649 -22.290  0.00  0.00    -0.080 HD
BRANCH  20  27
ATOM     27  C   UNL     1      34.365 -17.764 -22.317  0.00  0.00    -0.058 C 
ATOM     28  C   UNL     1      34.872 -18.471 -21.042  0.00  0.00    -0.021 C 
ATOM     29  C   UNL     1      35.080 -18.870 -23.122  0.00  0.00    -0.021 C 
ATOM     30  C   UNL     1      34.929 -19.768 -21.876  0.00  0.00    -0.004 C 
ENDBRANCH  20  27
ENDBRANCH  19  25
ENDBRANCH   1  19
TORSDOF 6
ENDMDL
