MODEL 1
REMARK VINA RESULT:      -6.9      0.000      0.000
REMARK  Name = 92874
REMARK  0 active torsions:
REMARK  status: ('A' for Active; 'I' for Inactive)
REMARK                            x       y       z     vdW  Elec       q    Type
REMARK                         _______ _______ _______ _____ _____    ______ ____
ROOT
ATOM      1  O   UNL     1      37.655 -19.274 -20.810  0.00  0.00    -0.291 OA
ATOM      2  C   UNL     1      34.915 -17.305 -22.268  0.00  0.00    +0.010 C 
ATOM      3  C   UNL     1      34.084 -18.624 -22.416  0.00  0.00    +0.019 C 
ATOM      4  C   UNL     1      36.141 -18.244 -22.535  0.00  0.00    +0.062 C 
ATOM      5  C   UNL     1      35.158 -19.001 -23.493  0.00  0.00    +0.012 C 
ATOM      6  C   UNL     1      34.144 -19.503 -21.187  0.00  0.00    -0.041 C 
ATOM      7  C   UNL     1      34.878 -16.674 -20.884  0.00  0.00    +0.001 C 
ATOM      8  C   UNL     1      34.674 -16.214 -23.291  0.00  0.00    +0.001 C 
ATOM      9  C   UNL     1      36.531 -19.101 -21.272  0.00  0.00    +0.172 C 
ATOM     10  C   UNL     1      35.345 -19.738 -20.623  0.00  0.00    +0.029 C 
ATOM     11  C   UNL     1      32.863 -20.064 -20.662  0.00  0.00    +0.026 C 
ENDROOT
TORSDOF 0
ENDMDL
MODEL 2
REMARK VINA RESULT:      -6.7      1.776      3.490
REMARK  Name = 92874
REMARK  0 active torsions:
REMARK  status: ('A' for Active; 'I' for Inactive)
REMARK                            x       y       z     vdW  Elec       q    Type
REMARK                         _______ _______ _______ _____ _____    ______ ____
ROOT
ATOM      1  O   UNL     1      34.342 -18.565 -24.613  0.00  0.00    -0.291 OA
ATOM      2  C   UNL     1      34.772 -19.457 -21.073  0.00  0.00    +0.010 C 
ATOM      3  C   UNL     1      35.507 -18.093 -20.848  0.00  0.00    +0.019 C 
ATOM      4  C   UNL     1      35.426 -19.385 -22.495  0.00  0.00    +0.062 C 
ATOM      5  C   UNL     1      36.630 -18.722 -21.740  0.00  0.00    +0.012 C 
ATOM      6  C   UNL     1      34.808 -16.927 -21.511  0.00  0.00    -0.041 C 
ATOM      7  C   UNL     1      33.253 -19.378 -21.059  0.00  0.00    +0.001 C 
ATOM      8  C   UNL     1      35.193 -20.624 -20.203  0.00  0.00    +0.001 C 
ATOM      9  C   UNL     1      34.684 -18.373 -23.449  0.00  0.00    +0.172 C 
ATOM     10  C   UNL     1      34.403 -17.063 -22.788  0.00  0.00    +0.029 C 
ATOM     11  C   UNL     1      34.603 -15.683 -20.709  0.00  0.00    +0.026 C 
ENDROOT
TORSDOF 0
ENDMDL
MODEL 3
REMARK VINA RESULT:      -6.5      9.572     11.530
REMARK  Name = 92874
REMARK  0 active torsions:
REMARK  status: ('A' for Active; 'I' for Inactive)
REMARK                            x       y       z     vdW  Elec       q    Type
REMARK                         _______ _______ _______ _____ _____    ______ ____
ROOT
ATOM      1  O   UNL     1      32.767  -7.360 -19.853  0.00  0.00    -0.291 OA
ATOM      2  C   UNL     1      33.484  -8.540 -23.259  0.00  0.00    +0.010 C 
ATOM      3  C   UNL     1      32.139  -7.894 -23.736  0.00  0.00    +0.019 C 
ATOM      4  C   UNL     1      32.700  -8.786 -21.925  0.00  0.00    +0.062 C 
ATOM      5  C   UNL     1      31.469  -9.013 -22.868  0.00  0.00    +0.012 C 
ATOM      6  C   UNL     1      31.920  -6.505 -23.181  0.00  0.00    -0.041 C 
ATOM      7  C   UNL     1      34.655  -7.577 -23.149  0.00  0.00    +0.001 C 
ATOM      8  C   UNL     1      33.957  -9.778 -23.994  0.00  0.00    +0.001 C 
ATOM      9  C   UNL     1      32.561  -7.478 -21.057  0.00  0.00    +0.172 C 
ATOM     10  C   UNL     1      32.127  -6.298 -21.866  0.00  0.00    +0.029 C 
ATOM     11  C   UNL     1      31.486  -5.432 -24.126  0.00  0.00    +0.026 C 
ENDROOT
TORSDOF 0
ENDMDL
MODEL 4
REMARK VINA RESULT:      -6.5      1.707      3.409
REMARK  Name = 92874
REMARK  0 active torsions:
REMARK  status: ('A' for Active; 'I' for Inactive)
REMARK                            x       y       z     vdW  Elec       q    Type
REMARK                         _______ _______ _______ _____ _____    ______ ____
ROOT
ATOM      1  O   UNL     1      34.936 -15.573 -21.677  0.00  0.00    -0.291 OA
ATOM      2  C   UNL     1      35.904 -19.106 -21.368  0.00  0.00    +0.010 C 
ATOM      3  C   UNL     1      34.755 -19.479 -22.366  0.00  0.00    +0.019 C 
ATOM      4  C   UNL     1      34.919 -17.972 -20.918  0.00  0.00    +0.062 C 
ATOM      5  C   UNL     1      33.805 -19.038 -21.201  0.00  0.00    +0.012 C 
ATOM      6  C   UNL     1      34.689 -18.557 -23.563  0.00  0.00    -0.041 C 
ATOM      7  C   UNL     1      37.189 -18.620 -22.021  0.00  0.00    +0.001 C 
ATOM      8  C   UNL     1      36.267 -20.132 -20.314  0.00  0.00    +0.001 C 
ATOM      9  C   UNL     1      34.876 -16.772 -21.938  0.00  0.00    +0.172 C 
ATOM     10  C   UNL     1      34.748 -17.228 -23.356  0.00  0.00    +0.029 C 
ATOM     11  C   UNL     1      34.562 -19.176 -24.918  0.00  0.00    +0.026 C 
ENDROOT
TORSDOF 0
ENDMDL
MODEL 5
REMARK VINA RESULT:      -6.4      1.810      2.988
REMARK  Name = 92874
REMARK  0 active torsions:
REMARK  status: ('A' for Active; 'I' for Inactive)
REMARK                            x       y       z     vdW  Elec       q    Type
REMARK                         _______ _______ _______ _____ _____    ______ ____
ROOT
ATOM      1  O   UNL     1      32.392 -20.069 -20.845  0.00  0.00    -0.291 OA
ATOM      2  C   UNL     1      34.859 -18.125 -22.754  0.00  0.00    +0.010 C 
ATOM      3  C   UNL     1      35.784 -18.110 -21.490  0.00  0.00    +0.019 C 
ATOM      4  C   UNL     1      33.699 -18.096 -21.701  0.00  0.00    +0.062 C 
ATOM      5  C   UNL     1      34.675 -17.189 -20.876  0.00  0.00    +0.012 C 
ATOM      6  C   UNL     1      35.877 -19.457 -20.809  0.00  0.00    -0.041 C 
ATOM      7  C   UNL     1      34.937 -19.391 -23.592  0.00  0.00    +0.001 C 
ATOM      8  C   UNL     1      34.942 -16.934 -23.688  0.00  0.00    +0.001 C 
ATOM      9  C   UNL     1      33.465 -19.500 -21.024  0.00  0.00    +0.172 C 
ATOM     10  C   UNL     1      34.740 -20.141 -20.579  0.00  0.00    +0.029 C 
ATOM     11  C   UNL     1      37.233 -19.958 -20.428  0.00  0.00    +0.026 C 
ENDROOT
TORSDOF 0
ENDMDL
MODEL 6
REMARK VINA RESULT:      -6.1      9.851     11.378
REMARK  Name = 92874
REMARK  0 active torsions:
REMARK  status: ('A' for Active; 'I' for Inactive)
REMARK                            x       y       z     vdW  Elec       q    Type
REMARK                         _______ _______ _______ _____ _____    ______ ____
ROOT
ATOM      1  O   UNL     1      32.141 -10.497 -22.905  0.00  0.00    -0.291 OA
ATOM      2  C   UNL     1      33.186  -7.062 -23.695  0.00  0.00    +0.010 C 
ATOM      3  C   UNL     1      32.279  -6.548 -22.526  0.00  0.00    +0.019 C 
ATOM      4  C   UNL     1      32.081  -8.164 -23.845  0.00  0.00    +0.062 C 
ATOM      5  C   UNL     1      31.095  -7.014 -23.440  0.00  0.00    +0.012 C 
ATOM      6  C   UNL     1      32.414  -7.372 -21.266  0.00  0.00    -0.041 C 
ATOM      7  C   UNL     1      34.553  -7.576 -23.269  0.00  0.00    +0.001 C 
ATOM      8  C   UNL     1      33.376  -6.141 -24.883  0.00  0.00    +0.001 C 
ATOM      9  C   UNL     1      32.189  -9.281 -22.739  0.00  0.00    +0.172 C 
ATOM     10  C   UNL     1      32.370  -8.715 -21.368  0.00  0.00    +0.029 C 
ATOM     11  C   UNL     1      32.589  -6.649 -19.970  0.00  0.00    +0.026 C 
ENDROOT
TORSDOF 0
ENDMDL
MODEL 7
REMARK VINA RESULT:      -6.1      9.629     11.332
REMARK  Name = 92874
REMARK  0 active torsions:
REMARK  status: ('A' for Active; 'I' for Inactive)
REMARK                            x       y       z     vdW  Elec       q    Type
REMARK                         _______ _______ _______ _____ _____    ______ ____
ROOT
ATOM      1  O   UNL     1      31.578 -10.646 -22.434  0.00  0.00    -0.291 OA
ATOM      2  C   UNL     1      31.588  -6.974 -22.272  0.00  0.00    +0.010 C 
ATOM      3  C   UNL     1      33.150  -7.011 -22.166  0.00  0.00    +0.019 C 
ATOM      4  C   UNL     1      31.668  -8.321 -21.476  0.00  0.00    +0.062 C 
ATOM      5  C   UNL     1      32.889  -7.648 -20.759  0.00  0.00    +0.012 C 
ATOM      6  C   UNL     1      33.787  -7.974 -23.143  0.00  0.00    -0.041 C 
ATOM      7  C   UNL     1      31.037  -7.093 -23.685  0.00  0.00    +0.001 C 
ATOM      8  C   UNL     1      30.873  -5.831 -21.581  0.00  0.00    +0.001 C 
ATOM      9  C   UNL     1      32.098  -9.535 -22.385  0.00  0.00    +0.172 C 
ATOM     10  C   UNL     1      33.272  -9.213 -23.252  0.00  0.00    +0.029 C 
ATOM     11  C   UNL     1      34.958  -7.495 -23.938  0.00  0.00    +0.026 C 
ENDROOT
TORSDOF 0
ENDMDL
MODEL 8
REMARK VINA RESULT:      -6.0      8.912     10.711
REMARK  Name = 92874
REMARK  0 active torsions:
REMARK  status: ('A' for Active; 'I' for Inactive)
REMARK                            x       y       z     vdW  Elec       q    Type
REMARK                         _______ _______ _______ _____ _____    ______ ____
ROOT
ATOM      1  O   UNL     1      36.765 -26.298 -11.602  0.00  0.00    -0.291 OA
ATOM      2  C   UNL     1      36.265 -24.728 -14.888  0.00  0.00    +0.010 C 
ATOM      3  C   UNL     1      37.703 -24.115 -14.782  0.00  0.00    +0.019 C 
ATOM      4  C   UNL     1      36.253 -24.543 -13.331  0.00  0.00    +0.062 C 
ATOM      5  C   UNL     1      37.086 -23.250 -13.631  0.00  0.00    +0.012 C 
ATOM      6  C   UNL     1      38.734 -25.106 -14.290  0.00  0.00    -0.041 C 
ATOM      7  C   UNL     1      36.215 -26.171 -15.365  0.00  0.00    +0.001 C 
ATOM      8  C   UNL     1      35.229 -23.938 -15.662  0.00  0.00    +0.001 C 
ATOM      9  C   UNL     1      37.099 -25.645 -12.587  0.00  0.00    +0.172 C 
ATOM     10  C   UNL     1      38.439 -25.858 -13.212  0.00  0.00    +0.029 C 
ATOM     11  C   UNL     1      40.029 -25.197 -15.030  0.00  0.00    +0.026 C 
ENDROOT
TORSDOF 0
ENDMDL
MODEL 9
REMARK VINA RESULT:      -6.0      9.264     11.086
REMARK  Name = 92874
REMARK  0 active torsions:
REMARK  status: ('A' for Active; 'I' for Inactive)
REMARK                            x       y       z     vdW  Elec       q    Type
REMARK                         _______ _______ _______ _____ _____    ______ ____
ROOT
ATOM      1  O   UNL     1      36.053 -26.665 -15.729  0.00  0.00    -0.291 OA
ATOM      2  C   UNL     1      37.170 -24.114 -13.330  0.00  0.00    +0.010 C 
ATOM      3  C   UNL     1      38.379 -25.035 -12.955  0.00  0.00    +0.019 C 
ATOM      4  C   UNL     1      36.416 -25.471 -13.544  0.00  0.00    +0.062 C 
ATOM      5  C   UNL     1      37.283 -25.968 -12.336  0.00  0.00    +0.012 C 
ATOM      6  C   UNL     1      39.058 -25.642 -14.163  0.00  0.00    -0.041 C 
ATOM      7  C   UNL     1      37.362 -23.280 -14.586  0.00  0.00    +0.001 C 
ATOM      8  C   UNL     1      36.623 -23.211 -12.242  0.00  0.00    +0.001 C 
ATOM      9  C   UNL     1      36.812 -26.173 -14.898  0.00  0.00    +0.172 C 
ATOM     10  C   UNL     1      38.290 -26.201 -15.118  0.00  0.00    +0.029 C 
ATOM     11  C   UNL     1      40.549 -25.586 -14.232  0.00  0.00    +0.026 C 
ENDROOT
TORSDOF 0
ENDMDL
