MODEL 1
REMARK VINA RESULT:      -4.9      0.000      0.000
REMARK  Name = 447583
REMARK  6 active torsions:
REMARK  status: ('A' for Active; 'I' for Inactive)
REMARK    1  A    between atoms: C_1  and  O_3
REMARK    2  A    between atoms: C_1  and  C_5
REMARK    3  A    between atoms: C_1  and  C_10
REMARK    4  A    between atoms: C_5  and  C_6
REMARK    5  A    between atoms: C_6  and  O_8
REMARK    6  A    between atoms: C_10  and  O_11
REMARK                            x       y       z     vdW  Elec       q    Type
REMARK                         _______ _______ _______ _____ _____    ______ ____
ROOT
ATOM      1  C   UNL     1      35.074 -18.286 -23.069  0.00  0.00    +0.118 C 
ATOM      2  C   UNL     1      34.887 -19.364 -24.139  0.00  0.00    +0.032 C 
ENDROOT
BRANCH   1   3
ATOM      3  O   UNL     1      36.476 -18.192 -22.807  0.00  0.00    -0.384 OA
ATOM      4  H   UNL     1      36.662 -17.369 -22.328  0.00  0.00    +0.210 HD
ENDBRANCH   1   3
BRANCH   1   5
ATOM      5  C   UNL     1      34.321 -18.620 -21.756  0.00  0.00    +0.059 C 
BRANCH   5   6
ATOM      6  C   UNL     1      34.707 -19.947 -21.079  0.00  0.00    +0.113 C 
ATOM      7  C   UNL     1      33.563 -20.470 -20.216  0.00  0.00    +0.032 C 
BRANCH   6   8
ATOM      8  O   UNL     1      35.848 -19.753 -20.252  0.00  0.00    -0.384 OA
ATOM      9  H   UNL     1      36.223 -18.874 -20.418  0.00  0.00    +0.210 HD
ENDBRANCH   6   8
ENDBRANCH   5   6
ENDBRANCH   1   5
BRANCH   1  10
ATOM     10  C   UNL     1      34.618 -16.931 -23.637  0.00  0.00    +0.164 C 
BRANCH  10  11
ATOM     11  O   UNL     1      35.687 -15.992 -23.610  0.00  0.00    -0.380 OA
ATOM     12  H   UNL     1      36.438 -16.371 -23.127  0.00  0.00    +0.211 HD
ENDBRANCH  10  11
ENDBRANCH   1  10
TORSDOF 6
ENDMDL
MODEL 2
REMARK VINA RESULT:      -4.9      1.337      4.001
REMARK  Name = 447583
REMARK  6 active torsions:
REMARK  status: ('A' for Active; 'I' for Inactive)
REMARK    1  A    between atoms: C_1  and  O_3
REMARK    2  A    between atoms: C_1  and  C_5
REMARK    3  A    between atoms: C_1  and  C_10
REMARK    4  A    between atoms: C_5  and  C_6
REMARK    5  A    between atoms: C_6  and  O_8
REMARK    6  A    between atoms: C_10  and  O_11
REMARK                            x       y       z     vdW  Elec       q    Type
REMARK                         _______ _______ _______ _____ _____    ______ ____
ROOT
ATOM      1  C   UNL     1      35.437 -18.643 -21.363  0.00  0.00    +0.118 C 
ATOM      2  C   UNL     1      34.132 -19.381 -21.057  0.00  0.00    +0.032 C 
ENDROOT
BRANCH   1   3
ATOM      3  O   UNL     1      35.351 -17.360 -20.739  0.00  0.00    -0.384 OA
ATOM      4  H   UNL     1      35.036 -17.463 -19.827  0.00  0.00    +0.210 HD
ENDBRANCH   1   3
BRANCH   1   5
ATOM      5  C   UNL     1      35.672 -18.467 -22.885  0.00  0.00    +0.059 C 
BRANCH   5   6
ATOM      6  C   UNL     1      34.895 -17.321 -23.556  0.00  0.00    +0.113 C 
ATOM      7  C   UNL     1      34.605 -17.643 -25.018  0.00  0.00    +0.032 C 
BRANCH   6   8
ATOM      8  O   UNL     1      35.659 -16.121 -23.498  0.00  0.00    -0.384 OA
ATOM      9  H   UNL     1      35.659 -15.780 -22.590  0.00  0.00    +0.210 HD
ENDBRANCH   6   8
ENDBRANCH   5   6
ENDBRANCH   1   5
BRANCH   1  10
ATOM     10  C   UNL     1      36.607 -19.398 -20.708  0.00  0.00    +0.164 C 
BRANCH  10  11
ATOM     11  O   UNL     1      36.126 -20.306 -19.723  0.00  0.00    -0.380 OA
ATOM     12  H   UNL     1      36.818 -20.952 -19.512  0.00  0.00    +0.211 HD
ENDBRANCH  10  11
ENDBRANCH   1  10
TORSDOF 6
ENDMDL
MODEL 3
REMARK VINA RESULT:      -4.9     10.952     12.237
REMARK  Name = 447583
REMARK  6 active torsions:
REMARK  status: ('A' for Active; 'I' for Inactive)
REMARK    1  A    between atoms: C_1  and  O_3
REMARK    2  A    between atoms: C_1  and  C_5
REMARK    3  A    between atoms: C_1  and  C_10
REMARK    4  A    between atoms: C_5  and  C_6
REMARK    5  A    between atoms: C_6  and  O_8
REMARK    6  A    between atoms: C_10  and  O_11
REMARK                            x       y       z     vdW  Elec       q    Type
REMARK                         _______ _______ _______ _____ _____    ______ ____
ROOT
ATOM      1  C   UNL     1      36.863 -25.110 -12.417  0.00  0.00    +0.118 C 
ATOM      2  C   UNL     1      37.946 -24.168 -11.885  0.00  0.00    +0.032 C 
ENDROOT
BRANCH   1   3
ATOM      3  O   UNL     1      37.110 -26.399 -11.849  0.00  0.00    -0.384 OA
ATOM      4  H   UNL     1      36.453 -26.581 -11.159  0.00  0.00    +0.210 HD
ENDBRANCH   1   3
BRANCH   1   5
ATOM      5  C   UNL     1      36.876 -25.210 -13.963  0.00  0.00    +0.059 C 
BRANCH   5   6
ATOM      6  C   UNL     1      37.773 -26.310 -14.557  0.00  0.00    +0.113 C 
ATOM      7  C   UNL     1      39.201 -25.806 -14.741  0.00  0.00    +0.032 C 
BRANCH   6   8
ATOM      8  O   UNL     1      37.267 -26.714 -15.824  0.00  0.00    -0.384 OA
ATOM      9  H   UNL     1      36.550 -26.118 -16.092  0.00  0.00    +0.210 HD
ENDBRANCH   6   8
ENDBRANCH   5   6
ENDBRANCH   1   5
BRANCH   1  10
ATOM     10  C   UNL     1      35.491 -24.635 -11.906  0.00  0.00    +0.164 C 
BRANCH  10  11
ATOM     11  O   UNL     1      35.270 -25.087 -10.574  0.00  0.00    -0.380 OA
ATOM     12  H   UNL     1      35.955 -24.724  -9.992  0.00  0.00    +0.211 HD
ENDBRANCH  10  11
ENDBRANCH   1  10
TORSDOF 6
ENDMDL
MODEL 4
REMARK VINA RESULT:      -4.9     10.448     11.719
REMARK  Name = 447583
REMARK  6 active torsions:
REMARK  status: ('A' for Active; 'I' for Inactive)
REMARK    1  A    between atoms: C_1  and  O_3
REMARK    2  A    between atoms: C_1  and  C_5
REMARK    3  A    between atoms: C_1  and  C_10
REMARK    4  A    between atoms: C_5  and  C_6
REMARK    5  A    between atoms: C_6  and  O_8
REMARK    6  A    between atoms: C_10  and  O_11
REMARK                            x       y       z     vdW  Elec       q    Type
REMARK                         _______ _______ _______ _____ _____    ______ ____
ROOT
ATOM      1  C   UNL     1      38.601 -25.819 -14.318  0.00  0.00    +0.118 C 
ATOM      2  C   UNL     1      37.650 -24.954 -15.149  0.00  0.00    +0.032 C 
ENDROOT
BRANCH   1   3
ATOM      3  O   UNL     1      38.386 -27.176 -14.713  0.00  0.00    -0.384 OA
ATOM      4  H   UNL     1      39.088 -27.736 -14.345  0.00  0.00    +0.210 HD
ENDBRANCH   1   3
BRANCH   1   5
ATOM      5  C   UNL     1      38.352 -25.674 -12.796  0.00  0.00    +0.059 C 
BRANCH   5   6
ATOM      6  C   UNL     1      37.131 -24.830 -12.392  0.00  0.00    +0.113 C 
ATOM      7  C   UNL     1      37.566 -23.507 -11.770  0.00  0.00    +0.032 C 
BRANCH   6   8
ATOM      8  O   UNL     1      36.344 -25.541 -11.443  0.00  0.00    -0.384 OA
ATOM      9  H   UNL     1      36.218 -24.994 -10.652  0.00  0.00    +0.210 HD
ENDBRANCH   6   8
ENDBRANCH   5   6
ENDBRANCH   1   5
BRANCH   1  10
ATOM     10  C   UNL     1      40.052 -25.457 -14.678  0.00  0.00    +0.164 C 
BRANCH  10  11
ATOM     11  O   UNL     1      40.375 -25.923 -15.983  0.00  0.00    -0.380 OA
ATOM     12  H   UNL     1      40.054 -25.288 -16.642  0.00  0.00    +0.211 HD
ENDBRANCH  10  11
ENDBRANCH   1  10
TORSDOF 6
ENDMDL
MODEL 5
REMARK VINA RESULT:      -4.8     10.282     11.366
REMARK  Name = 447583
REMARK  6 active torsions:
REMARK  status: ('A' for Active; 'I' for Inactive)
REMARK    1  A    between atoms: C_1  and  O_3
REMARK    2  A    between atoms: C_1  and  C_5
REMARK    3  A    between atoms: C_1  and  C_10
REMARK    4  A    between atoms: C_5  and  C_6
REMARK    5  A    between atoms: C_6  and  O_8
REMARK    6  A    between atoms: C_10  and  O_11
REMARK                            x       y       z     vdW  Elec       q    Type
REMARK                         _______ _______ _______ _____ _____    ______ ____
ROOT
ATOM      1  C   UNL     1      36.489 -24.880 -13.771  0.00  0.00    +0.118 C 
ATOM      2  C   UNL     1      35.958 -23.661 -13.012  0.00  0.00    +0.032 C 
ENDROOT
BRANCH   1   3
ATOM      3  O   UNL     1      36.413 -25.996 -12.881  0.00  0.00    -0.384 OA
ATOM      4  H   UNL     1      35.791 -25.797 -12.164  0.00  0.00    +0.210 HD
ENDBRANCH   1   3
BRANCH   1   5
ATOM      5  C   UNL     1      37.953 -24.689 -14.243  0.00  0.00    +0.059 C 
BRANCH   5   6
ATOM      6  C   UNL     1      38.921 -25.837 -13.909  0.00  0.00    +0.113 C 
ATOM      7  C   UNL     1      40.349 -25.477 -14.305  0.00  0.00    +0.032 C 
BRANCH   6   8
ATOM      8  O   UNL     1      38.538 -27.013 -14.612  0.00  0.00    -0.384 OA
ATOM      9  H   UNL     1      38.426 -27.744 -13.985  0.00  0.00    +0.210 HD
ENDBRANCH   6   8
ENDBRANCH   5   6
ENDBRANCH   1   5
BRANCH   1  10
ATOM     10  C   UNL     1      35.559 -25.173 -14.962  0.00  0.00    +0.164 C 
BRANCH  10  11
ATOM     11  O   UNL     1      35.820 -26.468 -15.492  0.00  0.00    -0.380 OA
ATOM     12  H   UNL     1      36.760 -26.541 -15.720  0.00  0.00    +0.211 HD
ENDBRANCH  10  11
ENDBRANCH   1  10
TORSDOF 6
ENDMDL
MODEL 6
REMARK VINA RESULT:      -4.8      8.926     10.960
REMARK  Name = 447583
REMARK  6 active torsions:
REMARK  status: ('A' for Active; 'I' for Inactive)
REMARK    1  A    between atoms: C_1  and  O_3
REMARK    2  A    between atoms: C_1  and  C_5
REMARK    3  A    between atoms: C_1  and  C_10
REMARK    4  A    between atoms: C_5  and  C_6
REMARK    5  A    between atoms: C_6  and  O_8
REMARK    6  A    between atoms: C_10  and  O_11
REMARK                            x       y       z     vdW  Elec       q    Type
REMARK                         _______ _______ _______ _____ _____    ______ ____
ROOT
ATOM      1  C   UNL     1      37.743 -26.170 -14.419  0.00  0.00    +0.118 C 
ATOM      2  C   UNL     1      37.392 -26.253 -12.932  0.00  0.00    +0.032 C 
ENDROOT
BRANCH   1   3
ATOM      3  O   UNL     1      38.700 -27.199 -14.683  0.00  0.00    -0.384 OA
ATOM      4  H   UNL     1      39.452 -26.826 -15.170  0.00  0.00    +0.210 HD
ENDBRANCH   1   3
BRANCH   1   5
ATOM      5  C   UNL     1      38.338 -24.793 -14.810  0.00  0.00    +0.059 C 
BRANCH   5   6
ATOM      6  C   UNL     1      37.362 -23.605 -14.774  0.00  0.00    +0.113 C 
ATOM      7  C   UNL     1      37.558 -22.703 -15.987  0.00  0.00    +0.032 C 
BRANCH   6   8
ATOM      8  O   UNL     1      37.580 -22.836 -13.597  0.00  0.00    -0.384 OA
ATOM      9  H   UNL     1      36.825 -22.940 -12.997  0.00  0.00    +0.210 HD
ENDBRANCH   6   8
ENDBRANCH   5   6
ENDBRANCH   1   5
BRANCH   1  10
ATOM     10  C   UNL     1      36.486 -26.484 -15.250  0.00  0.00    +0.164 C 
BRANCH  10  11
ATOM     11  O   UNL     1      36.813 -27.322 -16.353  0.00  0.00    -0.380 OA
ATOM     12  H   UNL     1      37.657 -27.038 -16.737  0.00  0.00    +0.211 HD
ENDBRANCH  10  11
ENDBRANCH   1  10
TORSDOF 6
ENDMDL
MODEL 7
REMARK VINA RESULT:      -4.8     11.203     12.171
REMARK  Name = 447583
REMARK  6 active torsions:
REMARK  status: ('A' for Active; 'I' for Inactive)
REMARK    1  A    between atoms: C_1  and  O_3
REMARK    2  A    between atoms: C_1  and  C_5
REMARK    3  A    between atoms: C_1  and  C_10
REMARK    4  A    between atoms: C_5  and  C_6
REMARK    5  A    between atoms: C_6  and  O_8
REMARK    6  A    between atoms: C_10  and  O_11
REMARK                            x       y       z     vdW  Elec       q    Type
REMARK                         _______ _______ _______ _____ _____    ______ ____
ROOT
ATOM      1  C   UNL     1      36.980 -24.689 -12.295  0.00  0.00    +0.118 C 
ATOM      2  C   UNL     1      37.242 -23.537 -13.267  0.00  0.00    +0.032 C 
ENDROOT
BRANCH   1   3
ATOM      3  O   UNL     1      37.755 -24.432 -11.121  0.00  0.00    -0.384 OA
ATOM      4  H   UNL     1      37.474 -25.028 -10.409  0.00  0.00    +0.210 HD
ENDBRANCH   1   3
BRANCH   1   5
ATOM      5  C   UNL     1      37.377 -26.064 -12.888  0.00  0.00    +0.059 C 
BRANCH   5   6
ATOM      6  C   UNL     1      37.788 -26.063 -14.371  0.00  0.00    +0.113 C 
ATOM      7  C   UNL     1      36.721 -26.730 -15.232  0.00  0.00    +0.032 C 
BRANCH   6   8
ATOM      8  O   UNL     1      39.011 -26.770 -14.534  0.00  0.00    -0.384 OA
ATOM      9  H   UNL     1      39.712 -26.326 -14.032  0.00  0.00    +0.210 HD
ENDBRANCH   6   8
ENDBRANCH   5   6
ENDBRANCH   1   5
BRANCH   1  10
ATOM     10  C   UNL     1      35.497 -24.672 -11.883  0.00  0.00    +0.164 C 
BRANCH  10  11
ATOM     11  O   UNL     1      35.347 -25.110 -10.537  0.00  0.00    -0.380 OA
ATOM     12  H   UNL     1      35.387 -26.078 -10.506  0.00  0.00    +0.211 HD
ENDBRANCH  10  11
ENDBRANCH   1  10
TORSDOF 6
ENDMDL
MODEL 8
REMARK VINA RESULT:      -4.8      9.256     11.898
REMARK  Name = 447583
REMARK  6 active torsions:
REMARK  status: ('A' for Active; 'I' for Inactive)
REMARK    1  A    between atoms: C_1  and  O_3
REMARK    2  A    between atoms: C_1  and  C_5
REMARK    3  A    between atoms: C_1  and  C_10
REMARK    4  A    between atoms: C_5  and  C_6
REMARK    5  A    between atoms: C_6  and  O_8
REMARK    6  A    between atoms: C_10  and  O_11
REMARK                            x       y       z     vdW  Elec       q    Type
REMARK                         _______ _______ _______ _____ _____    ______ ____
ROOT
ATOM      1  C   UNL     1      36.693 -24.908 -12.231  0.00  0.00    +0.118 C 
ATOM      2  C   UNL     1      38.124 -24.388 -12.076  0.00  0.00    +0.032 C 
ENDROOT
BRANCH   1   3
ATOM      3  O   UNL     1      36.715 -26.301 -11.911  0.00  0.00    -0.384 OA
ATOM      4  H   UNL     1      36.287 -26.444 -11.053  0.00  0.00    +0.210 HD
ENDBRANCH   1   3
BRANCH   1   5
ATOM      5  C   UNL     1      36.147 -24.713 -13.668  0.00  0.00    +0.059 C 
BRANCH   5   6
ATOM      6  C   UNL     1      37.205 -24.591 -14.778  0.00  0.00    +0.113 C 
ATOM      7  C   UNL     1      36.959 -23.352 -15.631  0.00  0.00    +0.032 C 
BRANCH   6   8
ATOM      8  O   UNL     1      37.156 -25.738 -15.620  0.00  0.00    -0.384 OA
ATOM      9  H   UNL     1      37.963 -26.264 -15.498  0.00  0.00    +0.210 HD
ENDBRANCH   6   8
ENDBRANCH   5   6
ENDBRANCH   1   5
BRANCH   1  10
ATOM     10  C   UNL     1      35.790 -24.211 -11.198  0.00  0.00    +0.164 C 
BRANCH  10  11
ATOM     11  O   UNL     1      35.259 -25.159 -10.279  0.00  0.00    -0.380 OA
ATOM     12  H   UNL     1      35.883 -25.285  -9.547  0.00  0.00    +0.211 HD
ENDBRANCH  10  11
ENDBRANCH   1  10
TORSDOF 6
ENDMDL
MODEL 9
REMARK VINA RESULT:      -4.7     10.109     11.084
REMARK  Name = 447583
REMARK  6 active torsions:
REMARK  status: ('A' for Active; 'I' for Inactive)
REMARK    1  A    between atoms: C_1  and  O_3
REMARK    2  A    between atoms: C_1  and  C_5
REMARK    3  A    between atoms: C_1  and  C_10
REMARK    4  A    between atoms: C_5  and  C_6
REMARK    5  A    between atoms: C_6  and  O_8
REMARK    6  A    between atoms: C_10  and  O_11
REMARK                            x       y       z     vdW  Elec       q    Type
REMARK                         _______ _______ _______ _____ _____    ______ ____
ROOT
ATOM      1  C   UNL     1      37.885 -24.557 -14.302  0.00  0.00    +0.118 C 
ATOM      2  C   UNL     1      38.892 -25.388 -13.504  0.00  0.00    +0.032 C 
ENDROOT
BRANCH   1   3
ATOM      3  O   UNL     1      38.605 -23.937 -15.371  0.00  0.00    -0.384 OA
ATOM      4  H   UNL     1      37.983 -23.493 -15.967  0.00  0.00    +0.210 HD
ENDBRANCH   1   3
BRANCH   1   5
ATOM      5  C   UNL     1      37.200 -23.469 -13.437  0.00  0.00    +0.059 C 
BRANCH   5   6
ATOM      6  C   UNL     1      37.275 -23.676 -11.914  0.00  0.00    +0.113 C 
ATOM      7  C   UNL     1      35.945 -24.184 -11.368  0.00  0.00    +0.032 C 
BRANCH   6   8
ATOM      8  O   UNL     1      37.588 -22.445 -11.274  0.00  0.00    -0.384 OA
ATOM      9  H   UNL     1      36.787 -22.077 -10.869  0.00  0.00    +0.210 HD
ENDBRANCH   6   8
ENDBRANCH   5   6
ENDBRANCH   1   5
BRANCH   1  10
ATOM     10  C   UNL     1      36.844 -25.499 -14.932  0.00  0.00    +0.164 C 
BRANCH  10  11
ATOM     11  O   UNL     1      37.483 -26.478 -15.744  0.00  0.00    -0.380 OA
ATOM     12  H   UNL     1      38.433 -26.293 -15.787  0.00  0.00    +0.211 HD
ENDBRANCH  10  11
ENDBRANCH   1  10
TORSDOF 6
ENDMDL
