MODEL 1
REMARK VINA RESULT:      -8.4      0.000      0.000
REMARK  Name = 446505
REMARK  5 active torsions:
REMARK  status: ('A' for Active; 'I' for Inactive)
REMARK    1  A    between atoms: C_6  and  N_12
REMARK    2  A    between atoms: C_6  and  C_23
REMARK    3  A    between atoms: C_13  and  C_19
REMARK    4  A    between atoms: C_19  and  C_20
REMARK    5  A    between atoms: C_20  and  O_21
REMARK                            x       y       z     vdW  Elec       q    Type
REMARK                         _______ _______ _______ _____ _____    ______ ____
ROOT
ATOM      1  O   UNL     1      35.384 -22.714 -12.837  0.00  0.00    -0.276 OA
ATOM      2  O   UNL     1      35.789 -26.298 -16.025  0.00  0.00    -0.276 OA
ATOM      3  O   UNL     1      37.458 -26.659 -11.773  0.00  0.00    -0.252 OA
ATOM      4  N   UNL     1      36.412 -24.697 -12.342  0.00  0.00    -0.240 N 
ATOM      5  N   UNL     1      36.612 -26.442 -13.895  0.00  0.00    -0.240 N 
ATOM      6  C   UNL     1      35.465 -24.369 -14.600  0.00  0.00    +0.119 C 
ATOM      7  C   UNL     1      35.739 -23.839 -13.194  0.00  0.00    +0.223 C 
ATOM      8  C   UNL     1      35.959 -25.780 -14.919  0.00  0.00    +0.223 C 
ATOM      9  C   UNL     1      36.868 -25.978 -12.614  0.00  0.00    +0.312 C 
ATOM     10  H   UNL     1      36.588 -24.358 -11.435  0.00  0.00    +0.159 HD
ATOM     11  H   UNL     1      36.933 -27.350 -14.100  0.00  0.00    +0.159 HD
ENDROOT
BRANCH   6  12
ATOM     12  N   UNL     1      34.008 -24.427 -14.721  0.00  0.00    +0.403 N 
ATOM     13  C   UNL     1      31.258 -23.672 -14.040  0.00  0.00    -0.002 C 
ATOM     14  C   UNL     1      31.956 -23.177 -15.311  0.00  0.00    -0.023 C 
ATOM     15  C   UNL     1      31.883 -24.996 -13.588  0.00  0.00    -0.023 C 
ATOM     16  C   UNL     1      33.473 -23.120 -15.127  0.00  0.00    -0.075 C 
ATOM     17  C   UNL     1      33.404 -24.878 -13.460  0.00  0.00    -0.075 C 
ATOM     18  H   UNL     1      33.766 -25.104 -15.446  0.00  0.00    -0.078 HD
BRANCH  13  19
ATOM     19  C   UNL     1      29.756 -23.822 -14.261  0.00  0.00    +0.032 C 
BRANCH  19  20
ATOM     20  C   UNL     1      29.421 -25.132 -14.952  0.00  0.00    +0.137 C 
BRANCH  20  21
ATOM     21  O   UNL     1      28.344 -25.747 -14.259  0.00  0.00    -0.382 OA
ATOM     22  H   UNL     1      28.000 -25.136 -13.588  0.00  0.00    +0.210 HD
ENDBRANCH  20  21
ENDBRANCH  19  20
ENDBRANCH  13  19
ENDBRANCH   6  12
BRANCH   6  23
ATOM     23  C   UNL     1      36.041 -23.413 -15.602  0.00  0.00    -0.024 C 
ATOM     24  C   UNL     1      37.320 -22.901 -15.408  0.00  0.00    -0.005 C 
ATOM     25  C   UNL     1      35.291 -23.047 -16.715  0.00  0.00    -0.005 C 
ATOM     26  C   UNL     1      37.856 -22.012 -16.340  0.00  0.00    -0.000 C 
ATOM     27  C   UNL     1      35.828 -22.158 -17.647  0.00  0.00    -0.000 C 
ATOM     28  C   UNL     1      37.110 -21.641 -17.459  0.00  0.00    -0.000 C 
ENDBRANCH   6  23
TORSDOF 5
ENDMDL
MODEL 2
REMARK VINA RESULT:      -7.8      1.920      5.438
REMARK  Name = 446505
REMARK  5 active torsions:
REMARK  status: ('A' for Active; 'I' for Inactive)
REMARK    1  A    between atoms: C_6  and  N_12
REMARK    2  A    between atoms: C_6  and  C_23
REMARK    3  A    between atoms: C_13  and  C_19
REMARK    4  A    between atoms: C_19  and  C_20
REMARK    5  A    between atoms: C_20  and  O_21
REMARK                            x       y       z     vdW  Elec       q    Type
REMARK                         _______ _______ _______ _____ _____    ______ ____
ROOT
ATOM      1  O   UNL     1      34.944 -25.789 -16.135  0.00  0.00    -0.276 OA
ATOM      2  O   UNL     1      35.491 -22.694 -12.489  0.00  0.00    -0.276 OA
ATOM      3  O   UNL     1      37.874 -26.602 -12.708  0.00  0.00    -0.252 OA
ATOM      4  N   UNL     1      36.397 -26.161 -14.408  0.00  0.00    -0.240 N 
ATOM      5  N   UNL     1      36.661 -24.655 -12.630  0.00  0.00    -0.240 N 
ATOM      6  C   UNL     1      35.050 -24.090 -14.417  0.00  0.00    +0.119 C 
ATOM      7  C   UNL     1      35.444 -25.411 -15.074  0.00  0.00    +0.223 C 
ATOM      8  C   UNL     1      35.740 -23.736 -13.100  0.00  0.00    +0.223 C 
ATOM      9  C   UNL     1      37.034 -25.856 -13.214  0.00  0.00    +0.312 C 
ATOM     10  H   UNL     1      36.654 -27.011 -14.831  0.00  0.00    +0.159 HD
ATOM     11  H   UNL     1      37.106 -24.429 -11.781  0.00  0.00    +0.159 HD
ENDROOT
BRANCH   6  12
ATOM     12  N   UNL     1      35.447 -23.046 -15.362  0.00  0.00    +0.403 N 
ATOM     13  C   UNL     1      36.640 -22.024 -17.836  0.00  0.00    -0.002 C 
ATOM     14  C   UNL     1      35.125 -22.114 -17.631  0.00  0.00    -0.023 C 
ATOM     15  C   UNL     1      37.341 -21.913 -16.479  0.00  0.00    -0.023 C 
ATOM     16  C   UNL     1      34.762 -23.230 -16.648  0.00  0.00    -0.075 C 
ATOM     17  C   UNL     1      36.905 -23.036 -15.534  0.00  0.00    -0.075 C 
ATOM     18  H   UNL     1      35.168 -22.139 -14.984  0.00  0.00    -0.078 HD
BRANCH  13  19
ATOM     19  C   UNL     1      37.003 -20.848 -18.738  0.00  0.00    +0.032 C 
BRANCH  19  20
ATOM     20  C   UNL     1      36.168 -20.838 -20.007  0.00  0.00    +0.137 C 
BRANCH  20  21
ATOM     21  O   UNL     1      35.910 -19.489 -20.369  0.00  0.00    -0.382 OA
ATOM     22  H   UNL     1      36.426 -18.897 -19.800  0.00  0.00    +0.210 HD
ENDBRANCH  20  21
ENDBRANCH  19  20
ENDBRANCH  13  19
ENDBRANCH   6  12
BRANCH   6  23
ATOM     23  C   UNL     1      33.564 -24.075 -14.206  0.00  0.00    -0.024 C 
ATOM     24  C   UNL     1      32.941 -25.172 -13.619  0.00  0.00    -0.005 C 
ATOM     25  C   UNL     1      32.824 -22.966 -14.600  0.00  0.00    -0.005 C 
ATOM     26  C   UNL     1      31.560 -25.158 -13.423  0.00  0.00    -0.000 C 
ATOM     27  C   UNL     1      31.443 -22.952 -14.403  0.00  0.00    -0.000 C 
ATOM     28  C   UNL     1      30.811 -24.049 -13.816  0.00  0.00    -0.000 C 
ENDBRANCH   6  23
TORSDOF 5
ENDMDL
MODEL 3
REMARK VINA RESULT:      -7.6      2.631      5.188
REMARK  Name = 446505
REMARK  5 active torsions:
REMARK  status: ('A' for Active; 'I' for Inactive)
REMARK    1  A    between atoms: C_6  and  N_12
REMARK    2  A    between atoms: C_6  and  C_23
REMARK    3  A    between atoms: C_13  and  C_19
REMARK    4  A    between atoms: C_19  and  C_20
REMARK    5  A    between atoms: C_20  and  O_21
REMARK                            x       y       z     vdW  Elec       q    Type
REMARK                         _______ _______ _______ _____ _____    ______ ____
ROOT
ATOM      1  O   UNL     1      36.794 -22.102 -13.803  0.00  0.00    -0.276 OA
ATOM      2  O   UNL     1      35.722 -26.300 -15.902  0.00  0.00    -0.276 OA
ATOM      3  O   UNL     1      32.912 -24.346 -12.855  0.00  0.00    -0.252 OA
ATOM      4  N   UNL     1      34.866 -23.250 -13.355  0.00  0.00    -0.240 N 
ATOM      5  N   UNL     1      34.345 -25.296 -14.375  0.00  0.00    -0.240 N 
ATOM      6  C   UNL     1      36.470 -24.190 -14.982  0.00  0.00    +0.119 C 
ATOM      7  C   UNL     1      36.077 -23.084 -14.004  0.00  0.00    +0.223 C 
ATOM      8  C   UNL     1      35.496 -25.357 -15.140  0.00  0.00    +0.223 C 
ATOM      9  C   UNL     1      33.970 -24.301 -13.485  0.00  0.00    +0.312 C 
ATOM     10  H   UNL     1      34.610 -22.538 -12.726  0.00  0.00    +0.159 HD
ATOM     11  H   UNL     1      33.717 -26.048 -14.474  0.00  0.00    +0.159 HD
ENDROOT
BRANCH   6  12
ATOM     12  N   UNL     1      36.532 -23.549 -16.296  0.00  0.00    +0.403 N 
ATOM     13  C   UNL     1      36.182 -21.337 -18.186  0.00  0.00    -0.002 C 
ATOM     14  C   UNL     1      37.555 -21.743 -17.642  0.00  0.00    -0.023 C 
ATOM     15  C   UNL     1      35.230 -22.536 -18.139  0.00  0.00    -0.023 C 
ATOM     16  C   UNL     1      37.437 -22.392 -16.261  0.00  0.00    -0.075 C 
ATOM     17  C   UNL     1      35.188 -23.159 -16.741  0.00  0.00    -0.075 C 
ATOM     18  H   UNL     1      36.905 -24.220 -16.969  0.00  0.00    -0.078 HD
BRANCH  13  19
ATOM     19  C   UNL     1      36.296 -20.781 -19.603  0.00  0.00    +0.032 C 
BRANCH  19  20
ATOM     20  C   UNL     1      34.930 -20.515 -20.210  0.00  0.00    +0.137 C 
BRANCH  20  21
ATOM     21  O   UNL     1      34.872 -19.155 -20.617  0.00  0.00    -0.382 OA
ATOM     22  H   UNL     1      35.255 -19.067 -21.504  0.00  0.00    +0.210 HD
ENDBRANCH  20  21
ENDBRANCH  19  20
ENDBRANCH  13  19
ENDBRANCH   6  12
BRANCH   6  23
ATOM     23  C   UNL     1      37.815 -24.729 -14.592  0.00  0.00    -0.024 C 
ATOM     24  C   UNL     1      37.998 -25.272 -13.325  0.00  0.00    -0.005 C 
ATOM     25  C   UNL     1      38.867 -24.679 -15.501  0.00  0.00    -0.005 C 
ATOM     26  C   UNL     1      39.249 -25.773 -12.962  0.00  0.00    -0.000 C 
ATOM     27  C   UNL     1      40.117 -25.180 -15.138  0.00  0.00    -0.000 C 
ATOM     28  C   UNL     1      40.308 -25.726 -13.869  0.00  0.00    -0.000 C 
ENDBRANCH   6  23
TORSDOF 5
ENDMDL
MODEL 4
REMARK VINA RESULT:      -7.3     16.111     18.512
REMARK  Name = 446505
REMARK  5 active torsions:
REMARK  status: ('A' for Active; 'I' for Inactive)
REMARK    1  A    between atoms: C_6  and  N_12
REMARK    2  A    between atoms: C_6  and  C_23
REMARK    3  A    between atoms: C_13  and  C_19
REMARK    4  A    between atoms: C_19  and  C_20
REMARK    5  A    between atoms: C_20  and  O_21
REMARK                            x       y       z     vdW  Elec       q    Type
REMARK                         _______ _______ _______ _____ _____    ______ ____
ROOT
ATOM      1  O   UNL     1      30.512  -7.558 -23.376  0.00  0.00    -0.276 OA
ATOM      2  O   UNL     1      35.286  -7.759 -22.787  0.00  0.00    -0.276 OA
ATOM      3  O   UNL     1      32.452  -7.049 -19.256  0.00  0.00    -0.252 OA
ATOM      4  N   UNL     1      31.516  -7.310 -21.335  0.00  0.00    -0.240 N 
ATOM      5  N   UNL     1      33.841  -7.404 -21.048  0.00  0.00    -0.240 N 
ATOM      6  C   UNL     1      32.926  -7.700 -23.325  0.00  0.00    +0.119 C 
ATOM      7  C   UNL     1      31.544  -7.520 -22.703  0.00  0.00    +0.223 C 
ATOM      8  C   UNL     1      34.128  -7.628 -22.383  0.00  0.00    +0.223 C 
ATOM      9  C   UNL     1      32.594  -7.241 -20.465  0.00  0.00    +0.312 C 
ATOM     10  H   UNL     1      30.626  -7.195 -20.932  0.00  0.00    +0.159 HD
ATOM     11  H   UNL     1      34.614  -7.355 -20.440  0.00  0.00    +0.159 HD
ENDROOT
BRANCH   6  12
ATOM     12  N   UNL     1      32.937  -9.057 -23.872  0.00  0.00    +0.403 N 
ATOM     13  C   UNL     1      33.765 -11.867 -23.977  0.00  0.00    -0.002 C 
ATOM     14  C   UNL     1      32.392 -11.434 -23.452  0.00  0.00    -0.023 C 
ATOM     15  C   UNL     1      34.303 -10.815 -24.952  0.00  0.00    -0.023 C 
ATOM     16  C   UNL     1      32.439 -10.017 -22.877  0.00  0.00    -0.075 C 
ATOM     17  C   UNL     1      34.286  -9.418 -24.327  0.00  0.00    -0.075 C 
ATOM     18  H   UNL     1      32.314  -9.089 -24.680  0.00  0.00    -0.078 HD
BRANCH  13  19
ATOM     19  C   UNL     1      33.691 -13.240 -24.638  0.00  0.00    +0.032 C 
BRANCH  19  20
ATOM     20  C   UNL     1      33.679 -14.356 -23.609  0.00  0.00    +0.137 C 
BRANCH  20  21
ATOM     21  O   UNL     1      34.786 -14.180 -22.736  0.00  0.00    -0.382 OA
ATOM     22  H   UNL     1      35.483 -13.684 -23.194  0.00  0.00    +0.210 HD
ENDBRANCH  20  21
ENDBRANCH  19  20
ENDBRANCH  13  19
ENDBRANCH   6  12
BRANCH   6  23
ATOM     23  C   UNL     1      33.104  -6.688 -24.418  0.00  0.00    -0.024 C 
ATOM     24  C   UNL     1      34.307  -6.630 -25.114  0.00  0.00    -0.005 C 
ATOM     25  C   UNL     1      32.065  -5.816 -24.725  0.00  0.00    -0.005 C 
ATOM     26  C   UNL     1      34.473  -5.689 -26.130  0.00  0.00    -0.000 C 
ATOM     27  C   UNL     1      32.231  -4.875 -25.741  0.00  0.00    -0.000 C 
ATOM     28  C   UNL     1      33.435  -4.811 -26.443  0.00  0.00    -0.000 C 
ENDBRANCH   6  23
TORSDOF 5
ENDMDL
MODEL 5
REMARK VINA RESULT:      -7.1      3.021      4.429
REMARK  Name = 446505
REMARK  5 active torsions:
REMARK  status: ('A' for Active; 'I' for Inactive)
REMARK    1  A    between atoms: C_6  and  N_12
REMARK    2  A    between atoms: C_6  and  C_23
REMARK    3  A    between atoms: C_13  and  C_19
REMARK    4  A    between atoms: C_19  and  C_20
REMARK    5  A    between atoms: C_20  and  O_21
REMARK                            x       y       z     vdW  Elec       q    Type
REMARK                         _______ _______ _______ _____ _____    ______ ____
ROOT
ATOM      1  O   UNL     1      38.164 -22.159 -12.453  0.00  0.00    -0.276 OA
ATOM      2  O   UNL     1      35.725 -26.005 -14.012  0.00  0.00    -0.276 OA
ATOM      3  O   UNL     1      35.241 -24.416  -9.741  0.00  0.00    -0.252 OA
ATOM      4  N   UNL     1      36.696 -23.310 -11.128  0.00  0.00    -0.240 N 
ATOM      5  N   UNL     1      35.510 -25.185 -11.886  0.00  0.00    -0.240 N 
ATOM      6  C   UNL     1      37.052 -24.058 -13.456  0.00  0.00    +0.119 C 
ATOM      7  C   UNL     1      37.364 -23.087 -12.320  0.00  0.00    +0.223 C 
ATOM      8  C   UNL     1      36.044 -25.169 -13.162  0.00  0.00    +0.223 C 
ATOM      9  C   UNL     1      35.780 -24.311 -10.844  0.00  0.00    +0.312 C 
ATOM     10  H   UNL     1      36.895 -22.684 -10.396  0.00  0.00    +0.159 HD
ATOM     11  H   UNL     1      34.863 -25.902 -11.695  0.00  0.00    +0.159 HD
ENDROOT
BRANCH   6  12
ATOM     12  N   UNL     1      36.445 -23.247 -14.512  0.00  0.00    +0.403 N 
ATOM     13  C   UNL     1      35.781 -22.572 -17.285  0.00  0.00    -0.002 C 
ATOM     14  C   UNL     1      34.757 -23.176 -16.319  0.00  0.00    -0.023 C 
ATOM     15  C   UNL     1      36.864 -21.830 -16.496  0.00  0.00    -0.023 C 
ATOM     16  C   UNL     1      35.440 -24.027 -15.246  0.00  0.00    -0.075 C 
ATOM     17  C   UNL     1      37.478 -22.726 -15.417  0.00  0.00    -0.075 C 
ATOM     18  H   UNL     1      35.973 -22.450 -14.081  0.00  0.00    -0.078 HD
BRANCH  13  19
ATOM     19  C   UNL     1      35.105 -21.645 -18.292  0.00  0.00    +0.032 C 
BRANCH  19  20
ATOM     20  C   UNL     1      34.235 -22.419 -19.267  0.00  0.00    +0.137 C 
BRANCH  20  21
ATOM     21  O   UNL     1      32.885 -22.016 -19.088  0.00  0.00    -0.382 OA
ATOM     22  H   UNL     1      32.393 -22.159 -19.911  0.00  0.00    +0.210 HD
ENDBRANCH  20  21
ENDBRANCH  19  20
ENDBRANCH  13  19
ENDBRANCH   6  12
BRANCH   6  23
ATOM     23  C   UNL     1      38.332 -24.677 -13.934  0.00  0.00    -0.024 C 
ATOM     24  C   UNL     1      39.084 -25.462 -13.065  0.00  0.00    -0.005 C 
ATOM     25  C   UNL     1      38.756 -24.460 -15.240  0.00  0.00    -0.005 C 
ATOM     26  C   UNL     1      40.274 -26.037 -13.509  0.00  0.00    -0.000 C 
ATOM     27  C   UNL     1      39.947 -25.036 -15.684  0.00  0.00    -0.000 C 
ATOM     28  C   UNL     1      40.706 -25.824 -14.819  0.00  0.00    -0.000 C 
ENDBRANCH   6  23
TORSDOF 5
ENDMDL
MODEL 6
REMARK VINA RESULT:      -7.0     16.571     18.797
REMARK  Name = 446505
REMARK  5 active torsions:
REMARK  status: ('A' for Active; 'I' for Inactive)
REMARK    1  A    between atoms: C_6  and  N_12
REMARK    2  A    between atoms: C_6  and  C_23
REMARK    3  A    between atoms: C_13  and  C_19
REMARK    4  A    between atoms: C_19  and  C_20
REMARK    5  A    between atoms: C_20  and  O_21
REMARK                            x       y       z     vdW  Elec       q    Type
REMARK                         _______ _______ _______ _____ _____    ______ ____
ROOT
ATOM      1  O   UNL     1      34.233  -7.409 -21.456  0.00  0.00    -0.276 OA
ATOM      2  O   UNL     1      30.601 -10.256 -22.827  0.00  0.00    -0.276 OA
ATOM      3  O   UNL     1      31.799  -9.835 -18.424  0.00  0.00    -0.252 OA
ATOM      4  N   UNL     1      32.995  -8.633 -19.971  0.00  0.00    -0.240 N 
ATOM      5  N   UNL     1      31.228 -10.023 -20.639  0.00  0.00    -0.240 N 
ATOM      6  C   UNL     1      32.455  -8.766 -22.378  0.00  0.00    +0.119 C 
ATOM      7  C   UNL     1      33.312  -8.201 -21.247  0.00  0.00    +0.223 C 
ATOM      8  C   UNL     1      31.346  -9.743 -21.989  0.00  0.00    +0.223 C 
ATOM      9  C   UNL     1      31.995  -9.519 -19.599  0.00  0.00    +0.312 C 
ATOM     10  H   UNL     1      33.545  -8.270 -19.241  0.00  0.00    +0.159 HD
ATOM     11  H   UNL     1      30.516 -10.654 -20.387  0.00  0.00    +0.159 HD
ENDROOT
BRANCH   6  12
ATOM     12  N   UNL     1      31.773  -7.613 -22.967  0.00  0.00    +0.403 N 
ATOM     13  C   UNL     1      31.465  -4.779 -23.652  0.00  0.00    -0.002 C 
ATOM     14  C   UNL     1      31.880  -5.833 -24.683  0.00  0.00    -0.023 C 
ATOM     15  C   UNL     1      30.670  -5.444 -22.523  0.00  0.00    -0.023 C 
ATOM     16  C   UNL     1      32.602  -7.007 -24.018  0.00  0.00    -0.075 C 
ATOM     17  C   UNL     1      31.432  -6.631 -21.930  0.00  0.00    -0.075 C 
ATOM     18  H   UNL     1      30.904  -7.932 -23.397  0.00  0.00    -0.078 HD
BRANCH  13  19
ATOM     19  C   UNL     1      30.659  -3.660 -24.305  0.00  0.00    +0.032 C 
BRANCH  19  20
ATOM     20  C   UNL     1      31.323  -2.308 -24.112  0.00  0.00    +0.137 C 
BRANCH  20  21
ATOM     21  O   UNL     1      31.824  -2.234 -22.785  0.00  0.00    -0.382 OA
ATOM     22  H   UNL     1      32.365  -3.018 -22.600  0.00  0.00    +0.210 HD
ENDBRANCH  20  21
ENDBRANCH  19  20
ENDBRANCH  13  19
ENDBRANCH   6  12
BRANCH   6  23
ATOM     23  C   UNL     1      33.351  -9.423 -23.387  0.00  0.00    -0.024 C 
ATOM     24  C   UNL     1      34.464  -8.741 -23.866  0.00  0.00    -0.005 C 
ATOM     25  C   UNL     1      33.058 -10.707 -23.834  0.00  0.00    -0.005 C 
ATOM     26  C   UNL     1      35.297  -9.352 -24.804  0.00  0.00    -0.000 C 
ATOM     27  C   UNL     1      33.892 -11.318 -24.771  0.00  0.00    -0.000 C 
ATOM     28  C   UNL     1      35.010 -10.640 -25.257  0.00  0.00    -0.000 C 
ENDBRANCH   6  23
TORSDOF 5
ENDMDL
MODEL 7
REMARK VINA RESULT:      -6.8      2.409      4.104
REMARK  Name = 446505
REMARK  5 active torsions:
REMARK  status: ('A' for Active; 'I' for Inactive)
REMARK    1  A    between atoms: C_6  and  N_12
REMARK    2  A    between atoms: C_6  and  C_23
REMARK    3  A    between atoms: C_13  and  C_19
REMARK    4  A    between atoms: C_19  and  C_20
REMARK    5  A    between atoms: C_20  and  O_21
REMARK                            x       y       z     vdW  Elec       q    Type
REMARK                         _______ _______ _______ _____ _____    ______ ____
ROOT
ATOM      1  O   UNL     1      36.599 -26.989 -13.898  0.00  0.00    -0.276 OA
ATOM      2  O   UNL     1      37.841 -22.462 -14.967  0.00  0.00    -0.276 OA
ATOM      3  O   UNL     1      40.558 -26.009 -15.987  0.00  0.00    -0.252 OA
ATOM      4  N   UNL     1      38.566 -26.462 -14.941  0.00  0.00    -0.240 N 
ATOM      5  N   UNL     1      39.173 -24.257 -15.459  0.00  0.00    -0.240 N 
ATOM      6  C   UNL     1      37.006 -24.645 -14.336  0.00  0.00    +0.119 C 
ATOM      7  C   UNL     1      37.353 -26.132 -14.363  0.00  0.00    +0.223 C 
ATOM      8  C   UNL     1      38.026 -23.682 -14.942  0.00  0.00    +0.223 C 
ATOM      9  C   UNL     1      39.504 -25.603 -15.495  0.00  0.00    +0.312 C 
ATOM     10  H   UNL     1      38.791 -27.420 -14.961  0.00  0.00    +0.159 HD
ATOM     11  H   UNL     1      39.832 -23.638 -15.848  0.00  0.00    +0.159 HD
ENDROOT
BRANCH   6  12
ATOM     12  N   UNL     1      35.801 -24.507 -15.155  0.00  0.00    +0.403 N 
ATOM     13  C   UNL     1      33.389 -23.146 -16.115  0.00  0.00    -0.002 C 
ATOM     14  C   UNL     1      34.681 -23.208 -16.938  0.00  0.00    -0.023 C 
ATOM     15  C   UNL     1      33.333 -24.332 -15.148  0.00  0.00    -0.023 C 
ATOM     16  C   UNL     1      35.909 -23.336 -16.035  0.00  0.00    -0.075 C 
ATOM     17  C   UNL     1      34.607 -24.423 -14.304  0.00  0.00    -0.075 C 
ATOM     18  H   UNL     1      35.710 -25.336 -15.744  0.00  0.00    -0.078 HD
BRANCH  13  19
ATOM     19  C   UNL     1      32.162 -23.119 -17.022  0.00  0.00    +0.032 C 
BRANCH  19  20
ATOM     20  C   UNL     1      30.878 -22.994 -16.221  0.00  0.00    +0.137 C 
BRANCH  20  21
ATOM     21  O   UNL     1      29.882 -22.411 -17.050  0.00  0.00    -0.382 OA
ATOM     22  H   UNL     1      29.039 -22.383 -16.571  0.00  0.00    +0.210 HD
ENDBRANCH  20  21
ENDBRANCH  19  20
ENDBRANCH  13  19
ENDBRANCH   6  12
BRANCH   6  23
ATOM     23  C   UNL     1      36.732 -24.235 -12.919  0.00  0.00    -0.024 C 
ATOM     24  C   UNL     1      35.859 -24.988 -12.141  0.00  0.00    -0.005 C 
ATOM     25  C   UNL     1      37.352 -23.105 -12.397  0.00  0.00    -0.005 C 
ATOM     26  C   UNL     1      35.604 -24.606 -10.824  0.00  0.00    -0.000 C 
ATOM     27  C   UNL     1      37.097 -22.724 -11.079  0.00  0.00    -0.000 C 
ATOM     28  C   UNL     1      36.223 -23.474 -10.293  0.00  0.00    -0.000 C 
ENDBRANCH   6  23
TORSDOF 5
ENDMDL
MODEL 8
REMARK VINA RESULT:      -6.7      2.361      3.461
REMARK  Name = 446505
REMARK  5 active torsions:
REMARK  status: ('A' for Active; 'I' for Inactive)
REMARK    1  A    between atoms: C_6  and  N_12
REMARK    2  A    between atoms: C_6  and  C_23
REMARK    3  A    between atoms: C_13  and  C_19
REMARK    4  A    between atoms: C_19  and  C_20
REMARK    5  A    between atoms: C_20  and  O_21
REMARK                            x       y       z     vdW  Elec       q    Type
REMARK                         _______ _______ _______ _____ _____    ______ ____
ROOT
ATOM      1  O   UNL     1      37.415 -22.107 -13.411  0.00  0.00    -0.276 OA
ATOM      2  O   UNL     1      36.456 -26.815 -13.109  0.00  0.00    -0.276 OA
ATOM      3  O   UNL     1      36.050 -24.038  -9.486  0.00  0.00    -0.252 OA
ATOM      4  N   UNL     1      36.731 -23.105 -11.470  0.00  0.00    -0.240 N 
ATOM      5  N   UNL     1      36.266 -25.399 -11.321  0.00  0.00    -0.240 N 
ATOM      6  C   UNL     1      36.989 -24.486 -13.502  0.00  0.00    +0.119 C 
ATOM      7  C   UNL     1      37.069 -23.126 -12.812  0.00  0.00    +0.223 C 
ATOM      8  C   UNL     1      36.550 -25.675 -12.647  0.00  0.00    +0.223 C 
ATOM      9  C   UNL     1      36.331 -24.172 -10.679  0.00  0.00    +0.312 C 
ATOM     10  H   UNL     1      36.780 -22.229 -11.024  0.00  0.00    +0.159 HD
ATOM     11  H   UNL     1      35.985 -26.164 -10.769  0.00  0.00    +0.159 HD
ENDROOT
BRANCH   6  12
ATOM     12  N   UNL     1      35.962 -24.344 -14.534  0.00  0.00    +0.403 N 
ATOM     13  C   UNL     1      33.735 -23.006 -15.892  0.00  0.00    -0.002 C 
ATOM     14  C   UNL     1      35.163 -22.997 -16.449  0.00  0.00    -0.023 C 
ATOM     15  C   UNL     1      33.535 -24.235 -15.001  0.00  0.00    -0.023 C 
ATOM     16  C   UNL     1      36.197 -23.132 -15.330  0.00  0.00    -0.075 C 
ATOM     17  C   UNL     1      34.624 -24.330 -13.929  0.00  0.00    -0.075 C 
ATOM     18  H   UNL     1      36.015 -25.148 -15.161  0.00  0.00    -0.078 HD
BRANCH  13  19
ATOM     19  C   UNL     1      32.707 -22.971 -17.018  0.00  0.00    +0.032 C 
BRANCH  19  20
ATOM     20  C   UNL     1      31.301 -23.214 -16.499  0.00  0.00    +0.137 C 
BRANCH  20  21
ATOM     21  O   UNL     1      30.411 -22.333 -17.170  0.00  0.00    -0.382 OA
ATOM     22  H   UNL     1      30.509 -21.438 -16.809  0.00  0.00    +0.210 HD
ENDBRANCH  20  21
ENDBRANCH  19  20
ENDBRANCH  13  19
ENDBRANCH   6  12
BRANCH   6  23
ATOM     23  C   UNL     1      38.320 -24.798 -14.120  0.00  0.00    -0.024 C 
ATOM     24  C   UNL     1      38.585 -24.394 -15.425  0.00  0.00    -0.005 C 
ATOM     25  C   UNL     1      39.277 -25.488 -13.383  0.00  0.00    -0.005 C 
ATOM     26  C   UNL     1      39.822 -24.684 -16.000  0.00  0.00    -0.000 C 
ATOM     27  C   UNL     1      40.515 -25.777 -13.959  0.00  0.00    -0.000 C 
ATOM     28  C   UNL     1      40.787 -25.376 -15.267  0.00  0.00    -0.000 C 
ENDBRANCH   6  23
TORSDOF 5
ENDMDL
MODEL 9
REMARK VINA RESULT:      -6.7     17.164     19.603
REMARK  Name = 446505
REMARK  5 active torsions:
REMARK  status: ('A' for Active; 'I' for Inactive)
REMARK    1  A    between atoms: C_6  and  N_12
REMARK    2  A    between atoms: C_6  and  C_23
REMARK    3  A    between atoms: C_13  and  C_19
REMARK    4  A    between atoms: C_19  and  C_20
REMARK    5  A    between atoms: C_20  and  O_21
REMARK                            x       y       z     vdW  Elec       q    Type
REMARK                         _______ _______ _______ _____ _____    ______ ____
ROOT
ATOM      1  O   UNL     1      35.297  -7.604 -22.962  0.00  0.00    -0.276 OA
ATOM      2  O   UNL     1      30.681  -8.952 -23.181  0.00  0.00    -0.276 OA
ATOM      3  O   UNL     1      32.523  -7.293 -19.327  0.00  0.00    -0.252 OA
ATOM      4  N   UNL     1      33.883  -7.462 -21.169  0.00  0.00    -0.240 N 
ATOM      5  N   UNL     1      31.635  -8.122 -21.274  0.00  0.00    -0.240 N 
ATOM      6  C   UNL     1      33.019  -8.338 -23.311  0.00  0.00    +0.119 C 
ATOM      7  C   UNL     1      34.173  -7.773 -22.486  0.00  0.00    +0.223 C 
ATOM      8  C   UNL     1      31.674  -8.503 -22.603  0.00  0.00    +0.223 C 
ATOM      9  C   UNL     1      32.671  -7.605 -20.510  0.00  0.00    +0.312 C 
ATOM     10  H   UNL     1      34.625  -7.096 -20.636  0.00  0.00    +0.159 HD
ATOM     11  H   UNL     1      30.770  -8.229 -20.816  0.00  0.00    +0.159 HD
ENDROOT
BRANCH   6  12
ATOM     12  N   UNL     1      32.784  -7.364 -24.377  0.00  0.00    +0.403 N 
ATOM     13  C   UNL     1      32.737  -4.680 -25.554  0.00  0.00    -0.002 C 
ATOM     14  C   UNL     1      33.820  -5.708 -25.896  0.00  0.00    -0.023 C 
ATOM     15  C   UNL     1      31.464  -5.399 -25.098  0.00  0.00    -0.023 C 
ATOM     16  C   UNL     1      34.037  -6.691 -24.744  0.00  0.00    -0.075 C 
ATOM     17  C   UNL     1      31.760  -6.393 -23.971  0.00  0.00    -0.075 C 
ATOM     18  H   UNL     1      32.440  -7.858 -25.202  0.00  0.00    -0.078 HD
BRANCH  13  19
ATOM     19  C   UNL     1      32.454  -3.764 -26.741  0.00  0.00    +0.032 C 
BRANCH  19  20
ATOM     20  C   UNL     1      32.949  -4.369 -28.043  0.00  0.00    +0.137 C 
BRANCH  20  21
ATOM     21  O   UNL     1      32.075  -3.971 -29.090  0.00  0.00    -0.382 OA
ATOM     22  H   UNL     1      31.208  -3.743 -28.718  0.00  0.00    +0.210 HD
ENDBRANCH  20  21
ENDBRANCH  19  20
ENDBRANCH  13  19
ENDBRANCH   6  12
BRANCH   6  23
ATOM     23  C   UNL     1      33.432  -9.661 -23.884  0.00  0.00    -0.024 C 
ATOM     24  C   UNL     1      34.286  -9.699 -24.981  0.00  0.00    -0.005 C 
ATOM     25  C   UNL     1      32.956 -10.837 -23.314  0.00  0.00    -0.005 C 
ATOM     26  C   UNL     1      34.670 -10.929 -25.515  0.00  0.00    -0.000 C 
ATOM     27  C   UNL     1      33.342 -12.068 -23.848  0.00  0.00    -0.000 C 
ATOM     28  C   UNL     1      34.198 -12.113 -24.948  0.00  0.00    -0.000 C 
ENDBRANCH   6  23
TORSDOF 5
ENDMDL
