MODEL 1
REMARK VINA RESULT:     -12.5      0.000      0.000
REMARK  Name = 216210
REMARK  9 active torsions:
REMARK  status: ('A' for Active; 'I' for Inactive)
REMARK    1  A    between atoms: C_4  and  C_26
REMARK    2  A    between atoms: C_6  and  C_13
REMARK    3  A    between atoms: N_12  and  C_20
REMARK    4  A    between atoms: C_20  and  C_21
REMARK    5  A    between atoms: C_21  and  C_23
REMARK    6  A    between atoms: C_23  and  O_24
REMARK    7  A    between atoms: C_26  and  N_27
REMARK    8  A    between atoms: N_27  and  C_29
REMARK    9  A    between atoms: C_34  and  C_37
REMARK                            x       y       z     vdW  Elec       q    Type
REMARK                         _______ _______ _______ _____ _____    ______ ____
ROOT
ATOM      1  N   UNL     1      34.523 -16.531 -24.098  0.00  0.00    -0.261 N 
ATOM      2  N   UNL     1      34.792 -16.013 -21.954  0.00  0.00    -0.388 NA
ATOM      3  C   UNL     1      33.848 -15.366 -23.814  0.00  0.00    +0.079 C 
ATOM      4  C   UNL     1      35.075 -16.891 -22.962  0.00  0.00    +0.184 C 
ATOM      5  C   UNL     1      34.002 -15.020 -22.474  0.00  0.00    +0.146 C 
ATOM      6  C   UNL     1      32.661 -13.073 -22.753  0.00  0.00    +0.039 C 
ATOM      7  C   UNL     1      33.425 -13.883 -21.905  0.00  0.00    +0.034 C 
ATOM      8  C   UNL     1      33.076 -14.542 -24.650  0.00  0.00    -0.004 C 
ATOM      9  C   UNL     1      32.489 -13.395 -24.101  0.00  0.00    +0.058 C 
ATOM     10  C   UNL     1      34.591 -17.191 -25.380  0.00  0.00    +0.120 C 
ENDROOT
BRANCH   6  13
ATOM     11  O   UNL     1      31.171 -12.056 -21.348  0.00  0.00    -0.270 OA
ATOM     12  N   UNL     1      32.446 -10.607 -22.709  0.00  0.00    -0.240 N 
ATOM     13  C   UNL     1      32.035 -11.874 -22.217  0.00  0.00    +0.250 C 
ATOM     14  N   UNL     1      31.941  -9.606 -20.577  0.00  0.00    -0.229 NA
ATOM     15  C   UNL     1      32.389  -9.445 -21.841  0.00  0.00    +0.138 C 
ATOM     16  C   UNL     1      32.802  -8.233 -22.370  0.00  0.00    +0.035 C 
ATOM     17  C   UNL     1      32.751  -7.113 -21.547  0.00  0.00    +0.004 C 
ATOM     18  C   UNL     1      31.904  -8.496 -19.806  0.00  0.00    +0.100 C 
ATOM     19  C   UNL     1      32.295  -7.239 -20.240  0.00  0.00    +0.021 C 
BRANCH  12  20
ATOM     20  C   UNL     1      32.930 -10.463 -24.091  0.00  0.00    +0.112 C 
BRANCH  20  21
ATOM     21  C   UNL     1      34.445 -10.321 -24.155  0.00  0.00    +0.131 C 
BRANCH  21  23
ATOM     22  O   UNL     1      36.068 -10.243 -25.972  0.00  0.00    -0.250 OA
ATOM     23  C   UNL     1      35.014 -10.663 -25.516  0.00  0.00    +0.316 C 
BRANCH  23  24
ATOM     24  O   UNL     1      34.203 -11.519 -26.190  0.00  0.00    -0.480 OA
ATOM     25  H   UNL     1      34.525 -12.358 -26.457  0.00  0.00    +0.295 HD
ENDBRANCH  23  24
ENDBRANCH  21  23
ENDBRANCH  20  21
ENDBRANCH  12  20
ENDBRANCH   6  13
BRANCH   4  26
ATOM     26  C   UNL     1      35.905 -18.105 -22.818  0.00  0.00    +0.164 C 
BRANCH  26  27
ATOM     27  N   UNL     1      36.185 -18.505 -21.444  0.00  0.00    -0.326 N 
ATOM     28  H   UNL     1      36.893 -18.029 -20.953  0.00  0.00    +0.147 HD
BRANCH  27  29
ATOM     29  C   UNL     1      35.507 -19.517 -20.800  0.00  0.00    +0.045 C 
ATOM     30  C   UNL     1      36.215 -20.502 -20.110  0.00  0.00    +0.014 C 
ATOM     31  C   UNL     1      34.113 -19.559 -20.840  0.00  0.00    +0.014 C 
ATOM     32  C   UNL     1      35.530 -21.528 -19.461  0.00  0.00    +0.004 C 
ATOM     33  C   UNL     1      33.428 -20.585 -20.190  0.00  0.00    +0.004 C 
ATOM     34  C   UNL     1      34.136 -21.570 -19.500  0.00  0.00    +0.031 C 
BRANCH  34  37
ATOM     35  N   UNL     1      32.330 -22.372 -17.997  0.00  0.00    -0.343 N 
ATOM     36  N   UNL     1      33.806 -23.892 -18.981  0.00  0.00    -0.285 NA
ATOM     37  C   UNL     1      33.420 -22.640 -18.822  0.00  0.00    +0.117 C 
ATOM     38  H   UNL     1      31.859 -23.112 -17.547  0.00  0.00    +0.144 HD
ATOM     39  H   UNL     1      32.028 -21.444 -17.863  0.00  0.00    +0.144 HD
ATOM     40  H   UNL     1      33.323 -24.618 -18.523  0.00  0.00    +0.188 HD
ENDBRANCH  34  37
ENDBRANCH  27  29
ENDBRANCH  26  27
ENDBRANCH   4  26
TORSDOF 9
ENDMDL
MODEL 2
REMARK VINA RESULT:     -11.7      1.778      3.257
REMARK  Name = 216210
REMARK  9 active torsions:
REMARK  status: ('A' for Active; 'I' for Inactive)
REMARK    1  A    between atoms: C_4  and  C_26
REMARK    2  A    between atoms: C_6  and  C_13
REMARK    3  A    between atoms: N_12  and  C_20
REMARK    4  A    between atoms: C_20  and  C_21
REMARK    5  A    between atoms: C_21  and  C_23
REMARK    6  A    between atoms: C_23  and  O_24
REMARK    7  A    between atoms: C_26  and  N_27
REMARK    8  A    between atoms: N_27  and  C_29
REMARK    9  A    between atoms: C_34  and  C_37
REMARK                            x       y       z     vdW  Elec       q    Type
REMARK                         _______ _______ _______ _____ _____    ______ ____
ROOT
ATOM      1  N   UNL     1      33.748 -15.402 -24.848  0.00  0.00    -0.261 N 
ATOM      2  N   UNL     1      34.347 -14.729 -22.816  0.00  0.00    -0.388 NA
ATOM      3  C   UNL     1      33.703 -14.028 -24.780  0.00  0.00    +0.079 C 
ATOM      4  C   UNL     1      34.137 -15.789 -23.654  0.00  0.00    +0.184 C 
ATOM      5  C   UNL     1      34.074 -13.582 -23.515  0.00  0.00    +0.146 C 
ATOM      6  C   UNL     1      33.766 -11.309 -24.152  0.00  0.00    +0.039 C 
ATOM      7  C   UNL     1      34.119 -12.233 -23.161  0.00  0.00    +0.034 C 
ATOM      8  C   UNL     1      33.350 -13.087 -25.763  0.00  0.00    -0.004 C 
ATOM      9  C   UNL     1      33.389 -11.727 -25.430  0.00  0.00    +0.058 C 
ATOM     10  C   UNL     1      33.432 -16.216 -25.997  0.00  0.00    +0.120 C 
ENDROOT
BRANCH   6  13
ATOM     11  O   UNL     1      34.899  -9.335 -23.932  0.00  0.00    -0.270 OA
ATOM     12  N   UNL     1      32.585  -9.242 -23.471  0.00  0.00    -0.240 N 
ATOM     13  C   UNL     1      33.794  -9.888 -23.842  0.00  0.00    +0.250 C 
ATOM     14  N   UNL     1      33.383  -7.180 -24.426  0.00  0.00    -0.229 NA
ATOM     15  C   UNL     1      32.392  -7.839 -23.784  0.00  0.00    +0.138 C 
ATOM     16  C   UNL     1      31.195  -7.257 -23.400  0.00  0.00    +0.035 C 
ATOM     17  C   UNL     1      31.001  -5.912 -23.694  0.00  0.00    +0.004 C 
ATOM     18  C   UNL     1      33.159  -5.874 -24.695  0.00  0.00    +0.100 C 
ATOM     19  C   UNL     1      31.997  -5.200 -24.354  0.00  0.00    +0.021 C 
BRANCH  12  20
ATOM     20  C   UNL     1      31.525  -9.986 -22.772  0.00  0.00    +0.112 C 
BRANCH  20  21
ATOM     21  C   UNL     1      31.748 -10.021 -21.265  0.00  0.00    +0.131 C 
BRANCH  21  23
ATOM     22  O   UNL     1      31.505 -11.645 -19.464  0.00  0.00    -0.250 OA
ATOM     23  C   UNL     1      31.465 -11.378 -20.657  0.00  0.00    +0.316 C 
BRANCH  23  24
ATOM     24  O   UNL     1      31.145 -12.291 -21.611  0.00  0.00    -0.480 OA
ATOM     25  H   UNL     1      31.770 -12.517 -22.272  0.00  0.00    +0.295 HD
ENDBRANCH  23  24
ENDBRANCH  21  23
ENDBRANCH  20  21
ENDBRANCH  12  20
ENDBRANCH   6  13
BRANCH   4  26
ATOM     26  C   UNL     1      34.322 -17.208 -23.286  0.00  0.00    +0.164 C 
BRANCH  26  27
ATOM     27  N   UNL     1      35.036 -17.436 -22.036  0.00  0.00    -0.326 N 
ATOM     28  H   UNL     1      35.612 -16.717 -21.687  0.00  0.00    +0.147 HD
BRANCH  27  29
ATOM     29  C   UNL     1      34.946 -18.609 -21.318  0.00  0.00    +0.045 C 
ATOM     30  C   UNL     1      33.695 -19.142 -21.006  0.00  0.00    +0.014 C 
ATOM     31  C   UNL     1      36.106 -19.262 -20.899  0.00  0.00    +0.014 C 
ATOM     32  C   UNL     1      33.604 -20.327 -20.278  0.00  0.00    +0.004 C 
ATOM     33  C   UNL     1      36.014 -20.447 -20.171  0.00  0.00    +0.004 C 
ATOM     34  C   UNL     1      34.763 -20.980 -19.860  0.00  0.00    +0.031 C 
BRANCH  34  37
ATOM     35  N   UNL     1      33.721 -23.190 -19.415  0.00  0.00    -0.343 N 
ATOM     36  N   UNL     1      35.487 -22.431 -18.087  0.00  0.00    -0.285 NA
ATOM     37  C   UNL     1      34.668 -22.217 -19.100  0.00  0.00    +0.117 C 
ATOM     38  H   UNL     1      33.674 -24.020 -18.888  0.00  0.00    +0.144 HD
ATOM     39  H   UNL     1      33.100 -23.048 -20.165  0.00  0.00    +0.144 HD
ATOM     40  H   UNL     1      35.425 -23.267 -17.571  0.00  0.00    +0.188 HD
ENDBRANCH  34  37
ENDBRANCH  27  29
ENDBRANCH  26  27
ENDBRANCH   4  26
TORSDOF 9
ENDMDL
MODEL 3
REMARK VINA RESULT:     -11.7      1.421      2.015
REMARK  Name = 216210
REMARK  9 active torsions:
REMARK  status: ('A' for Active; 'I' for Inactive)
REMARK    1  A    between atoms: C_4  and  C_26
REMARK    2  A    between atoms: C_6  and  C_13
REMARK    3  A    between atoms: N_12  and  C_20
REMARK    4  A    between atoms: C_20  and  C_21
REMARK    5  A    between atoms: C_21  and  C_23
REMARK    6  A    between atoms: C_23  and  O_24
REMARK    7  A    between atoms: C_26  and  N_27
REMARK    8  A    between atoms: N_27  and  C_29
REMARK    9  A    between atoms: C_34  and  C_37
REMARK                            x       y       z     vdW  Elec       q    Type
REMARK                         _______ _______ _______ _____ _____    ______ ____
ROOT
ATOM      1  N   UNL     1      34.912 -17.431 -23.072  0.00  0.00    -0.261 N 
ATOM      2  N   UNL     1      35.006 -16.239 -21.199  0.00  0.00    -0.388 NA
ATOM      3  C   UNL     1      34.350 -16.191 -23.281  0.00  0.00    +0.079 C 
ATOM      4  C   UNL     1      35.293 -17.425 -21.815  0.00  0.00    +0.184 C 
ATOM      5  C   UNL     1      34.398 -15.425 -22.120  0.00  0.00    +0.146 C 
ATOM      6  C   UNL     1      33.330 -13.594 -23.203  0.00  0.00    +0.039 C 
ATOM      7  C   UNL     1      33.900 -14.124 -22.039  0.00  0.00    +0.034 C 
ATOM      8  C   UNL     1      33.774 -15.644 -24.440  0.00  0.00    -0.004 C 
ATOM      9  C   UNL     1      33.268 -14.339 -24.383  0.00  0.00    +0.058 C 
ATOM     10  C   UNL     1      35.041 -18.488 -24.046  0.00  0.00    +0.120 C 
ENDROOT
BRANCH   6  13
ATOM     11  O   UNL     1      31.714 -12.097 -22.591  0.00  0.00    -0.270 OA
ATOM     12  N   UNL     1      33.524 -11.203 -23.817  0.00  0.00    -0.240 N 
ATOM     13  C   UNL     1      32.794 -12.242 -23.182  0.00  0.00    +0.250 C 
ATOM     14  N   UNL     1      32.650  -9.610 -22.237  0.00  0.00    -0.229 NA
ATOM     15  C   UNL     1      33.436  -9.846 -23.310  0.00  0.00    +0.138 C 
ATOM     16  C   UNL     1      34.168  -8.871 -23.967  0.00  0.00    +0.035 C 
ATOM     17  C   UNL     1      34.089  -7.567 -23.490  0.00  0.00    +0.004 C 
ATOM     18  C   UNL     1      32.598  -8.331 -21.801  0.00  0.00    +0.100 C 
ATOM     19  C   UNL     1      33.291  -7.284 -22.386  0.00  0.00    +0.021 C 
BRANCH  12  20
ATOM     20  C   UNL     1      34.371 -11.492 -24.986  0.00  0.00    +0.112 C 
BRANCH  20  21
ATOM     21  C   UNL     1      33.547 -11.727 -26.245  0.00  0.00    +0.131 C 
BRANCH  21  23
ATOM     22  O   UNL     1      33.965 -13.558 -27.799  0.00  0.00    -0.250 OA
ATOM     23  C   UNL     1      34.304 -12.489 -27.313  0.00  0.00    +0.316 C 
BRANCH  23  24
ATOM     24  O   UNL     1      35.430 -11.827 -27.688  0.00  0.00    -0.480 OA
ATOM     25  H   UNL     1      35.638 -11.734 -28.597  0.00  0.00    +0.295 HD
ENDBRANCH  23  24
ENDBRANCH  21  23
ENDBRANCH  20  21
ENDBRANCH  12  20
ENDBRANCH   6  13
BRANCH   4  26
ATOM     26  C   UNL     1      35.956 -18.575 -21.168  0.00  0.00    +0.164 C 
BRANCH  26  27
ATOM     27  N   UNL     1      35.295 -19.860 -21.360  0.00  0.00    -0.326 N 
ATOM     28  H   UNL     1      35.101 -20.154 -22.280  0.00  0.00    +0.147 HD
BRANCH  27  29
ATOM     29  C   UNL     1      34.927 -20.684 -20.319  0.00  0.00    +0.045 C 
ATOM     30  C   UNL     1      33.578 -20.943 -20.077  0.00  0.00    +0.014 C 
ATOM     31  C   UNL     1      35.905 -21.256 -19.503  0.00  0.00    +0.014 C 
ATOM     32  C   UNL     1      33.207 -21.775 -19.021  0.00  0.00    +0.004 C 
ATOM     33  C   UNL     1      35.533 -22.088 -18.448  0.00  0.00    +0.004 C 
ATOM     34  C   UNL     1      34.183 -22.347 -18.206  0.00  0.00    +0.031 C 
BRANCH  34  37
ATOM     35  N   UNL     1      32.458 -23.386 -16.754  0.00  0.00    -0.343 N 
ATOM     36  N   UNL     1      34.721 -23.854 -16.414  0.00  0.00    -0.285 NA
ATOM     37  C   UNL     1      33.796 -23.215 -17.105  0.00  0.00    +0.117 C 
ATOM     38  H   UNL     1      32.217 -23.978 -16.005  0.00  0.00    +0.144 HD
ATOM     39  H   UNL     1      31.753 -22.916 -17.255  0.00  0.00    +0.144 HD
ATOM     40  H   UNL     1      34.462 -24.441 -15.668  0.00  0.00    +0.188 HD
ENDBRANCH  34  37
ENDBRANCH  27  29
ENDBRANCH  26  27
ENDBRANCH   4  26
TORSDOF 9
ENDMDL
MODEL 4
REMARK VINA RESULT:     -11.6      3.789      6.969
REMARK  Name = 216210
REMARK  9 active torsions:
REMARK  status: ('A' for Active; 'I' for Inactive)
REMARK    1  A    between atoms: C_4  and  C_26
REMARK    2  A    between atoms: C_6  and  C_13
REMARK    3  A    between atoms: N_12  and  C_20
REMARK    4  A    between atoms: C_20  and  C_21
REMARK    5  A    between atoms: C_21  and  C_23
REMARK    6  A    between atoms: C_23  and  O_24
REMARK    7  A    between atoms: C_26  and  N_27
REMARK    8  A    between atoms: N_27  and  C_29
REMARK    9  A    between atoms: C_34  and  C_37
REMARK                            x       y       z     vdW  Elec       q    Type
REMARK                         _______ _______ _______ _____ _____    ______ ____
ROOT
ATOM      1  N   UNL     1      34.917 -21.337 -19.325  0.00  0.00    -0.261 N 
ATOM      2  N   UNL     1      36.838 -20.325 -19.797  0.00  0.00    -0.388 NA
ATOM      3  C   UNL     1      34.731 -20.442 -20.355  0.00  0.00    +0.079 C 
ATOM      4  C   UNL     1      36.190 -21.240 -19.016  0.00  0.00    +0.184 C 
ATOM      5  C   UNL     1      35.922 -19.795 -20.668  0.00  0.00    +0.146 C 
ATOM      6  C   UNL     1      34.861 -18.529 -22.382  0.00  0.00    +0.039 C 
ATOM      7  C   UNL     1      36.029 -18.833 -21.674  0.00  0.00    +0.034 C 
ATOM      8  C   UNL     1      33.567 -20.125 -21.075  0.00  0.00    -0.004 C 
ATOM      9  C   UNL     1      33.651 -19.163 -22.090  0.00  0.00    +0.058 C 
ATOM     10  C   UNL     1      33.911 -22.188 -18.736  0.00  0.00    +0.120 C 
ENDROOT
BRANCH   6  13
ATOM     11  O   UNL     1      35.206 -17.958 -24.570  0.00  0.00    -0.270 OA
ATOM     12  N   UNL     1      34.620 -16.180 -23.129  0.00  0.00    -0.240 N 
ATOM     13  C   UNL     1      34.910 -17.535 -23.443  0.00  0.00    +0.250 C 
ATOM     14  N   UNL     1      33.762 -15.839 -25.354  0.00  0.00    -0.229 NA
ATOM     15  C   UNL     1      34.024 -15.320 -24.134  0.00  0.00    +0.138 C 
ATOM     16  C   UNL     1      33.761 -14.008 -23.776  0.00  0.00    +0.035 C 
ATOM     17  C   UNL     1      33.191 -13.174 -24.733  0.00  0.00    +0.004 C 
ATOM     18  C   UNL     1      33.209 -15.000 -26.258  0.00  0.00    +0.100 C 
ATOM     19  C   UNL     1      32.907 -13.672 -26.000  0.00  0.00    +0.021 C 
BRANCH  12  20
ATOM     20  C   UNL     1      34.917 -15.643 -21.792  0.00  0.00    +0.112 C 
BRANCH  20  21
ATOM     21  C   UNL     1      33.962 -16.181 -20.734  0.00  0.00    +0.131 C 
BRANCH  21  23
ATOM     22  O   UNL     1      32.610 -14.158 -20.586  0.00  0.00    -0.250 OA
ATOM     23  C   UNL     1      32.682 -15.378 -20.630  0.00  0.00    +0.316 C 
BRANCH  23  24
ATOM     24  O   UNL     1      31.591 -16.188 -20.599  0.00  0.00    -0.480 OA
ATOM     25  H   UNL     1      31.433 -16.732 -19.853  0.00  0.00    +0.295 HD
ENDBRANCH  23  24
ENDBRANCH  21  23
ENDBRANCH  20  21
ENDBRANCH  12  20
ENDBRANCH   6  13
BRANCH   4  26
ATOM     26  C   UNL     1      36.824 -22.039 -17.947  0.00  0.00    +0.164 C 
BRANCH  26  27
ATOM     27  N   UNL     1      36.341 -21.766 -16.599  0.00  0.00    -0.326 N 
ATOM     28  H   UNL     1      35.930 -20.890 -16.418  0.00  0.00    +0.147 HD
BRANCH  27  29
ATOM     29  C   UNL     1      36.434 -22.672 -15.565  0.00  0.00    +0.045 C 
ATOM     30  C   UNL     1      35.342 -22.886 -14.724  0.00  0.00    +0.014 C 
ATOM     31  C   UNL     1      37.623 -23.375 -15.358  0.00  0.00    +0.014 C 
ATOM     32  C   UNL     1      35.438 -23.802 -13.677  0.00  0.00    +0.004 C 
ATOM     33  C   UNL     1      37.717 -24.290 -14.311  0.00  0.00    +0.004 C 
ATOM     34  C   UNL     1      36.625 -24.504 -13.470  0.00  0.00    +0.031 C 
BRANCH  34  37
ATOM     35  N   UNL     1      37.603 -26.540 -12.438  0.00  0.00    -0.343 N 
ATOM     36  N   UNL     1      35.970 -25.313 -11.305  0.00  0.00    -0.285 NA
ATOM     37  C   UNL     1      36.725 -25.459 -12.378  0.00  0.00    +0.117 C 
ATOM     38  H   UNL     1      37.655 -27.175 -11.687  0.00  0.00    +0.144 HD
ATOM     39  H   UNL     1      38.172 -26.669 -13.231  0.00  0.00    +0.144 HD
ATOM     40  H   UNL     1      36.035 -25.958 -10.564  0.00  0.00    +0.188 HD
ENDBRANCH  34  37
ENDBRANCH  27  29
ENDBRANCH  26  27
ENDBRANCH   4  26
TORSDOF 9
ENDMDL
MODEL 5
REMARK VINA RESULT:     -11.2      5.711     12.760
REMARK  Name = 216210
REMARK  9 active torsions:
REMARK  status: ('A' for Active; 'I' for Inactive)
REMARK    1  A    between atoms: C_4  and  C_26
REMARK    2  A    between atoms: C_6  and  C_13
REMARK    3  A    between atoms: N_12  and  C_20
REMARK    4  A    between atoms: C_20  and  C_21
REMARK    5  A    between atoms: C_21  and  C_23
REMARK    6  A    between atoms: C_23  and  O_24
REMARK    7  A    between atoms: C_26  and  N_27
REMARK    8  A    between atoms: N_27  and  C_29
REMARK    9  A    between atoms: C_34  and  C_37
REMARK                            x       y       z     vdW  Elec       q    Type
REMARK                         _______ _______ _______ _____ _____    ______ ____
ROOT
ATOM      1  N   UNL     1      33.932 -20.788 -20.047  0.00  0.00    -0.261 N 
ATOM      2  N   UNL     1      36.056 -20.791 -19.394  0.00  0.00    -0.388 NA
ATOM      3  C   UNL     1      34.089 -21.645 -18.982  0.00  0.00    +0.079 C 
ATOM      4  C   UNL     1      35.129 -20.295 -20.268  0.00  0.00    +0.184 C 
ATOM      5  C   UNL     1      35.414 -21.664 -18.554  0.00  0.00    +0.146 C 
ATOM      6  C   UNL     1      34.909 -23.238 -16.842  0.00  0.00    +0.039 C 
ATOM      7  C   UNL     1      35.864 -22.446 -17.489  0.00  0.00    +0.034 C 
ATOM      8  C   UNL     1      33.144 -22.447 -18.321  0.00  0.00    -0.004 C 
ATOM      9  C   UNL     1      33.573 -23.239 -17.248  0.00  0.00    +0.058 C 
ATOM     10  C   UNL     1      32.702 -20.509 -20.750  0.00  0.00    +0.120 C 
ENDROOT
BRANCH   6  13
ATOM     11  O   UNL     1      36.170 -24.939 -15.977  0.00  0.00    -0.270 OA
ATOM     12  N   UNL     1      34.734 -23.850 -14.449  0.00  0.00    -0.240 N 
ATOM     13  C   UNL     1      35.318 -24.074 -15.724  0.00  0.00    +0.250 C 
ATOM     14  N   UNL     1      36.754 -24.612 -13.380  0.00  0.00    -0.229 NA
ATOM     15  C   UNL     1      35.497 -24.136 -13.247  0.00  0.00    +0.138 C 
ATOM     16  C   UNL     1      34.881 -23.900 -12.029  0.00  0.00    +0.035 C 
ATOM     17  C   UNL     1      35.602 -24.171 -10.872  0.00  0.00    +0.004 C 
ATOM     18  C   UNL     1      37.425 -24.865 -12.234  0.00  0.00    +0.100 C 
ATOM     19  C   UNL     1      36.899 -24.662 -10.968  0.00  0.00    +0.021 C 
BRANCH  12  20
ATOM     20  C   UNL     1      33.362 -23.331 -14.336  0.00  0.00    +0.112 C 
BRANCH  20  21
ATOM     21  C   UNL     1      32.341 -24.446 -14.156  0.00  0.00    +0.131 C 
BRANCH  21  23
ATOM     22  O   UNL     1      30.385 -22.997 -14.291  0.00  0.00    -0.250 OA
ATOM     23  C   UNL     1      30.970 -23.935 -13.767  0.00  0.00    +0.316 C 
BRANCH  23  24
ATOM     24  O   UNL     1      30.441 -24.662 -12.748  0.00  0.00    -0.480 OA
ATOM     25  H   UNL     1      29.928 -25.424 -12.933  0.00  0.00    +0.295 HD
ENDBRANCH  23  24
ENDBRANCH  21  23
ENDBRANCH  20  21
ENDBRANCH  12  20
ENDBRANCH   6  13
BRANCH   4  26
ATOM     26  C   UNL     1      35.415 -19.317 -21.338  0.00  0.00    +0.164 C 
BRANCH  26  27
ATOM     27  N   UNL     1      35.711 -17.965 -20.880  0.00  0.00    -0.326 N 
ATOM     28  H   UNL     1      36.356 -17.851 -20.145  0.00  0.00    +0.147 HD
BRANCH  27  29
ATOM     29  C   UNL     1      35.132 -16.840 -21.425  0.00  0.00    +0.045 C 
ATOM     30  C   UNL     1      34.581 -15.865 -20.592  0.00  0.00    +0.014 C 
ATOM     31  C   UNL     1      35.095 -16.675 -22.810  0.00  0.00    +0.014 C 
ATOM     32  C   UNL     1      33.993 -14.728 -21.143  0.00  0.00    +0.004 C 
ATOM     33  C   UNL     1      34.507 -15.537 -23.361  0.00  0.00    +0.004 C 
ATOM     34  C   UNL     1      33.956 -14.563 -22.528  0.00  0.00    +0.031 C 
BRANCH  34  37
ATOM     35  N   UNL     1      32.018 -13.040 -22.829  0.00  0.00    -0.343 N 
ATOM     36  N   UNL     1      34.043 -12.598 -23.907  0.00  0.00    -0.285 NA
ATOM     37  C   UNL     1      33.343 -13.376 -23.103  0.00  0.00    +0.117 C 
ATOM     38  H   UNL     1      31.623 -12.231 -23.229  0.00  0.00    +0.144 HD
ATOM     39  H   UNL     1      31.478 -13.609 -22.235  0.00  0.00    +0.144 HD
ATOM     40  H   UNL     1      33.631 -11.794 -24.298  0.00  0.00    +0.188 HD
ENDBRANCH  34  37
ENDBRANCH  27  29
ENDBRANCH  26  27
ENDBRANCH   4  26
TORSDOF 9
ENDMDL
MODEL 6
REMARK VINA RESULT:     -11.1      2.762      4.723
REMARK  Name = 216210
REMARK  9 active torsions:
REMARK  status: ('A' for Active; 'I' for Inactive)
REMARK    1  A    between atoms: C_4  and  C_26
REMARK    2  A    between atoms: C_6  and  C_13
REMARK    3  A    between atoms: N_12  and  C_20
REMARK    4  A    between atoms: C_20  and  C_21
REMARK    5  A    between atoms: C_21  and  C_23
REMARK    6  A    between atoms: C_23  and  O_24
REMARK    7  A    between atoms: C_26  and  N_27
REMARK    8  A    between atoms: N_27  and  C_29
REMARK    9  A    between atoms: C_34  and  C_37
REMARK                            x       y       z     vdW  Elec       q    Type
REMARK                         _______ _______ _______ _____ _____    ______ ____
ROOT
ATOM      1  N   UNL     1      32.933 -13.625 -23.162  0.00  0.00    -0.261 N 
ATOM      2  N   UNL     1      33.994 -12.929 -24.986  0.00  0.00    -0.388 NA
ATOM      3  C   UNL     1      32.977 -12.249 -23.178  0.00  0.00    +0.079 C 
ATOM      4  C   UNL     1      33.551 -13.999 -24.259  0.00  0.00    +0.184 C 
ATOM      5  C   UNL     1      33.638 -11.789 -24.313  0.00  0.00    +0.146 C 
ATOM      6  C   UNL     1      33.324  -9.522 -23.661  0.00  0.00    +0.039 C 
ATOM      7  C   UNL     1      33.832 -10.435 -24.591  0.00  0.00    +0.034 C 
ATOM      8  C   UNL     1      32.474 -11.318 -22.253  0.00  0.00    -0.004 C 
ATOM      9  C   UNL     1      32.656  -9.954 -22.512  0.00  0.00    +0.058 C 
ATOM     10  C   UNL     1      32.328 -14.452 -22.145  0.00  0.00    +0.120 C 
ENDROOT
BRANCH   6  13
ATOM     11  O   UNL     1      34.579  -7.754 -24.388  0.00  0.00    -0.270 OA
ATOM     12  N   UNL     1      32.435  -7.213 -23.559  0.00  0.00    -0.240 N 
ATOM     13  C   UNL     1      33.494  -8.097 -23.896  0.00  0.00    +0.250 C 
ATOM     14  N   UNL     1      33.106  -5.721 -25.326  0.00  0.00    -0.229 NA
ATOM     15  C   UNL     1      32.251  -5.988 -24.314  0.00  0.00    +0.138 C 
ATOM     16  C   UNL     1      31.203  -5.161 -23.945  0.00  0.00    +0.035 C 
ATOM     17  C   UNL     1      31.019  -3.983 -24.661  0.00  0.00    +0.004 C 
ATOM     18  C   UNL     1      32.897  -4.567 -26.000  0.00  0.00    +0.100 C 
ATOM     19  C   UNL     1      31.878  -3.674 -25.710  0.00  0.00    +0.021 C 
BRANCH  12  20
ATOM     20  C   UNL     1      31.521  -7.531 -22.450  0.00  0.00    +0.112 C 
BRANCH  20  21
ATOM     21  C   UNL     1      31.834  -6.720 -21.200  0.00  0.00    +0.131 C 
BRANCH  21  23
ATOM     22  O   UNL     1      31.714  -8.562 -19.608  0.00  0.00    -0.250 OA
ATOM     23  C   UNL     1      32.296  -7.577 -20.040  0.00  0.00    +0.316 C 
BRANCH  23  24
ATOM     24  O   UNL     1      33.467  -7.121 -19.523  0.00  0.00    -0.480 OA
ATOM     25  H   UNL     1      33.468  -6.635 -18.722  0.00  0.00    +0.295 HD
ENDBRANCH  23  24
ENDBRANCH  21  23
ENDBRANCH  20  21
ENDBRANCH  12  20
ENDBRANCH   6  13
BRANCH   4  26
ATOM     26  C   UNL     1      33.732 -15.414 -24.641  0.00  0.00    +0.164 C 
BRANCH  26  27
ATOM     27  N   UNL     1      34.971 -16.028 -24.182  0.00  0.00    -0.326 N 
ATOM     28  H   UNL     1      35.823 -15.695 -24.549  0.00  0.00    +0.147 HD
BRANCH  27  29
ATOM     29  C   UNL     1      35.011 -17.051 -23.260  0.00  0.00    +0.045 C 
ATOM     30  C   UNL     1      34.944 -18.378 -23.686  0.00  0.00    +0.014 C 
ATOM     31  C   UNL     1      35.115 -16.761 -21.899  0.00  0.00    +0.014 C 
ATOM     32  C   UNL     1      34.982 -19.413 -22.753  0.00  0.00    +0.004 C 
ATOM     33  C   UNL     1      35.153 -17.796 -20.966  0.00  0.00    +0.004 C 
ATOM     34  C   UNL     1      35.086 -19.123 -21.393  0.00  0.00    +0.031 C 
BRANCH  34  37
ATOM     35  N   UNL     1      33.967 -20.874 -20.035  0.00  0.00    -0.343 N 
ATOM     36  N   UNL     1      36.276 -20.558 -19.878  0.00  0.00    -0.285 NA
ATOM     37  C   UNL     1      35.126 -20.202 -20.419  0.00  0.00    +0.117 C 
ATOM     38  H   UNL     1      34.016 -21.603 -19.374  0.00  0.00    +0.144 HD
ATOM     39  H   UNL     1      33.098 -20.622 -20.425  0.00  0.00    +0.144 HD
ATOM     40  H   UNL     1      36.306 -21.289 -19.218  0.00  0.00    +0.188 HD
ENDBRANCH  34  37
ENDBRANCH  27  29
ENDBRANCH  26  27
ENDBRANCH   4  26
TORSDOF 9
ENDMDL
MODEL 7
REMARK VINA RESULT:     -10.4      1.950      3.708
REMARK  Name = 216210
REMARK  9 active torsions:
REMARK  status: ('A' for Active; 'I' for Inactive)
REMARK    1  A    between atoms: C_4  and  C_26
REMARK    2  A    between atoms: C_6  and  C_13
REMARK    3  A    between atoms: N_12  and  C_20
REMARK    4  A    between atoms: C_20  and  C_21
REMARK    5  A    between atoms: C_21  and  C_23
REMARK    6  A    between atoms: C_23  and  O_24
REMARK    7  A    between atoms: C_26  and  N_27
REMARK    8  A    between atoms: N_27  and  C_29
REMARK    9  A    between atoms: C_34  and  C_37
REMARK                            x       y       z     vdW  Elec       q    Type
REMARK                         _______ _______ _______ _____ _____    ______ ____
ROOT
ATOM      1  N   UNL     1      32.944 -14.996 -22.137  0.00  0.00    -0.261 N 
ATOM      2  N   UNL     1      34.254 -14.366 -23.818  0.00  0.00    -0.388 NA
ATOM      3  C   UNL     1      32.816 -13.641 -22.344  0.00  0.00    +0.079 C 
ATOM      4  C   UNL     1      33.814 -15.397 -23.037  0.00  0.00    +0.184 C 
ATOM      5  C   UNL     1      33.628 -13.222 -23.394  0.00  0.00    +0.146 C 
ATOM      6  C   UNL     1      32.904 -10.969 -23.145  0.00  0.00    +0.039 C 
ATOM      7  C   UNL     1      33.701 -11.897 -23.825  0.00  0.00    +0.034 C 
ATOM      8  C   UNL     1      32.022 -12.696 -21.672  0.00  0.00    -0.004 C 
ATOM      9  C   UNL     1      32.078 -11.360 -22.088  0.00  0.00    +0.058 C 
ATOM     10  C   UNL     1      32.256 -15.780 -21.140  0.00  0.00    +0.120 C 
ENDROOT
BRANCH   6  13
ATOM     11  O   UNL     1      33.210  -9.357 -24.739  0.00  0.00    -0.270 OA
ATOM     12  N   UNL     1      32.655  -8.570 -22.582  0.00  0.00    -0.240 N 
ATOM     13  C   UNL     1      32.936  -9.571 -23.549  0.00  0.00    +0.250 C 
ATOM     14  N   UNL     1      31.758  -7.146 -24.305  0.00  0.00    -0.229 NA
ATOM     15  C   UNL     1      32.044  -7.321 -22.996  0.00  0.00    +0.138 C 
ATOM     16  C   UNL     1      31.790  -6.378 -22.013  0.00  0.00    +0.035 C 
ATOM     17  C   UNL     1      31.206  -5.177 -22.399  0.00  0.00    +0.004 C 
ATOM     18  C   UNL     1      31.191  -5.966 -24.643  0.00  0.00    +0.100 C 
ATOM     19  C   UNL     1      30.897  -4.959 -23.738  0.00  0.00    +0.021 C 
BRANCH  12  20
ATOM     20  C   UNL     1      32.978  -8.790 -21.163  0.00  0.00    +0.112 C 
BRANCH  20  21
ATOM     21  C   UNL     1      31.750  -8.664 -20.271  0.00  0.00    +0.131 C 
BRANCH  21  23
ATOM     22  O   UNL     1      30.625 -10.462 -19.069  0.00  0.00    -0.250 OA
ATOM     23  C   UNL     1      31.629  -9.792 -19.269  0.00  0.00    +0.316 C 
BRANCH  23  24
ATOM     24  O   UNL     1      32.797  -9.990 -18.603  0.00  0.00    -0.480 OA
ATOM     25  H   UNL     1      32.787 -10.168 -17.683  0.00  0.00    +0.295 HD
ENDBRANCH  23  24
ENDBRANCH  21  23
ENDBRANCH  20  21
ENDBRANCH  12  20
ENDBRANCH   6  13
BRANCH   4  26
ATOM     26  C   UNL     1      34.245 -16.804 -23.170  0.00  0.00    +0.164 C 
BRANCH  26  27
ATOM     27  N   UNL     1      35.363 -17.193 -22.319  0.00  0.00    -0.326 N 
ATOM     28  H   UNL     1      36.156 -16.610 -22.292  0.00  0.00    +0.147 HD
BRANCH  27  29
ATOM     29  C   UNL     1      35.364 -18.337 -21.551  0.00  0.00    +0.045 C 
ATOM     30  C   UNL     1      36.566 -18.843 -21.056  0.00  0.00    +0.014 C 
ATOM     31  C   UNL     1      34.164 -18.991 -21.271  0.00  0.00    +0.014 C 
ATOM     32  C   UNL     1      36.568 -20.002 -20.281  0.00  0.00    +0.004 C 
ATOM     33  C   UNL     1      34.166 -20.149 -20.496  0.00  0.00    +0.004 C 
ATOM     34  C   UNL     1      35.367 -20.656 -20.000  0.00  0.00    +0.031 C 
BRANCH  34  37
ATOM     35  N   UNL     1      36.221 -22.004 -18.098  0.00  0.00    -0.343 N 
ATOM     36  N   UNL     1      34.554 -22.859 -19.494  0.00  0.00    -0.285 NA
ATOM     37  C   UNL     1      35.369 -21.865 -19.192  0.00  0.00    +0.117 C 
ATOM     38  H   UNL     1      36.205 -22.831 -17.563  0.00  0.00    +0.144 HD
ATOM     39  H   UNL     1      36.838 -21.275 -17.858  0.00  0.00    +0.144 HD
ATOM     40  H   UNL     1      34.554 -23.679 -18.949  0.00  0.00    +0.188 HD
ENDBRANCH  34  37
ENDBRANCH  27  29
ENDBRANCH  26  27
ENDBRANCH   4  26
TORSDOF 9
ENDMDL
MODEL 8
REMARK VINA RESULT:     -10.3      3.233     10.368
REMARK  Name = 216210
REMARK  9 active torsions:
REMARK  status: ('A' for Active; 'I' for Inactive)
REMARK    1  A    between atoms: C_4  and  C_26
REMARK    2  A    between atoms: C_6  and  C_13
REMARK    3  A    between atoms: N_12  and  C_20
REMARK    4  A    between atoms: C_20  and  C_21
REMARK    5  A    between atoms: C_21  and  C_23
REMARK    6  A    between atoms: C_23  and  O_24
REMARK    7  A    between atoms: C_26  and  N_27
REMARK    8  A    between atoms: N_27  and  C_29
REMARK    9  A    between atoms: C_34  and  C_37
REMARK                            x       y       z     vdW  Elec       q    Type
REMARK                         _______ _______ _______ _____ _____    ______ ____
ROOT
ATOM      1  N   UNL     1      33.926 -15.924 -23.958  0.00  0.00    -0.261 N 
ATOM      2  N   UNL     1      33.851 -15.560 -21.767  0.00  0.00    -0.388 NA
ATOM      3  C   UNL     1      34.608 -16.921 -23.297  0.00  0.00    +0.079 C 
ATOM      4  C   UNL     1      33.487 -15.127 -23.011  0.00  0.00    +0.184 C 
ATOM      5  C   UNL     1      34.574 -16.714 -21.921  0.00  0.00    +0.146 C 
ATOM      6  C   UNL     1      35.856 -18.681 -21.526  0.00  0.00    +0.039 C 
ATOM      7  C   UNL     1      35.185 -17.570 -21.003  0.00  0.00    +0.034 C 
ATOM      8  C   UNL     1      35.287 -18.041 -23.806  0.00  0.00    -0.004 C 
ATOM      9  C   UNL     1      35.906 -18.915 -22.903  0.00  0.00    +0.058 C 
ATOM     10  C   UNL     1      33.748 -15.808 -25.385  0.00  0.00    +0.120 C 
ENDROOT
BRANCH   6  13
ATOM     11  O   UNL     1      37.720 -19.415 -20.424  0.00  0.00    -0.270 OA
ATOM     12  N   UNL     1      35.745 -20.649 -20.026  0.00  0.00    -0.240 N 
ATOM     13  C   UNL     1      36.511 -19.610 -20.618  0.00  0.00    +0.250 C 
ATOM     14  N   UNL     1      37.171 -20.606 -18.086  0.00  0.00    -0.229 NA
ATOM     15  C   UNL     1      36.104 -21.149 -18.713  0.00  0.00    +0.138 C 
ATOM     16  C   UNL     1      35.324 -22.163 -18.181  0.00  0.00    +0.035 C 
ATOM     17  C   UNL     1      35.660 -22.651 -16.922  0.00  0.00    +0.004 C 
ATOM     18  C   UNL     1      37.468 -21.105 -16.865  0.00  0.00    +0.100 C 
ATOM     19  C   UNL     1      36.752 -22.117 -16.245  0.00  0.00    +0.021 C 
BRANCH  12  20
ATOM     20  C   UNL     1      34.589 -21.221 -20.735  0.00  0.00    +0.112 C 
BRANCH  20  21
ATOM     21  C   UNL     1      33.272 -20.872 -20.054  0.00  0.00    +0.131 C 
BRANCH  21  23
ATOM     22  O   UNL     1      31.876 -18.879 -20.193  0.00  0.00    -0.250 OA
ATOM     23  C   UNL     1      32.525 -19.753 -20.749  0.00  0.00    +0.316 C 
BRANCH  23  24
ATOM     24  O   UNL     1      32.670 -19.826 -22.098  0.00  0.00    -0.480 OA
ATOM     25  H   UNL     1      32.874 -19.054 -22.590  0.00  0.00    +0.295 HD
ENDBRANCH  23  24
ENDBRANCH  21  23
ENDBRANCH  20  21
ENDBRANCH  12  20
ENDBRANCH   6  13
BRANCH   4  26
ATOM     26  C   UNL     1      32.692 -13.912 -23.284  0.00  0.00    +0.164 C 
BRANCH  26  27
ATOM     27  N   UNL     1      31.972 -13.371 -22.137  0.00  0.00    -0.326 N 
ATOM     28  H   UNL     1      31.433 -13.987 -21.590  0.00  0.00    +0.147 HD
BRANCH  27  29
ATOM     29  C   UNL     1      32.008 -12.040 -21.783  0.00  0.00    +0.045 C 
ATOM     30  C   UNL     1      31.720 -11.658 -20.472  0.00  0.00    +0.014 C 
ATOM     31  C   UNL     1      32.330 -11.073 -22.736  0.00  0.00    +0.014 C 
ATOM     32  C   UNL     1      31.754 -10.311 -20.115  0.00  0.00    +0.004 C 
ATOM     33  C   UNL     1      32.365  -9.726 -22.378  0.00  0.00    +0.004 C 
ATOM     34  C   UNL     1      32.076  -9.344 -21.067  0.00  0.00    +0.031 C 
BRANCH  34  37
ATOM     35  N   UNL     1      31.566  -6.957 -21.519  0.00  0.00    -0.343 N 
ATOM     36  N   UNL     1      32.675  -7.574 -19.557  0.00  0.00    -0.285 NA
ATOM     37  C   UNL     1      32.112  -7.939 -20.695  0.00  0.00    +0.117 C 
ATOM     38  H   UNL     1      31.601  -6.010 -21.247  0.00  0.00    +0.144 HD
ATOM     39  H   UNL     1      31.144  -7.208 -22.372  0.00  0.00    +0.144 HD
ATOM     40  H   UNL     1      32.701  -6.624 -19.303  0.00  0.00    +0.188 HD
ENDBRANCH  34  37
ENDBRANCH  27  29
ENDBRANCH  26  27
ENDBRANCH   4  26
TORSDOF 9
ENDMDL
MODEL 9
REMARK VINA RESULT:     -10.2      3.528      5.477
REMARK  Name = 216210
REMARK  9 active torsions:
REMARK  status: ('A' for Active; 'I' for Inactive)
REMARK    1  A    between atoms: C_4  and  C_26
REMARK    2  A    between atoms: C_6  and  C_13
REMARK    3  A    between atoms: N_12  and  C_20
REMARK    4  A    between atoms: C_20  and  C_21
REMARK    5  A    between atoms: C_21  and  C_23
REMARK    6  A    between atoms: C_23  and  O_24
REMARK    7  A    between atoms: C_26  and  N_27
REMARK    8  A    between atoms: N_27  and  C_29
REMARK    9  A    between atoms: C_34  and  C_37
REMARK                            x       y       z     vdW  Elec       q    Type
REMARK                         _______ _______ _______ _____ _____    ______ ____
ROOT
ATOM      1  N   UNL     1      32.799 -12.797 -22.979  0.00  0.00    -0.261 N 
ATOM      2  N   UNL     1      33.920 -12.400 -24.856  0.00  0.00    -0.388 NA
ATOM      3  C   UNL     1      32.992 -11.442 -23.128  0.00  0.00    +0.079 C 
ATOM      4  C   UNL     1      33.367 -13.340 -24.031  0.00  0.00    +0.184 C 
ATOM      5  C   UNL     1      33.693 -11.168 -24.298  0.00  0.00    +0.146 C 
ATOM      6  C   UNL     1      33.630  -8.828 -23.869  0.00  0.00    +0.039 C 
ATOM      7  C   UNL     1      34.031  -9.877 -24.704  0.00  0.00    +0.034 C 
ATOM      8  C   UNL     1      32.597 -10.377 -22.300  0.00  0.00    -0.004 C 
ATOM      9  C   UNL     1      32.925  -9.072 -22.688  0.00  0.00    +0.058 C 
ATOM     10  C   UNL     1      32.113 -13.451 -21.890  0.00  0.00    +0.120 C 
ENDROOT
BRANCH   6  13
ATOM     11  O   UNL     1      35.156  -7.163 -24.224  0.00  0.00    -0.270 OA
ATOM     12  N   UNL     1      32.898  -6.575 -24.590  0.00  0.00    -0.240 N 
ATOM     13  C   UNL     1      33.953  -7.459 -24.240  0.00  0.00    +0.250 C 
ATOM     14  N   UNL     1      34.377  -5.384 -26.072  0.00  0.00    -0.229 NA
ATOM     15  C   UNL     1      33.140  -5.507 -25.542  0.00  0.00    +0.138 C 
ATOM     16  C   UNL     1      32.077  -4.673 -25.849  0.00  0.00    +0.035 C 
ATOM     17  C   UNL     1      32.298  -3.645 -26.760  0.00  0.00    +0.004 C 
ATOM     18  C   UNL     1      34.555  -4.374 -26.953  0.00  0.00    +0.100 C 
ATOM     19  C   UNL     1      33.558  -3.487 -27.327  0.00  0.00    +0.021 C 
BRANCH  12  20
ATOM     20  C   UNL     1      31.561  -6.734 -23.995  0.00  0.00    +0.112 C 
BRANCH  20  21
ATOM     21  C   UNL     1      31.529  -6.294 -22.537  0.00  0.00    +0.131 C 
BRANCH  21  23
ATOM     22  O   UNL     1      30.393  -4.232 -23.169  0.00  0.00    -0.250 OA
ATOM     23  C   UNL     1      30.692  -5.052 -22.313  0.00  0.00    +0.316 C 
BRANCH  23  24
ATOM     24  O   UNL     1      30.292  -4.952 -21.018  0.00  0.00    -0.480 OA
ATOM     25  H   UNL     1      30.676  -5.504 -20.365  0.00  0.00    +0.295 HD
ENDBRANCH  23  24
ENDBRANCH  21  23
ENDBRANCH  20  21
ENDBRANCH  12  20
ENDBRANCH   6  13
BRANCH   4  26
ATOM     26  C   UNL     1      33.391 -14.797 -24.274  0.00  0.00    +0.164 C 
BRANCH  26  27
ATOM     27  N   UNL     1      34.676 -15.444 -24.038  0.00  0.00    -0.326 N 
ATOM     28  H   UNL     1      35.470 -15.092 -24.503  0.00  0.00    +0.147 HD
BRANCH  27  29
ATOM     29  C   UNL     1      34.834 -16.524 -23.198  0.00  0.00    +0.045 C 
ATOM     30  C   UNL     1      34.812 -16.342 -21.815  0.00  0.00    +0.014 C 
ATOM     31  C   UNL     1      35.019 -17.801 -23.730  0.00  0.00    +0.014 C 
ATOM     32  C   UNL     1      34.975 -17.435 -20.965  0.00  0.00    +0.004 C 
ATOM     33  C   UNL     1      35.181 -18.894 -22.880  0.00  0.00    +0.004 C 
ATOM     34  C   UNL     1      35.159 -18.712 -21.497  0.00  0.00    +0.031 C 
BRANCH  34  37
ATOM     35  N   UNL     1      36.568 -20.156 -20.050  0.00  0.00    -0.343 N 
ATOM     36  N   UNL     1      34.296 -20.625 -20.328  0.00  0.00    -0.285 NA
ATOM     37  C   UNL     1      35.329 -19.852 -20.611  0.00  0.00    +0.117 C 
ATOM     38  H   UNL     1      36.661 -20.934 -19.452  0.00  0.00    +0.144 HD
ATOM     39  H   UNL     1      37.351 -19.595 -20.251  0.00  0.00    +0.144 HD
ATOM     40  H   UNL     1      34.408 -21.398 -19.728  0.00  0.00    +0.188 HD
ENDBRANCH  34  37
ENDBRANCH  27  29
ENDBRANCH  26  27
ENDBRANCH   4  26
TORSDOF 9
ENDMDL
