MODEL 1
REMARK VINA RESULT:      -9.8      0.000      0.000
REMARK  Name = 49784945
REMARK  2 active torsions:
REMARK  status: ('A' for Active; 'I' for Inactive)
REMARK    1  A    between atoms: N_2  and  S_25
REMARK    2  A    between atoms: C_10  and  C_19
REMARK                            x       y       z     vdW  Elec       q    Type
REMARK                         _______ _______ _______ _____ _____    ______ ____
ROOT
ATOM      1  O   UNL     1      35.913 -20.957 -20.485  0.00  0.00    -0.350 OA
ATOM      2  N   UNL     1      37.016 -24.011 -13.883  0.00  0.00    -0.170 N 
ATOM      3  N   UNL     1      35.433 -22.101 -17.963  0.00  0.00    -0.229 N 
ATOM      4  N   UNL     1      36.322 -23.023 -16.010  0.00  0.00    -0.315 NA
ATOM      5  N   UNL     1      33.948 -23.155 -16.493  0.00  0.00    -0.332 NA
ATOM      6  C   UNL     1      36.337 -24.941 -12.914  0.00  0.00    +0.119 C 
ATOM      7  C   UNL     1      34.824 -24.754 -13.149  0.00  0.00    +0.039 C 
ATOM      8  C   UNL     1      34.796 -24.111 -14.488  0.00  0.00    +0.124 C 
ATOM      9  C   UNL     1      36.049 -23.709 -14.894  0.00  0.00    +0.198 C 
ATOM     10  C   UNL     1      33.758 -23.813 -15.328  0.00  0.00    +0.130 C 
ATOM     11  C   UNL     1      35.227 -22.794 -16.765  0.00  0.00    +0.204 C 
ATOM     12  C   UNL     1      36.785 -21.675 -18.338  0.00  0.00    +0.135 C 
ATOM     13  C   UNL     1      34.531 -22.380 -19.089  0.00  0.00    +0.135 C 
ATOM     14  C   UNL     1      36.705 -20.554 -19.369  0.00  0.00    +0.164 C 
ATOM     15  C   UNL     1      34.571 -21.221 -20.078  0.00  0.00    +0.164 C 
ENDROOT
BRANCH  10  19
ATOM     16  N   UNL     1      30.764 -25.141 -13.552  0.00  0.00    -0.203 NA
ATOM     17  N   UNL     1      30.066 -24.186 -15.651  0.00  0.00    -0.181 NA
ATOM     18  N   UNL     1      28.505 -25.149 -14.187  0.00  0.00    -0.303 N 
ATOM     19  C   UNL     1      32.390 -24.161 -15.030  0.00  0.00    +0.050 C 
ATOM     20  C   UNL     1      32.033 -24.801 -13.861  0.00  0.00    +0.168 C 
ATOM     21  C   UNL     1      31.355 -23.875 -15.896  0.00  0.00    +0.111 C 
ATOM     22  C   UNL     1      29.844 -24.808 -14.478  0.00  0.00    +0.084 C 
ATOM     23  H   UNL     1      28.285 -25.607 -13.343  0.00  0.00    +0.154 HD
ATOM     24  H   UNL     1      27.791 -24.931 -14.828  0.00  0.00    +0.154 HD
ENDBRANCH  10  19
BRANCH   2  25
ATOM     25  S   UNL     1      38.583 -24.392 -14.406  0.00  0.00    +0.060 S 
ATOM     26  O   UNL     1      39.479 -24.420 -13.265  0.00  0.00    -0.154 OA
ATOM     27  O   UNL     1      38.901 -23.608 -15.587  0.00  0.00    -0.154 OA
ATOM     28  C   UNL     1      38.326 -26.071 -14.929  0.00  0.00    +0.200 C 
ENDBRANCH   2  25
TORSDOF 2
ENDMDL
MODEL 2
REMARK VINA RESULT:      -9.7      3.182      5.720
REMARK  Name = 49784945
REMARK  2 active torsions:
REMARK  status: ('A' for Active; 'I' for Inactive)
REMARK    1  A    between atoms: N_2  and  S_25
REMARK    2  A    between atoms: C_10  and  C_19
REMARK                            x       y       z     vdW  Elec       q    Type
REMARK                         _______ _______ _______ _____ _____    ______ ____
ROOT
ATOM      1  O   UNL     1      35.236 -20.394 -20.627  0.00  0.00    -0.350 OA
ATOM      2  N   UNL     1      31.157 -24.014 -15.689  0.00  0.00    -0.170 N 
ATOM      3  N   UNL     1      34.490 -22.099 -18.522  0.00  0.00    -0.229 N 
ATOM      4  N   UNL     1      32.776 -22.967 -17.194  0.00  0.00    -0.315 NA
ATOM      5  N   UNL     1      35.108 -23.335 -16.633  0.00  0.00    -0.332 NA
ATOM      6  C   UNL     1      31.274 -24.616 -14.315  0.00  0.00    +0.119 C 
ATOM      7  C   UNL     1      32.752 -25.036 -14.169  0.00  0.00    +0.039 C 
ATOM      8  C   UNL     1      33.405 -24.244 -15.243  0.00  0.00    +0.124 C 
ATOM      9  C   UNL     1      32.485 -23.661 -16.087  0.00  0.00    +0.198 C 
ATOM     10  C   UNL     1      34.723 -24.053 -15.554  0.00  0.00    +0.130 C 
ATOM     11  C   UNL     1      34.103 -22.835 -17.395  0.00  0.00    +0.204 C 
ATOM     12  C   UNL     1      33.470 -21.519 -19.401  0.00  0.00    +0.135 C 
ATOM     13  C   UNL     1      35.761 -21.365 -18.467  0.00  0.00    +0.135 C 
ATOM     14  C   UNL     1      34.078 -21.217 -20.767  0.00  0.00    +0.164 C 
ATOM     15  C   UNL     1      36.246 -21.072 -19.882  0.00  0.00    +0.164 C 
ENDROOT
BRANCH  10  19
ATOM     16  N   UNL     1      37.367 -24.430 -12.955  0.00  0.00    -0.203 NA
ATOM     17  N   UNL     1      37.329 -26.414 -14.322  0.00  0.00    -0.181 NA
ATOM     18  N   UNL     1      38.847 -26.204 -12.545  0.00  0.00    -0.303 N 
ATOM     19  C   UNL     1      35.797 -24.613 -14.770  0.00  0.00    +0.050 C 
ATOM     20  C   UNL     1      36.362 -23.936 -13.708  0.00  0.00    +0.168 C 
ATOM     21  C   UNL     1      36.326 -25.860 -15.033  0.00  0.00    +0.111 C 
ATOM     22  C   UNL     1      37.795 -25.656 -13.312  0.00  0.00    +0.084 C 
ATOM     23  H   UNL     1      39.228 -25.692 -11.794  0.00  0.00    +0.154 HD
ATOM     24  H   UNL     1      39.201 -27.097 -12.761  0.00  0.00    +0.154 HD
ENDBRANCH  10  19
BRANCH   2  25
ATOM     25  S   UNL     1      29.940 -22.867 -15.967  0.00  0.00    +0.060 S 
ATOM     26  O   UNL     1      30.264 -22.098 -17.155  0.00  0.00    -0.154 OA
ATOM     27  O   UNL     1      29.605 -22.206 -14.718  0.00  0.00    -0.154 OA
ATOM     28  C   UNL     1      28.593 -23.951 -16.380  0.00  0.00    +0.200 C 
ENDBRANCH   2  25
TORSDOF 2
ENDMDL
MODEL 3
REMARK VINA RESULT:      -9.4      1.334      1.587
REMARK  Name = 49784945
REMARK  2 active torsions:
REMARK  status: ('A' for Active; 'I' for Inactive)
REMARK    1  A    between atoms: N_2  and  S_25
REMARK    2  A    between atoms: C_10  and  C_19
REMARK                            x       y       z     vdW  Elec       q    Type
REMARK                         _______ _______ _______ _____ _____    ______ ____
ROOT
ATOM      1  O   UNL     1      36.362 -20.826 -20.778  0.00  0.00    -0.350 OA
ATOM      2  N   UNL     1      35.811 -24.143 -14.234  0.00  0.00    -0.170 N 
ATOM      3  N   UNL     1      35.287 -21.874 -18.403  0.00  0.00    -0.229 N 
ATOM      4  N   UNL     1      35.663 -22.996 -16.389  0.00  0.00    -0.315 NA
ATOM      5  N   UNL     1      33.412 -22.597 -17.203  0.00  0.00    -0.332 NA
ATOM      6  C   UNL     1      34.816 -24.916 -13.412  0.00  0.00    +0.119 C 
ATOM      7  C   UNL     1      33.428 -24.398 -13.846  0.00  0.00    +0.039 C 
ATOM      8  C   UNL     1      33.734 -23.745 -15.145  0.00  0.00    +0.124 C 
ATOM      9  C   UNL     1      35.090 -23.622 -15.354  0.00  0.00    +0.198 C 
ATOM     10  C   UNL     1      32.918 -23.214 -16.106  0.00  0.00    +0.130 C 
ATOM     11  C   UNL     1      34.765 -22.522 -17.277  0.00  0.00    +0.204 C 
ATOM     12  C   UNL     1      36.739 -21.749 -18.566  0.00  0.00    +0.135 C 
ATOM     13  C   UNL     1      34.519 -21.931 -19.654  0.00  0.00    +0.135 C 
ATOM     14  C   UNL     1      37.052 -20.623 -19.545  0.00  0.00    +0.164 C 
ATOM     15  C   UNL     1      34.951 -20.795 -20.574  0.00  0.00    +0.164 C 
ENDROOT
BRANCH  10  19
ATOM     16  N   UNL     1      29.479 -24.155 -15.024  0.00  0.00    -0.203 NA
ATOM     17  N   UNL     1      29.323 -22.486 -16.756  0.00  0.00    -0.181 NA
ATOM     18  N   UNL     1      27.392 -23.381 -15.768  0.00  0.00    -0.303 N 
ATOM     19  C   UNL     1      31.479 -23.258 -16.017  0.00  0.00    +0.050 C 
ATOM     20  C   UNL     1      30.823 -24.089 -15.133  0.00  0.00    +0.168 C 
ATOM     21  C   UNL     1      30.670 -22.471 -16.811  0.00  0.00    +0.111 C 
ATOM     22  C   UNL     1      28.801 -23.338 -15.853  0.00  0.00    +0.084 C 
ATOM     23  H   UNL     1      26.956 -23.988 -15.125  0.00  0.00    +0.154 HD
ATOM     24  H   UNL     1      26.845 -22.806 -16.350  0.00  0.00    +0.154 HD
ENDBRANCH  10  19
BRANCH   2  25
ATOM     25  S   UNL     1      37.319 -24.851 -14.552  0.00  0.00    +0.060 S 
ATOM     26  O   UNL     1      38.296 -23.809 -14.812  0.00  0.00    -0.154 OA
ATOM     27  O   UNL     1      37.146 -25.960 -15.474  0.00  0.00    -0.154 OA
ATOM     28  C   UNL     1      37.675 -25.534 -12.950  0.00  0.00    +0.200 C 
ENDBRANCH   2  25
TORSDOF 2
ENDMDL
