MODEL 1
REMARK VINA RESULT:      -2.2      0.000      0.000
REMARK  Name = 44574544
REMARK  2 active torsions:
REMARK  status: ('A' for Active; 'I' for Inactive)
REMARK    1  A    between atoms: C_10  and  C_25
REMARK    2  A    between atoms: C_17  and  O_31
REMARK                            x       y       z     vdW  Elec       q    Type
REMARK                         _______ _______ _______ _____ _____    ______ ____
ROOT
ATOM      1  O   UNL     1      32.510 -21.683 -14.227  0.00  0.00    -0.292 OA
ATOM      2  O   UNL     1      35.578 -22.396 -11.806  0.00  0.00    -0.275 OA
ATOM      3  N   UNL     1      35.956 -23.733 -13.680  0.00  0.00    -0.251 N 
ATOM      4  N   UNL     1      34.626 -25.897 -15.211  0.00  0.00    -0.313 N 
ATOM      5  C   UNL     1      31.131 -25.047 -14.133  0.00  0.00    +0.013 C 
ATOM      6  C   UNL     1      32.232 -25.722 -14.966  0.00  0.00    +0.041 C 
ATOM      7  C   UNL     1      31.090 -23.564 -14.503  0.00  0.00    +0.069 C 
ATOM      8  C   UNL     1      33.589 -25.037 -14.899  0.00  0.00    +0.026 C 
ATOM      9  C   UNL     1      33.694 -23.719 -14.620  0.00  0.00    +0.044 C 
ATOM     10  C   UNL     1      35.006 -22.966 -14.524  0.00  0.00    +0.129 C 
ATOM     11  C   UNL     1      32.445 -22.900 -14.411  0.00  0.00    +0.172 C 
ATOM     12  C   UNL     1      29.773 -25.692 -14.470  0.00  0.00    +0.001 C 
ATOM     13  C   UNL     1      31.386 -25.229 -12.623  0.00  0.00    +0.001 C 
ATOM     14  C   UNL     1      36.675 -24.792 -14.311  0.00  0.00    +0.071 C 
ATOM     15  C   UNL     1      36.020 -25.783 -15.062  0.00  0.00    +0.096 C 
ATOM     16  C   UNL     1      36.153 -23.350 -12.342  0.00  0.00    +0.230 C 
ATOM     17  C   UNL     1      36.812 -26.764 -15.698  0.00  0.00    +0.148 C 
ATOM     18  C   UNL     1      38.080 -24.804 -14.214  0.00  0.00    +0.016 C 
ATOM     19  C   UNL     1      38.203 -26.768 -15.591  0.00  0.00    +0.038 C 
ATOM     20  C   UNL     1      38.838 -25.787 -14.847  0.00  0.00    +0.004 C 
ATOM     21  C   UNL     1      37.080 -24.197 -11.498  0.00  0.00    +0.095 C 
ATOM     22  H   UNL     1      34.333 -26.747 -15.612  0.00  0.00    +0.152 HD
ENDROOT
BRANCH  10  25
ATOM     23 CL   UNL     1      33.370 -23.277 -17.138  0.00  0.00    -0.082 Cl
ATOM     24 CL   UNL     1      37.512 -20.893 -19.612  0.00  0.00    -0.082 Cl
ATOM     25  C   UNL     1      35.614 -22.452 -15.829  0.00  0.00    +0.011 C 
ATOM     26  C   UNL     1      34.936 -22.557 -17.043  0.00  0.00    +0.056 C 
ATOM     27  C   UNL     1      36.878 -21.864 -15.784  0.00  0.00    -0.001 C 
ATOM     28  C   UNL     1      35.523 -22.075 -18.214  0.00  0.00    +0.023 C 
ATOM     29  C   UNL     1      37.465 -21.382 -16.954  0.00  0.00    +0.011 C 
ATOM     30  C   UNL     1      36.788 -21.488 -18.169  0.00  0.00    +0.058 C 
ENDBRANCH  10  25
BRANCH  17  31
ATOM     31  O   UNL     1      36.222 -27.752 -16.438  0.00  0.00    -0.504 OA
ATOM     32  H   UNL     1      35.328 -27.667 -16.702  0.00  0.00    +0.292 HD
ENDBRANCH  17  31
TORSDOF 2
ENDMDL
MODEL 2
REMARK VINA RESULT:      -2.2      2.020      5.617
REMARK  Name = 44574544
REMARK  2 active torsions:
REMARK  status: ('A' for Active; 'I' for Inactive)
REMARK    1  A    between atoms: C_10  and  C_25
REMARK    2  A    between atoms: C_17  and  O_31
REMARK                            x       y       z     vdW  Elec       q    Type
REMARK                         _______ _______ _______ _____ _____    ______ ____
ROOT
ATOM      1  O   UNL     1      33.813 -23.592 -18.202  0.00  0.00    -0.292 OA
ATOM      2  O   UNL     1      35.732 -26.721 -16.684  0.00  0.00    -0.275 OA
ATOM      3  N   UNL     1      35.900 -25.056 -15.060  0.00  0.00    -0.251 N 
ATOM      4  N   UNL     1      36.927 -22.288 -14.766  0.00  0.00    -0.313 N 
ATOM      5  C   UNL     1      36.710 -21.403 -18.409  0.00  0.00    +0.013 C 
ATOM      6  C   UNL     1      36.868 -21.163 -16.899  0.00  0.00    +0.041 C 
ATOM      7  C   UNL     1      35.251 -21.768 -18.687  0.00  0.00    +0.069 C 
ATOM      8  C   UNL     1      36.339 -22.285 -16.018  0.00  0.00    +0.026 C 
ATOM      9  C   UNL     1      35.363 -23.112 -16.451  0.00  0.00    +0.044 C 
ATOM     10  C   UNL     1      34.791 -24.259 -15.641  0.00  0.00    +0.129 C 
ATOM     11  C   UNL     1      34.754 -22.897 -17.814  0.00  0.00    +0.172 C 
ATOM     12  C   UNL     1      37.064 -20.110 -19.168  0.00  0.00    +0.001 C 
ATOM     13  C   UNL     1      37.657 -22.518 -18.896  0.00  0.00    +0.001 C 
ATOM     14  C   UNL     1      36.485 -24.569 -13.852  0.00  0.00    +0.071 C 
ATOM     15  C   UNL     1      36.928 -23.241 -13.731  0.00  0.00    +0.096 C 
ATOM     16  C   UNL     1      36.274 -26.264 -15.672  0.00  0.00    +0.230 C 
ATOM     17  C   UNL     1      37.446 -22.827 -12.484  0.00  0.00    +0.148 C 
ATOM     18  C   UNL     1      36.568 -25.437 -12.746  0.00  0.00    +0.016 C 
ATOM     19  C   UNL     1      37.527 -23.697 -11.396  0.00  0.00    +0.038 C 
ATOM     20  C   UNL     1      37.087 -25.005 -11.528  0.00  0.00    +0.004 C 
ATOM     21  C   UNL     1      37.452 -27.013 -15.087  0.00  0.00    +0.095 C 
ATOM     22  H   UNL     1      37.438 -21.473 -14.562  0.00  0.00    +0.152 HD
ENDROOT
BRANCH  10  25
ATOM     23 CL   UNL     1      31.950 -23.674 -16.735  0.00  0.00    -0.082 Cl
ATOM     24 CL   UNL     1      30.491 -22.956 -11.605  0.00  0.00    -0.082 Cl
ATOM     25  C   UNL     1      33.681 -23.925 -14.644  0.00  0.00    +0.011 C 
ATOM     26  C   UNL     1      32.379 -23.651 -15.063  0.00  0.00    +0.056 C 
ATOM     27  C   UNL     1      33.996 -23.899 -13.286  0.00  0.00    -0.001 C 
ATOM     28  C   UNL     1      31.392 -23.351 -14.124  0.00  0.00    +0.023 C 
ATOM     29  C   UNL     1      33.010 -23.599 -12.346  0.00  0.00    +0.011 C 
ATOM     30  C   UNL     1      31.708 -23.325 -12.765  0.00  0.00    +0.058 C 
ENDBRANCH  10  25
BRANCH  17  31
ATOM     31  O   UNL     1      37.893 -21.545 -12.315  0.00  0.00    -0.504 OA
ATOM     32  H   UNL     1      38.041 -21.212 -11.452  0.00  0.00    +0.292 HD
ENDBRANCH  17  31
TORSDOF 2
ENDMDL
