MODEL 1
REMARK VINA RESULT:     -12.4      0.000      0.000
REMARK  Name = 3488
REMARK  8 active torsions:
REMARK  status: ('A' for Active; 'I' for Inactive)
REMARK    1  A    between atoms: C_1  and  S_7
REMARK    2  A    between atoms: C_2  and  C_22
REMARK    3  A    between atoms: S_7  and  N_12
REMARK    4  A    between atoms: N_11  and  C_16
REMARK    5  A    between atoms: C_22  and  C_23
REMARK    6  A    between atoms: C_23  and  N_25
REMARK    7  A    between atoms: C_26  and  C_29
REMARK    8  A    between atoms: C_30  and  O_35
REMARK                            x       y       z     vdW  Elec       q    Type
REMARK                         _______ _______ _______ _____ _____    ______ ____
ROOT
ATOM      1  C   UNL     1      34.273 -21.252 -19.852  0.00  0.00    +0.125 C 
ATOM      2  C   UNL     1      34.297 -18.827 -21.188  0.00  0.00    -0.020 C 
ATOM      3  C   UNL     1      35.485 -20.704 -20.234  0.00  0.00    +0.020 C 
ATOM      4  C   UNL     1      33.073 -20.618 -20.122  0.00  0.00    +0.020 C 
ATOM      5  C   UNL     1      35.497 -19.481 -20.907  0.00  0.00    -0.003 C 
ATOM      6  C   UNL     1      33.085 -19.395 -20.794  0.00  0.00    -0.003 C 
ENDROOT
BRANCH   1   7
ATOM      7  S   UNL     1      34.257 -22.801 -18.999  0.00  0.00    +0.077 S 
ATOM      8  O   UNL     1      35.324 -22.785 -18.016  0.00  0.00    -0.150 OA
ATOM      9  O   UNL     1      34.205 -23.837 -20.011  0.00  0.00    -0.150 OA
BRANCH   7  12
ATOM     10  O   UNL     1      33.463 -23.145 -16.016  0.00  0.00    -0.251 OA
ATOM     11  N   UNL     1      31.218 -22.780 -16.431  0.00  0.00    -0.289 N 
ATOM     12  N   UNL     1      32.749 -22.718 -18.198  0.00  0.00    -0.169 N 
ATOM     13  C   UNL     1      32.545 -22.905 -16.794  0.00  0.00    +0.319 C 
ATOM     14  H   UNL     1      30.554 -22.585 -17.131  0.00  0.00    +0.151 HD
ATOM     15  H   UNL     1      31.956 -22.524 -18.749  0.00  0.00    +0.178 HD
BRANCH  11  16
ATOM     16  C   UNL     1      30.760 -22.921 -15.066  0.00  0.00    +0.073 C 
ATOM     17  C   UNL     1      31.056 -24.326 -14.529  0.00  0.00    +0.020 C 
ATOM     18  C   UNL     1      29.272 -22.582 -14.946  0.00  0.00    +0.020 C 
ATOM     19  C   UNL     1      30.158 -25.392 -15.156  0.00  0.00    +0.002 C 
ATOM     20  C   UNL     1      28.376 -23.651 -15.572  0.00  0.00    +0.002 C 
ATOM     21  C   UNL     1      28.680 -25.038 -15.014  0.00  0.00    +0.000 C 
ENDBRANCH  11  16
ENDBRANCH   7  12
ENDBRANCH   1   7
BRANCH   2  22
ATOM     22  C   UNL     1      34.310 -17.522 -21.909  0.00  0.00    +0.048 C 
BRANCH  22  23
ATOM     23  C   UNL     1      34.953 -16.384 -21.104  0.00  0.00    +0.094 C 
BRANCH  23  25
ATOM     24  O   UNL     1      32.318 -15.667 -20.220  0.00  0.00    -0.270 OA
ATOM     25  N   UNL     1      34.290 -15.126 -21.313  0.00  0.00    -0.300 N 
ATOM     26  C   UNL     1      33.007 -14.867 -20.847  0.00  0.00    +0.249 C 
ATOM     27  H   UNL     1      34.764 -14.418 -21.808  0.00  0.00    +0.150 HD
BRANCH  26  29
ATOM     28 CL   UNL     1      30.976 -10.450 -19.122  0.00  0.00    -0.082 Cl
ATOM     29  C   UNL     1      32.452 -13.527 -21.169  0.00  0.00    +0.088 C 
ATOM     30  C   UNL     1      32.370 -13.116 -22.483  0.00  0.00    +0.143 C 
ATOM     31  C   UNL     1      32.032 -12.730 -20.122  0.00  0.00    +0.019 C 
ATOM     32  C   UNL     1      31.845 -11.855 -22.766  0.00  0.00    +0.038 C 
ATOM     33  C   UNL     1      31.509 -11.468 -20.405  0.00  0.00    +0.058 C 
ATOM     34  C   UNL     1      31.414 -11.031 -21.726  0.00  0.00    +0.015 C 
BRANCH  30  35
ATOM     35  O   UNL     1      32.785 -13.907 -23.514  0.00  0.00    -0.471 OA
ATOM     36  C   UNL     1      33.527 -13.275 -24.555  0.00  0.00    +0.252 C 
ENDBRANCH  30  35
ENDBRANCH  26  29
ENDBRANCH  23  25
ENDBRANCH  22  23
ENDBRANCH   2  22
TORSDOF 8
ENDMDL
MODEL 2
REMARK VINA RESULT:     -12.2      3.115      4.222
REMARK  Name = 3488
REMARK  8 active torsions:
REMARK  status: ('A' for Active; 'I' for Inactive)
REMARK    1  A    between atoms: C_1  and  S_7
REMARK    2  A    between atoms: C_2  and  C_22
REMARK    3  A    between atoms: S_7  and  N_12
REMARK    4  A    between atoms: N_11  and  C_16
REMARK    5  A    between atoms: C_22  and  C_23
REMARK    6  A    between atoms: C_23  and  N_25
REMARK    7  A    between atoms: C_26  and  C_29
REMARK    8  A    between atoms: C_30  and  O_35
REMARK                            x       y       z     vdW  Elec       q    Type
REMARK                         _______ _______ _______ _____ _____    ______ ____
ROOT
ATOM      1  C   UNL     1      34.421 -21.420 -19.517  0.00  0.00    +0.125 C 
ATOM      2  C   UNL     1      35.580 -19.353 -20.949  0.00  0.00    -0.020 C 
ATOM      3  C   UNL     1      35.798 -21.284 -19.512  0.00  0.00    +0.020 C 
ATOM      4  C   UNL     1      33.609 -20.548 -20.221  0.00  0.00    +0.020 C 
ATOM      5  C   UNL     1      36.382 -20.242 -20.233  0.00  0.00    -0.003 C 
ATOM      6  C   UNL     1      34.192 -19.506 -20.941  0.00  0.00    -0.003 C 
ENDROOT
BRANCH   1   7
ATOM      7  S   UNL     1      33.681 -22.741 -18.603  0.00  0.00    +0.077 S 
ATOM      8  O   UNL     1      33.829 -23.961 -19.374  0.00  0.00    -0.150 OA
ATOM      9  O   UNL     1      32.368 -22.284 -18.194  0.00  0.00    -0.150 OA
BRANCH   7  12
ATOM     10  O   UNL     1      33.488 -24.312 -15.931  0.00  0.00    -0.251 OA
ATOM     11  N   UNL     1      35.473 -23.446 -15.121  0.00  0.00    -0.289 N 
ATOM     12  N   UNL     1      34.707 -22.807 -17.236  0.00  0.00    -0.169 N 
ATOM     13  C   UNL     1      34.473 -23.593 -16.063  0.00  0.00    +0.319 C 
ATOM     14  H   UNL     1      36.224 -22.843 -15.321  0.00  0.00    +0.151 HD
ATOM     15  H   UNL     1      35.525 -22.261 -17.260  0.00  0.00    +0.178 HD
BRANCH  11  16
ATOM     16  C   UNL     1      35.465 -24.142 -13.853  0.00  0.00    +0.073 C 
ATOM     17  C   UNL     1      36.092 -23.282 -12.750  0.00  0.00    +0.020 C 
ATOM     18  C   UNL     1      36.165 -25.500 -13.965  0.00  0.00    +0.020 C 
ATOM     19  C   UNL     1      37.608 -23.153 -12.901  0.00  0.00    +0.002 C 
ATOM     20  C   UNL     1      37.680 -25.367 -14.113  0.00  0.00    +0.002 C 
ATOM     21  C   UNL     1      38.283 -24.518 -12.998  0.00  0.00    +0.000 C 
ENDBRANCH  11  16
ENDBRANCH   7  12
ENDBRANCH   1   7
BRANCH   2  22
ATOM     22  C   UNL     1      36.203 -18.240 -21.720  0.00  0.00    +0.048 C 
BRANCH  22  23
ATOM     23  C   UNL     1      35.370 -17.788 -22.927  0.00  0.00    +0.094 C 
BRANCH  23  25
ATOM     24  O   UNL     1      33.827 -16.299 -24.835  0.00  0.00    -0.270 OA
ATOM     25  N   UNL     1      34.788 -16.489 -22.733  0.00  0.00    -0.300 N 
ATOM     26  C   UNL     1      34.053 -15.841 -23.718  0.00  0.00    +0.249 C 
ATOM     27  H   UNL     1      34.915 -16.038 -21.866  0.00  0.00    +0.150 HD
BRANCH  26  29
ATOM     28 CL   UNL     1      34.036 -10.782 -24.726  0.00  0.00    -0.082 Cl
ATOM     29  C   UNL     1      33.541 -14.490 -23.370  0.00  0.00    +0.088 C 
ATOM     30  C   UNL     1      32.654 -14.341 -22.324  0.00  0.00    +0.143 C 
ATOM     31  C   UNL     1      33.979 -13.417 -24.121  0.00  0.00    +0.019 C 
ATOM     32  C   UNL     1      32.184 -13.065 -22.013  0.00  0.00    +0.038 C 
ATOM     33  C   UNL     1      33.508 -12.141 -23.810  0.00  0.00    +0.058 C 
ATOM     34  C   UNL     1      32.612 -11.965 -22.756  0.00  0.00    +0.015 C 
BRANCH  30  35
ATOM     35  O   UNL     1      32.223 -15.404 -21.586  0.00  0.00    -0.471 OA
ATOM     36  C   UNL     1      32.514 -15.381 -20.190  0.00  0.00    +0.252 C 
ENDBRANCH  30  35
ENDBRANCH  26  29
ENDBRANCH  23  25
ENDBRANCH  22  23
ENDBRANCH   2  22
TORSDOF 8
ENDMDL
MODEL 3
REMARK VINA RESULT:     -12.0      1.251      1.604
REMARK  Name = 3488
REMARK  8 active torsions:
REMARK  status: ('A' for Active; 'I' for Inactive)
REMARK    1  A    between atoms: C_1  and  S_7
REMARK    2  A    between atoms: C_2  and  C_22
REMARK    3  A    between atoms: S_7  and  N_12
REMARK    4  A    between atoms: N_11  and  C_16
REMARK    5  A    between atoms: C_22  and  C_23
REMARK    6  A    between atoms: C_23  and  N_25
REMARK    7  A    between atoms: C_26  and  C_29
REMARK    8  A    between atoms: C_30  and  O_35
REMARK                            x       y       z     vdW  Elec       q    Type
REMARK                         _______ _______ _______ _____ _____    ______ ____
ROOT
ATOM      1  C   UNL     1      34.341 -21.334 -19.807  0.00  0.00    +0.125 C 
ATOM      2  C   UNL     1      34.459 -18.994 -21.282  0.00  0.00    -0.020 C 
ATOM      3  C   UNL     1      35.574 -20.844 -20.197  0.00  0.00    +0.020 C 
ATOM      4  C   UNL     1      33.164 -20.683 -20.135  0.00  0.00    +0.020 C 
ATOM      5  C   UNL     1      35.634 -19.665 -20.941  0.00  0.00    -0.003 C 
ATOM      6  C   UNL     1      33.224 -19.503 -20.878  0.00  0.00    -0.003 C 
ENDROOT
BRANCH   1   7
ATOM      7  S   UNL     1      34.265 -22.829 -18.865  0.00  0.00    +0.077 S 
ATOM      8  O   UNL     1      35.301 -22.776 -17.851  0.00  0.00    -0.150 OA
ATOM      9  O   UNL     1      34.220 -23.922 -19.815  0.00  0.00    -0.150 OA
BRANCH   7  12
ATOM     10  O   UNL     1      33.334 -23.196 -15.924  0.00  0.00    -0.251 OA
ATOM     11  N   UNL     1      31.135 -22.674 -16.412  0.00  0.00    -0.289 N 
ATOM     12  N   UNL     1      32.735 -22.668 -18.118  0.00  0.00    -0.169 N 
ATOM     13  C   UNL     1      32.465 -22.876 -16.729  0.00  0.00    +0.319 C 
ATOM     14  H   UNL     1      30.513 -22.419 -17.131  0.00  0.00    +0.151 HD
ATOM     15  H   UNL     1      31.978 -22.409 -18.693  0.00  0.00    +0.178 HD
BRANCH  11  16
ATOM     16  C   UNL     1      30.617 -22.820 -15.069  0.00  0.00    +0.073 C 
ATOM     17  C   UNL     1      30.947 -24.204 -14.499  0.00  0.00    +0.020 C 
ATOM     18  C   UNL     1      29.110 -22.547 -15.028  0.00  0.00    +0.020 C 
ATOM     19  C   UNL     1      30.130 -25.316 -15.155  0.00  0.00    +0.002 C 
ATOM     20  C   UNL     1      28.295 -23.663 -15.682  0.00  0.00    +0.002 C 
ATOM     21  C   UNL     1      28.632 -25.028 -15.090  0.00  0.00    +0.000 C 
ENDBRANCH  11  16
ENDBRANCH   7  12
ENDBRANCH   1   7
BRANCH   2  22
ATOM     22  C   UNL     1      34.523 -17.734 -22.077  0.00  0.00    +0.048 C 
BRANCH  22  23
ATOM     23  C   UNL     1      34.379 -16.465 -21.227  0.00  0.00    +0.094 C 
BRANCH  23  25
ATOM     24  O   UNL     1      32.057 -14.864 -21.754  0.00  0.00    -0.270 OA
ATOM     25  N   UNL     1      34.323 -15.274 -22.030  0.00  0.00    -0.300 N 
ATOM     26  C   UNL     1      33.148 -14.560 -22.230  0.00  0.00    +0.249 C 
ATOM     27  H   UNL     1      35.150 -14.951 -22.456  0.00  0.00    +0.150 HD
BRANCH  26  29
ATOM     28 CL   UNL     1      32.726  -9.442 -22.711  0.00  0.00    -0.082 Cl
ATOM     29  C   UNL     1      33.250 -13.366 -23.109  0.00  0.00    +0.088 C 
ATOM     30  C   UNL     1      33.612 -13.517 -24.431  0.00  0.00    +0.143 C 
ATOM     31  C   UNL     1      32.973 -12.130 -22.558  0.00  0.00    +0.019 C 
ATOM     32  C   UNL     1      33.702 -12.384 -25.240  0.00  0.00    +0.038 C 
ATOM     33  C   UNL     1      33.065 -10.997 -23.367  0.00  0.00    +0.058 C 
ATOM     34  C   UNL     1      33.428 -11.124 -24.708  0.00  0.00    +0.015 C 
BRANCH  30  35
ATOM     35  O   UNL     1      33.883 -14.739 -24.971  0.00  0.00    -0.471 OA
ATOM     36  C   UNL     1      33.112 -15.132 -26.104  0.00  0.00    +0.252 C 
ENDBRANCH  30  35
ENDBRANCH  26  29
ENDBRANCH  23  25
ENDBRANCH  22  23
ENDBRANCH   2  22
TORSDOF 8
ENDMDL
MODEL 4
REMARK VINA RESULT:     -11.9      1.697      2.316
REMARK  Name = 3488
REMARK  8 active torsions:
REMARK  status: ('A' for Active; 'I' for Inactive)
REMARK    1  A    between atoms: C_1  and  S_7
REMARK    2  A    between atoms: C_2  and  C_22
REMARK    3  A    between atoms: S_7  and  N_12
REMARK    4  A    between atoms: N_11  and  C_16
REMARK    5  A    between atoms: C_22  and  C_23
REMARK    6  A    between atoms: C_23  and  N_25
REMARK    7  A    between atoms: C_26  and  C_29
REMARK    8  A    between atoms: C_30  and  O_35
REMARK                            x       y       z     vdW  Elec       q    Type
REMARK                         _______ _______ _______ _____ _____    ______ ____
ROOT
ATOM      1  C   UNL     1      34.454 -20.940 -19.964  0.00  0.00    +0.125 C 
ATOM      2  C   UNL     1      34.503 -18.484 -21.241  0.00  0.00    -0.020 C 
ATOM      3  C   UNL     1      35.673 -20.365 -20.276  0.00  0.00    +0.020 C 
ATOM      4  C   UNL     1      33.258 -20.316 -20.274  0.00  0.00    +0.020 C 
ATOM      5  C   UNL     1      35.698 -19.127 -20.920  0.00  0.00    -0.003 C 
ATOM      6  C   UNL     1      33.282 -19.078 -20.917  0.00  0.00    -0.003 C 
ENDROOT
BRANCH   1   7
ATOM      7  S   UNL     1      34.422 -22.508 -19.149  0.00  0.00    +0.077 S 
ATOM      8  O   UNL     1      35.472 -22.517 -18.148  0.00  0.00    -0.150 OA
ATOM      9  O   UNL     1      34.386 -23.519 -20.186  0.00  0.00    -0.150 OA
BRANCH   7  12
ATOM     10  O   UNL     1      33.321 -23.910 -16.604  0.00  0.00    -0.251 OA
ATOM     11  N   UNL     1      31.244 -22.912 -16.789  0.00  0.00    -0.289 N 
ATOM     12  N   UNL     1      32.900 -22.443 -18.372  0.00  0.00    -0.169 N 
ATOM     13  C   UNL     1      32.543 -23.162 -17.188  0.00  0.00    +0.319 C 
ATOM     14  H   UNL     1      30.697 -22.295 -17.325  0.00  0.00    +0.151 HD
ATOM     15  H   UNL     1      32.214 -21.861 -18.773  0.00  0.00    +0.178 HD
BRANCH  11  16
ATOM     16  C   UNL     1      30.652 -23.519 -15.616  0.00  0.00    +0.073 C 
ATOM     17  C   UNL     1      29.761 -24.705 -16.000  0.00  0.00    +0.020 C 
ATOM     18  C   UNL     1      29.877 -22.485 -14.793  0.00  0.00    +0.020 C 
ATOM     19  C   UNL     1      28.464 -24.266 -16.679  0.00  0.00    +0.002 C 
ATOM     20  C   UNL     1      28.579 -22.050 -15.474  0.00  0.00    +0.002 C 
ATOM     21  C   UNL     1      27.704 -23.246 -15.835  0.00  0.00    +0.000 C 
ENDBRANCH  11  16
ENDBRANCH   7  12
ENDBRANCH   1   7
BRANCH   2  22
ATOM     22  C   UNL     1      34.529 -17.161 -21.929  0.00  0.00    +0.048 C 
BRANCH  22  23
ATOM     23  C   UNL     1      34.690 -15.974 -20.970  0.00  0.00    +0.094 C 
BRANCH  23  25
ATOM     24  O   UNL     1      32.127 -14.926 -21.725  0.00  0.00    -0.270 OA
ATOM     25  N   UNL     1      34.434 -14.714 -21.614  0.00  0.00    -0.300 N 
ATOM     26  C   UNL     1      33.153 -14.287 -21.943  0.00  0.00    +0.249 C 
ATOM     27  H   UNL     1      35.196 -14.129 -21.831  0.00  0.00    +0.150 HD
BRANCH  26  29
ATOM     28 CL   UNL     1      34.689 -11.270 -25.835  0.00  0.00    -0.082 Cl
ATOM     29  C   UNL     1      33.058 -12.973 -22.629  0.00  0.00    +0.088 C 
ATOM     30  C   UNL     1      32.223 -11.996 -22.128  0.00  0.00    +0.143 C 
ATOM     31  C   UNL     1      33.823 -12.775 -23.762  0.00  0.00    +0.019 C 
ATOM     32  C   UNL     1      32.147 -10.769 -22.786  0.00  0.00    +0.038 C 
ATOM     33  C   UNL     1      33.747 -11.548 -24.420  0.00  0.00    +0.058 C 
ATOM     34  C   UNL     1      32.910 -10.544 -23.932  0.00  0.00    +0.015 C 
BRANCH  30  35
ATOM     35  O   UNL     1      31.469 -12.195 -21.010  0.00  0.00    -0.471 OA
ATOM     36  C   UNL     1      31.079 -11.036 -20.277  0.00  0.00    +0.252 C 
ENDBRANCH  30  35
ENDBRANCH  26  29
ENDBRANCH  23  25
ENDBRANCH  22  23
ENDBRANCH   2  22
TORSDOF 8
ENDMDL
MODEL 5
REMARK VINA RESULT:     -11.8      3.240      4.121
REMARK  Name = 3488
REMARK  8 active torsions:
REMARK  status: ('A' for Active; 'I' for Inactive)
REMARK    1  A    between atoms: C_1  and  S_7
REMARK    2  A    between atoms: C_2  and  C_22
REMARK    3  A    between atoms: S_7  and  N_12
REMARK    4  A    between atoms: N_11  and  C_16
REMARK    5  A    between atoms: C_22  and  C_23
REMARK    6  A    between atoms: C_23  and  N_25
REMARK    7  A    between atoms: C_26  and  C_29
REMARK    8  A    between atoms: C_30  and  O_35
REMARK                            x       y       z     vdW  Elec       q    Type
REMARK                         _______ _______ _______ _____ _____    ______ ____
ROOT
ATOM      1  C   UNL     1      33.967 -22.128 -18.779  0.00  0.00    +0.125 C 
ATOM      2  C   UNL     1      34.963 -20.286 -20.591  0.00  0.00    -0.020 C 
ATOM      3  C   UNL     1      35.336 -22.017 -18.946  0.00  0.00    +0.020 C 
ATOM      4  C   UNL     1      33.083 -21.340 -19.496  0.00  0.00    +0.020 C 
ATOM      5  C   UNL     1      35.838 -21.089 -19.860  0.00  0.00    -0.003 C 
ATOM      6  C   UNL     1      33.584 -20.411 -20.408  0.00  0.00    -0.003 C 
ENDROOT
BRANCH   1   7
ATOM      7  S   UNL     1      33.331 -23.304 -17.622  0.00  0.00    +0.077 S 
ATOM      8  O   UNL     1      33.418 -24.621 -18.224  0.00  0.00    -0.150 OA
ATOM      9  O   UNL     1      32.059 -22.789 -17.157  0.00  0.00    -0.150 OA
BRANCH   7  12
ATOM     10  O   UNL     1      33.497 -24.623 -14.815  0.00  0.00    -0.251 OA
ATOM     11  N   UNL     1      35.487 -23.571 -14.288  0.00  0.00    -0.289 N 
ATOM     12  N   UNL     1      34.483 -23.181 -16.364  0.00  0.00    -0.169 N 
ATOM     13  C   UNL     1      34.414 -23.864 -15.109  0.00  0.00    +0.319 C 
ATOM     14  H   UNL     1      36.174 -22.947 -14.615  0.00  0.00    +0.151 HD
ATOM     15  H   UNL     1      35.258 -22.593 -16.518  0.00  0.00    +0.178 HD
BRANCH  11  16
ATOM     16  C   UNL     1      35.645 -24.143 -12.969  0.00  0.00    +0.073 C 
ATOM     17  C   UNL     1      36.325 -23.151 -12.018  0.00  0.00    +0.020 C 
ATOM     18  C   UNL     1      36.410 -25.468 -13.030  0.00  0.00    +0.020 C 
ATOM     19  C   UNL     1      37.808 -22.961 -12.336  0.00  0.00    +0.002 C 
ATOM     20  C   UNL     1      37.893 -25.273 -13.346  0.00  0.00    +0.002 C 
ATOM     21  C   UNL     1      38.551 -24.293 -12.380  0.00  0.00    +0.000 C 
ENDBRANCH  11  16
ENDBRANCH   7  12
ENDBRANCH   1   7
BRANCH   2  22
ATOM     22  C   UNL     1      35.498 -19.295 -21.568  0.00  0.00    +0.048 C 
BRANCH  22  23
ATOM     23  C   UNL     1      35.727 -17.903 -20.965  0.00  0.00    +0.094 C 
BRANCH  23  25
ATOM     24  O   UNL     1      34.928 -15.364 -19.891  0.00  0.00    -0.270 OA
ATOM     25  N   UNL     1      34.972 -16.884 -21.642  0.00  0.00    -0.300 N 
ATOM     26  C   UNL     1      34.629 -15.679 -21.039  0.00  0.00    +0.249 C 
ATOM     27  H   UNL     1      34.684 -17.046 -22.570  0.00  0.00    +0.150 HD
BRANCH  26  29
ATOM     28 CL   UNL     1      31.143 -11.880 -21.184  0.00  0.00    -0.082 Cl
ATOM     29  C   UNL     1      33.822 -14.743 -21.863  0.00  0.00    +0.088 C 
ATOM     30  C   UNL     1      33.936 -14.766 -23.238  0.00  0.00    +0.143 C 
ATOM     31  C   UNL     1      32.975 -13.869 -21.211  0.00  0.00    +0.019 C 
ATOM     32  C   UNL     1      33.170 -13.879 -23.994  0.00  0.00    +0.038 C 
ATOM     33  C   UNL     1      32.210 -12.981 -21.967  0.00  0.00    +0.058 C 
ATOM     34  C   UNL     1      32.307 -12.986 -23.359  0.00  0.00    +0.015 C 
BRANCH  30  35
ATOM     35  O   UNL     1      34.774 -15.630 -23.879  0.00  0.00    -0.471 OA
ATOM     36  C   UNL     1      34.270 -16.274 -25.046  0.00  0.00    +0.252 C 
ENDBRANCH  30  35
ENDBRANCH  26  29
ENDBRANCH  23  25
ENDBRANCH  22  23
ENDBRANCH   2  22
TORSDOF 8
ENDMDL
MODEL 6
REMARK VINA RESULT:     -11.8      3.063      4.089
REMARK  Name = 3488
REMARK  8 active torsions:
REMARK  status: ('A' for Active; 'I' for Inactive)
REMARK    1  A    between atoms: C_1  and  S_7
REMARK    2  A    between atoms: C_2  and  C_22
REMARK    3  A    between atoms: S_7  and  N_12
REMARK    4  A    between atoms: N_11  and  C_16
REMARK    5  A    between atoms: C_22  and  C_23
REMARK    6  A    between atoms: C_23  and  N_25
REMARK    7  A    between atoms: C_26  and  C_29
REMARK    8  A    between atoms: C_30  and  O_35
REMARK                            x       y       z     vdW  Elec       q    Type
REMARK                         _______ _______ _______ _____ _____    ______ ____
ROOT
ATOM      1  C   UNL     1      34.154 -21.418 -19.530  0.00  0.00    +0.125 C 
ATOM      2  C   UNL     1      34.986 -19.260 -21.052  0.00  0.00    -0.020 C 
ATOM      3  C   UNL     1      35.507 -21.218 -19.734  0.00  0.00    +0.020 C 
ATOM      4  C   UNL     1      33.205 -20.566 -20.068  0.00  0.00    +0.020 C 
ATOM      5  C   UNL     1      35.927 -20.130 -20.501  0.00  0.00    -0.003 C 
ATOM      6  C   UNL     1      33.624 -19.478 -20.835  0.00  0.00    -0.003 C 
ENDROOT
BRANCH   1   7
ATOM      7  S   UNL     1      33.622 -22.796 -18.558  0.00  0.00    +0.077 S 
ATOM      8  O   UNL     1      33.855 -24.005 -19.325  0.00  0.00    -0.150 OA
ATOM      9  O   UNL     1      32.294 -22.479 -18.071  0.00  0.00    -0.150 OA
BRANCH   7  12
ATOM     10  O   UNL     1      33.511 -23.923 -15.666  0.00  0.00    -0.251 OA
ATOM     11  N   UNL     1      35.597 -23.090 -15.117  0.00  0.00    -0.289 N 
ATOM     12  N   UNL     1      34.731 -22.728 -17.259  0.00  0.00    -0.169 N 
ATOM     13  C   UNL     1      34.528 -23.305 -15.966  0.00  0.00    +0.319 C 
ATOM     14  H   UNL     1      36.369 -22.581 -15.452  0.00  0.00    +0.151 HD
ATOM     15  H   UNL     1      35.579 -22.252 -17.415  0.00  0.00    +0.178 HD
BRANCH  11  16
ATOM     16  C   UNL     1      35.631 -23.582 -13.757  0.00  0.00    +0.073 C 
ATOM     17  C   UNL     1      36.930 -23.170 -13.055  0.00  0.00    +0.020 C 
ATOM     18  C   UNL     1      35.434 -25.100 -13.714  0.00  0.00    +0.020 C 
ATOM     19  C   UNL     1      38.145 -23.936 -13.579  0.00  0.00    +0.002 C 
ATOM     20  C   UNL     1      36.651 -25.863 -14.236  0.00  0.00    +0.002 C 
ATOM     21  C   UNL     1      37.929 -25.445 -13.515  0.00  0.00    +0.000 C 
ENDBRANCH  11  16
ENDBRANCH   7  12
ENDBRANCH   1   7
BRANCH   2  22
ATOM     22  C   UNL     1      35.434 -18.098 -21.872  0.00  0.00    +0.048 C 
BRANCH  22  23
ATOM     23  C   UNL     1      34.923 -16.748 -21.352  0.00  0.00    +0.094 C 
BRANCH  23  25
ATOM     24  O   UNL     1      32.589 -15.172 -21.907  0.00  0.00    -0.270 OA
ATOM     25  N   UNL     1      34.771 -15.780 -22.404  0.00  0.00    -0.300 N 
ATOM     26  C   UNL     1      33.599 -15.061 -22.598  0.00  0.00    +0.249 C 
ATOM     27  H   UNL     1      35.529 -15.620 -23.013  0.00  0.00    +0.150 HD
BRANCH  26  29
ATOM     28 CL   UNL     1      33.961 -10.189 -24.254  0.00  0.00    -0.082 Cl
ATOM     29  C   UNL     1      33.592 -14.118 -23.747  0.00  0.00    +0.088 C 
ATOM     30  C   UNL     1      33.422 -14.600 -25.028  0.00  0.00    +0.143 C 
ATOM     31  C   UNL     1      33.759 -12.773 -23.483  0.00  0.00    +0.019 C 
ATOM     32  C   UNL     1      33.418 -13.699 -26.093  0.00  0.00    +0.038 C 
ATOM     33  C   UNL     1      33.756 -11.872 -24.549  0.00  0.00    +0.058 C 
ATOM     34  C   UNL     1      33.585 -12.335 -25.854  0.00  0.00    +0.015 C 
BRANCH  30  35
ATOM     35  O   UNL     1      33.257 -15.929 -25.284  0.00  0.00    -0.471 OA
ATOM     36  C   UNL     1      34.439 -16.698 -25.496  0.00  0.00    +0.252 C 
ENDBRANCH  30  35
ENDBRANCH  26  29
ENDBRANCH  23  25
ENDBRANCH  22  23
ENDBRANCH   2  22
TORSDOF 8
ENDMDL
MODEL 7
REMARK VINA RESULT:     -11.6      2.660      3.507
REMARK  Name = 3488
REMARK  8 active torsions:
REMARK  status: ('A' for Active; 'I' for Inactive)
REMARK    1  A    between atoms: C_1  and  S_7
REMARK    2  A    between atoms: C_2  and  C_22
REMARK    3  A    between atoms: S_7  and  N_12
REMARK    4  A    between atoms: N_11  and  C_16
REMARK    5  A    between atoms: C_22  and  C_23
REMARK    6  A    between atoms: C_23  and  N_25
REMARK    7  A    between atoms: C_26  and  C_29
REMARK    8  A    between atoms: C_30  and  O_35
REMARK                            x       y       z     vdW  Elec       q    Type
REMARK                         _______ _______ _______ _____ _____    ______ ____
ROOT
ATOM      1  C   UNL     1      33.858 -21.324 -19.610  0.00  0.00    +0.125 C 
ATOM      2  C   UNL     1      34.339 -19.014 -21.059  0.00  0.00    -0.020 C 
ATOM      3  C   UNL     1      35.164 -20.960 -19.887  0.00  0.00    +0.020 C 
ATOM      4  C   UNL     1      32.786 -20.561 -20.039  0.00  0.00    +0.020 C 
ATOM      5  C   UNL     1      35.407 -19.796 -20.618  0.00  0.00    -0.003 C 
ATOM      6  C   UNL     1      33.028 -19.396 -20.769  0.00  0.00    -0.003 C 
ENDROOT
BRANCH   1   7
ATOM      7  S   UNL     1      33.551 -22.799 -18.684  0.00  0.00    +0.077 S 
ATOM      8  O   UNL     1      33.788 -23.934 -19.554  0.00  0.00    -0.150 OA
ATOM      9  O   UNL     1      32.267 -22.626 -18.034  0.00  0.00    -0.150 OA
BRANCH   7  12
ATOM     10  O   UNL     1      33.797 -23.981 -15.823  0.00  0.00    -0.251 OA
ATOM     11  N   UNL     1      35.901 -23.085 -15.487  0.00  0.00    -0.289 N 
ATOM     12  N   UNL     1      34.793 -22.714 -17.512  0.00  0.00    -0.169 N 
ATOM     13  C   UNL     1      34.753 -23.323 -16.218  0.00  0.00    +0.319 C 
ATOM     14  H   UNL     1      36.615 -22.542 -15.892  0.00  0.00    +0.151 HD
ATOM     15  H   UNL     1      35.603 -22.206 -17.749  0.00  0.00    +0.178 HD
BRANCH  11  16
ATOM     16  C   UNL     1      36.101 -23.600 -14.149  0.00  0.00    +0.073 C 
ATOM     17  C   UNL     1      37.567 -23.468 -13.722  0.00  0.00    +0.020 C 
ATOM     18  C   UNL     1      35.618 -25.049 -14.039  0.00  0.00    +0.020 C 
ATOM     19  C   UNL     1      38.480 -24.449 -14.457  0.00  0.00    +0.002 C 
ATOM     20  C   UNL     1      36.535 -26.029 -14.772  0.00  0.00    +0.002 C 
ATOM     21  C   UNL     1      37.986 -25.887 -14.322  0.00  0.00    +0.000 C 
ENDBRANCH  11  16
ENDBRANCH   7  12
ENDBRANCH   1   7
BRANCH   2  22
ATOM     22  C   UNL     1      34.598 -17.771 -21.841  0.00  0.00    +0.048 C 
BRANCH  22  23
ATOM     23  C   UNL     1      35.116 -16.607 -20.986  0.00  0.00    +0.094 C 
BRANCH  23  25
ATOM     24  O   UNL     1      32.430 -15.840 -20.327  0.00  0.00    -0.270 OA
ATOM     25  N   UNL     1      34.475 -15.362 -21.312  0.00  0.00    -0.300 N 
ATOM     26  C   UNL     1      33.164 -15.077 -20.950  0.00  0.00    +0.249 C 
ATOM     27  H   UNL     1      34.984 -14.684 -21.813  0.00  0.00    +0.150 HD
BRANCH  26  29
ATOM     28 CL   UNL     1      30.855 -10.650 -19.654  0.00  0.00    -0.082 Cl
ATOM     29  C   UNL     1      32.638 -13.758 -21.386  0.00  0.00    +0.088 C 
ATOM     30  C   UNL     1      32.728 -13.387 -22.712  0.00  0.00    +0.143 C 
ATOM     31  C   UNL     1      32.069 -12.938 -20.431  0.00  0.00    +0.019 C 
ATOM     32  C   UNL     1      32.228 -12.145 -23.101  0.00  0.00    +0.038 C 
ATOM     33  C   UNL     1      31.570 -11.695 -20.820  0.00  0.00    +0.058 C 
ATOM     34  C   UNL     1      31.648 -11.299 -22.155  0.00  0.00    +0.015 C 
BRANCH  30  35
ATOM     35  O   UNL     1      33.290 -14.199 -23.652  0.00  0.00    -0.471 OA
ATOM     36  C   UNL     1      33.030 -13.884 -25.017  0.00  0.00    +0.252 C 
ENDBRANCH  30  35
ENDBRANCH  26  29
ENDBRANCH  23  25
ENDBRANCH  22  23
ENDBRANCH   2  22
TORSDOF 8
ENDMDL
MODEL 8
REMARK VINA RESULT:     -11.5      3.123      4.491
REMARK  Name = 3488
REMARK  8 active torsions:
REMARK  status: ('A' for Active; 'I' for Inactive)
REMARK    1  A    between atoms: C_1  and  S_7
REMARK    2  A    between atoms: C_2  and  C_22
REMARK    3  A    between atoms: S_7  and  N_12
REMARK    4  A    between atoms: N_11  and  C_16
REMARK    5  A    between atoms: C_22  and  C_23
REMARK    6  A    between atoms: C_23  and  N_25
REMARK    7  A    between atoms: C_26  and  C_29
REMARK    8  A    between atoms: C_30  and  O_35
REMARK                            x       y       z     vdW  Elec       q    Type
REMARK                         _______ _______ _______ _____ _____    ______ ____
ROOT
ATOM      1  C   UNL     1      35.855 -23.445 -15.520  0.00  0.00    +0.125 C 
ATOM      2  C   UNL     1      36.425 -21.886 -17.736  0.00  0.00    -0.020 C 
ATOM      3  C   UNL     1      37.123 -22.909 -15.661  0.00  0.00    +0.020 C 
ATOM      4  C   UNL     1      34.864 -23.220 -16.459  0.00  0.00    +0.020 C 
ATOM      5  C   UNL     1      37.411 -22.124 -16.778  0.00  0.00    -0.003 C 
ATOM      6  C   UNL     1      35.151 -22.434 -17.576  0.00  0.00    -0.003 C 
ENDROOT
BRANCH   1   7
ATOM      7  S   UNL     1      35.492 -24.440 -14.105  0.00  0.00    +0.077 S 
ATOM      8  O   UNL     1      35.512 -23.584 -12.934  0.00  0.00    -0.150 OA
ATOM      9  O   UNL     1      36.351 -25.605 -14.179  0.00  0.00    -0.150 OA
BRANCH   7  12
ATOM     10  O   UNL     1      32.759 -23.263 -13.213  0.00  0.00    -0.251 OA
ATOM     11  N   UNL     1      31.543 -24.849 -14.376  0.00  0.00    -0.289 N 
ATOM     12  N   UNL     1      33.880 -24.905 -14.437  0.00  0.00    -0.169 N 
ATOM     13  C   UNL     1      32.710 -24.250 -13.941  0.00  0.00    +0.319 C 
ATOM     14  H   UNL     1      31.608 -25.639 -14.959  0.00  0.00    +0.151 HD
ATOM     15  H   UNL     1      33.748 -25.689 -15.019  0.00  0.00    +0.178 HD
BRANCH  11  16
ATOM     16  C   UNL     1      30.229 -24.365 -14.013  0.00  0.00    +0.073 C 
ATOM     17  C   UNL     1      29.132 -25.270 -14.584  0.00  0.00    +0.020 C 
ATOM     18  C   UNL     1      30.035 -22.911 -14.454  0.00  0.00    +0.020 C 
ATOM     19  C   UNL     1      28.989 -25.130 -16.099  0.00  0.00    +0.002 C 
ATOM     20  C   UNL     1      29.890 -22.774 -15.970  0.00  0.00    +0.002 C 
ATOM     21  C   UNL     1      28.785 -23.675 -16.513  0.00  0.00    +0.000 C 
ENDBRANCH  11  16
ENDBRANCH   7  12
ENDBRANCH   1   7
BRANCH   2  22
ATOM     22  C   UNL     1      36.731 -21.047 -18.930  0.00  0.00    +0.048 C 
BRANCH  22  23
ATOM     23  C   UNL     1      35.573 -20.963 -19.934  0.00  0.00    +0.094 C 
BRANCH  23  25
ATOM     24  O   UNL     1      33.175 -19.686 -20.857  0.00  0.00    -0.270 OA
ATOM     25  N   UNL     1      35.473 -19.665 -20.543  0.00  0.00    -0.300 N 
ATOM     26  C   UNL     1      34.263 -19.125 -20.962  0.00  0.00    +0.249 C 
ATOM     27  H   UNL     1      36.294 -19.137 -20.671  0.00  0.00    +0.150 HD
BRANCH  26  29
ATOM     28 CL   UNL     1      33.028 -14.121 -20.749  0.00  0.00    -0.082 Cl
ATOM     29  C   UNL     1      34.330 -17.784 -21.598  0.00  0.00    +0.088 C 
ATOM     30  C   UNL     1      34.987 -17.628 -22.801  0.00  0.00    +0.143 C 
ATOM     31  C   UNL     1      33.723 -16.727 -20.950  0.00  0.00    +0.019 C 
ATOM     32  C   UNL     1      35.040 -16.362 -23.383  0.00  0.00    +0.038 C 
ATOM     33  C   UNL     1      33.776 -15.460 -21.532  0.00  0.00    +0.058 C 
ATOM     34  C   UNL     1      34.434 -15.277 -22.748  0.00  0.00    +0.015 C 
BRANCH  30  35
ATOM     35  O   UNL     1      35.586 -18.675 -23.438  0.00  0.00    -0.471 OA
ATOM     36  C   UNL     1      34.879 -19.257 -24.531  0.00  0.00    +0.252 C 
ENDBRANCH  30  35
ENDBRANCH  26  29
ENDBRANCH  23  25
ENDBRANCH  22  23
ENDBRANCH   2  22
TORSDOF 8
ENDMDL
MODEL 9
REMARK VINA RESULT:     -11.3      2.162      2.904
REMARK  Name = 3488
REMARK  8 active torsions:
REMARK  status: ('A' for Active; 'I' for Inactive)
REMARK    1  A    between atoms: C_1  and  S_7
REMARK    2  A    between atoms: C_2  and  C_22
REMARK    3  A    between atoms: S_7  and  N_12
REMARK    4  A    between atoms: N_11  and  C_16
REMARK    5  A    between atoms: C_22  and  C_23
REMARK    6  A    between atoms: C_23  and  N_25
REMARK    7  A    between atoms: C_26  and  C_29
REMARK    8  A    between atoms: C_30  and  O_35
REMARK                            x       y       z     vdW  Elec       q    Type
REMARK                         _______ _______ _______ _____ _____    ______ ____
ROOT
ATOM      1  C   UNL     1      35.147 -22.432 -17.425  0.00  0.00    +0.125 C 
ATOM      2  C   UNL     1      35.206 -21.037 -19.816  0.00  0.00    -0.020 C 
ATOM      3  C   UNL     1      36.320 -21.810 -17.815  0.00  0.00    +0.020 C 
ATOM      4  C   UNL     1      34.002 -22.373 -18.201  0.00  0.00    +0.020 C 
ATOM      5  C   UNL     1      36.350 -21.107 -19.021  0.00  0.00    -0.003 C 
ATOM      6  C   UNL     1      34.031 -21.670 -19.406  0.00  0.00    -0.003 C 
ENDROOT
BRANCH   1   7
ATOM      7  S   UNL     1      35.109 -23.323 -15.899  0.00  0.00    +0.077 S 
ATOM      8  O   UNL     1      35.211 -22.364 -14.815  0.00  0.00    -0.150 OA
ATOM      9  O   UNL     1      36.069 -24.402 -16.019  0.00  0.00    -0.150 OA
BRANCH   7  12
ATOM     10  O   UNL     1      32.525 -22.588 -14.340  0.00  0.00    -0.251 OA
ATOM     11  N   UNL     1      31.268 -24.223 -15.384  0.00  0.00    -0.289 N 
ATOM     12  N   UNL     1      33.526 -23.968 -15.935  0.00  0.00    -0.169 N 
ATOM     13  C   UNL     1      32.427 -23.512 -15.141  0.00  0.00    +0.319 C 
ATOM     14  H   UNL     1      31.291 -24.950 -16.047  0.00  0.00    +0.151 HD
ATOM     15  H   UNL     1      33.357 -24.714 -16.556  0.00  0.00    +0.178 HD
BRANCH  11  16
ATOM     16  C   UNL     1      30.020 -23.946 -14.706  0.00  0.00    +0.073 C 
ATOM     17  C   UNL     1      28.944 -24.967 -15.095  0.00  0.00    +0.020 C 
ATOM     18  C   UNL     1      29.550 -22.514 -14.979  0.00  0.00    +0.020 C 
ATOM     19  C   UNL     1      28.446 -24.775 -16.526  0.00  0.00    +0.002 C 
ATOM     20  C   UNL     1      29.050 -22.325 -16.412  0.00  0.00    +0.002 C 
ATOM     21  C   UNL     1      27.973 -23.344 -16.771  0.00  0.00    +0.000 C 
ENDBRANCH  11  16
ENDBRANCH   7  12
ENDBRANCH   1   7
BRANCH   2  22
ATOM     22  C   UNL     1      35.238 -20.287 -21.105  0.00  0.00    +0.048 C 
BRANCH  22  23
ATOM     23  C   UNL     1      35.944 -18.928 -21.006  0.00  0.00    +0.094 C 
BRANCH  23  25
ATOM     24  O   UNL     1      35.228 -16.327 -20.028  0.00  0.00    -0.270 OA
ATOM     25  N   UNL     1      35.253 -17.899 -21.732  0.00  0.00    -0.300 N 
ATOM     26  C   UNL     1      34.946 -16.664 -21.175  0.00  0.00    +0.249 C 
ATOM     27  H   UNL     1      34.984 -18.076 -22.664  0.00  0.00    +0.150 HD
BRANCH  26  29
ATOM     28 CL   UNL     1      31.737 -12.641 -21.523  0.00  0.00    -0.082 Cl
ATOM     29  C   UNL     1      34.204 -15.718 -22.048  0.00  0.00    +0.088 C 
ATOM     30  C   UNL     1      34.309 -15.824 -23.420  0.00  0.00    +0.143 C 
ATOM     31  C   UNL     1      33.423 -14.753 -21.444  0.00  0.00    +0.019 C 
ATOM     32  C   UNL     1      33.605 -14.927 -24.223  0.00  0.00    +0.038 C 
ATOM     33  C   UNL     1      32.719 -13.855 -22.247  0.00  0.00    +0.058 C 
ATOM     34  C   UNL     1      32.809 -13.943 -23.636  0.00  0.00    +0.015 C 
BRANCH  30  35
ATOM     35  O   UNL     1      35.081 -16.779 -24.013  0.00  0.00    -0.471 OA
ATOM     36  C   UNL     1      34.577 -17.366 -25.210  0.00  0.00    +0.252 C 
ENDBRANCH  30  35
ENDBRANCH  26  29
ENDBRANCH  23  25
ENDBRANCH  22  23
ENDBRANCH   2  22
TORSDOF 8
ENDMDL
