MODEL 1
REMARK VINA RESULT:      -8.1      0.000      0.000
REMARK  Name = 2081
REMARK  6 active torsions:
REMARK  status: ('A' for Active; 'I' for Inactive)
REMARK    1  A    between atoms: C_1  and  O_4
REMARK    2  A    between atoms: C_1  and  C_13
REMARK    3  A    between atoms: O_4  and  C_6
REMARK    4  A    between atoms: C_6  and  C_7
REMARK    5  A    between atoms: C_7  and  N_9
REMARK    6  A    between atoms: C_13  and  C_15
REMARK                            x       y       z     vdW  Elec       q    Type
REMARK                         _______ _______ _______ _____ _____    ______ ____
ROOT
ATOM      1  C   UNL     1      35.254 -17.925 -23.001  0.00  0.00    +0.140 C 
ATOM      2  C   UNL     1      34.544 -18.790 -24.050  0.00  0.00    +0.044 C 
ATOM      3  C   UNL     1      36.656 -18.482 -22.736  0.00  0.00    +0.044 C 
ENDROOT
BRANCH   1   4
ATOM      4  O   UNL     1      35.378 -16.608 -23.546  0.00  0.00    -0.457 OA
BRANCH   4   6
ATOM      5  O   UNL     1      34.851 -16.887 -25.772  0.00  0.00    -0.252 OA
ATOM      6  C   UNL     1      34.654 -16.368 -24.682  0.00  0.00    +0.296 C 
BRANCH   6   7
ATOM      7  C   UNL     1      33.572 -15.349 -24.376  0.00  0.00    +0.036 C 
ATOM      8  C   UNL     1      34.094 -14.277 -23.430  0.00  0.00    -0.013 C 
BRANCH   7   9
ATOM      9  N   UNL     1      33.154 -14.737 -25.636  0.00  0.00    +0.389 N 
ATOM     10  H   UNL     1      32.984 -15.466 -26.329  0.00  0.00    -0.088 HD
ATOM     11  H   UNL     1      33.889 -14.115 -25.972  0.00  0.00    -0.088 HD
ATOM     12  H   UNL     1      32.298 -14.203 -25.486  0.00  0.00    -0.088 HD
ENDBRANCH   7   9
ENDBRANCH   6   7
ENDBRANCH   4   6
ENDBRANCH   1   4
BRANCH   1  13
ATOM     13  C   UNL     1      34.381 -17.855 -21.728  0.00  0.00    +0.066 C 
BRANCH  13  15
ATOM     14 CL   UNL     1      33.796 -23.022 -18.731  0.00  0.00    -0.082 Cl
ATOM     15  C   UNL     1      34.234 -19.156 -20.973  0.00  0.00    -0.019 C 
ATOM     16  C   UNL     1      35.369 -19.849 -20.589  0.00  0.00    -0.003 C 
ATOM     17  C   UNL     1      32.965 -19.629 -20.679  0.00  0.00    -0.003 C 
ATOM     18  C   UNL     1      35.233 -21.050 -19.893  0.00  0.00    +0.011 C 
ATOM     19  C   UNL     1      32.830 -20.829 -19.982  0.00  0.00    +0.011 C 
ATOM     20  C   UNL     1      33.964 -21.540 -19.589  0.00  0.00    +0.058 C 
ENDBRANCH  13  15
ENDBRANCH   1  13
TORSDOF 6
ENDMDL
MODEL 2
REMARK VINA RESULT:      -7.9      1.729      2.685
REMARK  Name = 2081
REMARK  6 active torsions:
REMARK  status: ('A' for Active; 'I' for Inactive)
REMARK    1  A    between atoms: C_1  and  O_4
REMARK    2  A    between atoms: C_1  and  C_13
REMARK    3  A    between atoms: O_4  and  C_6
REMARK    4  A    between atoms: C_6  and  C_7
REMARK    5  A    between atoms: C_7  and  N_9
REMARK    6  A    between atoms: C_13  and  C_15
REMARK                            x       y       z     vdW  Elec       q    Type
REMARK                         _______ _______ _______ _____ _____    ______ ____
ROOT
ATOM      1  C   UNL     1      34.161 -16.077 -21.617  0.00  0.00    +0.140 C 
ATOM      2  C   UNL     1      34.928 -16.037 -20.289  0.00  0.00    +0.044 C 
ATOM      3  C   UNL     1      32.662 -15.909 -21.353  0.00  0.00    +0.044 C 
ENDROOT
BRANCH   1   4
ATOM      4  O   UNL     1      34.615 -14.973 -22.406  0.00  0.00    -0.457 OA
BRANCH   4   6
ATOM      5  O   UNL     1      33.369 -15.270 -24.322  0.00  0.00    -0.252 OA
ATOM      6  C   UNL     1      33.766 -14.570 -23.400  0.00  0.00    +0.296 C 
BRANCH   6   7
ATOM      7  C   UNL     1      33.400 -13.113 -23.182  0.00  0.00    +0.036 C 
ATOM      8  C   UNL     1      33.763 -12.279 -24.403  0.00  0.00    -0.013 C 
BRANCH   7   9
ATOM      9  N   UNL     1      31.960 -13.036 -22.941  0.00  0.00    +0.389 N 
ATOM     10  H   UNL     1      31.767 -12.294 -22.268  0.00  0.00    -0.088 HD
ATOM     11  H   UNL     1      31.630 -13.927 -22.569  0.00  0.00    -0.088 HD
ATOM     12  H   UNL     1      31.479 -12.834 -23.818  0.00  0.00    -0.088 HD
ENDBRANCH   7   9
ENDBRANCH   6   7
ENDBRANCH   4   6
ENDBRANCH   1   4
BRANCH   1  13
ATOM     13  C   UNL     1      34.500 -17.390 -22.359  0.00  0.00    +0.066 C 
BRANCH  13  15
ATOM     14 CL   UNL     1      34.589 -22.319 -18.936  0.00  0.00    -0.082 Cl
ATOM     15  C   UNL     1      34.522 -18.631 -21.497  0.00  0.00    -0.019 C 
ATOM     16  C   UNL     1      33.325 -19.191 -21.083  0.00  0.00    -0.003 C 
ATOM     17  C   UNL     1      35.740 -19.185 -21.138  0.00  0.00    -0.003 C 
ATOM     18  C   UNL     1      33.346 -20.336 -20.288  0.00  0.00    +0.011 C 
ATOM     19  C   UNL     1      35.760 -20.331 -20.343  0.00  0.00    +0.011 C 
ATOM     20  C   UNL     1      34.563 -20.907 -19.918  0.00  0.00    +0.058 C 
ENDBRANCH  13  15
ENDBRANCH   1  13
TORSDOF 6
ENDMDL
MODEL 3
REMARK VINA RESULT:      -7.9      0.782      1.644
REMARK  Name = 2081
REMARK  6 active torsions:
REMARK  status: ('A' for Active; 'I' for Inactive)
REMARK    1  A    between atoms: C_1  and  O_4
REMARK    2  A    between atoms: C_1  and  C_13
REMARK    3  A    between atoms: O_4  and  C_6
REMARK    4  A    between atoms: C_6  and  C_7
REMARK    5  A    between atoms: C_7  and  N_9
REMARK    6  A    between atoms: C_13  and  C_15
REMARK                            x       y       z     vdW  Elec       q    Type
REMARK                         _______ _______ _______ _____ _____    ______ ____
ROOT
ATOM      1  C   UNL     1      35.275 -18.147 -22.987  0.00  0.00    +0.140 C 
ATOM      2  C   UNL     1      34.857 -19.292 -23.918  0.00  0.00    +0.044 C 
ATOM      3  C   UNL     1      36.720 -18.358 -22.526  0.00  0.00    +0.044 C 
ENDROOT
BRANCH   1   4
ATOM      4  O   UNL     1      35.207 -16.934 -23.744  0.00  0.00    -0.457 OA
BRANCH   4   6
ATOM      5  O   UNL     1      35.151 -15.435 -21.995  0.00  0.00    -0.252 OA
ATOM      6  C   UNL     1      34.733 -15.843 -23.070  0.00  0.00    +0.296 C 
BRANCH   6   7
ATOM      7  C   UNL     1      33.597 -15.223 -23.863  0.00  0.00    +0.036 C 
ATOM      8  C   UNL     1      33.704 -13.704 -23.858  0.00  0.00    -0.013 C 
BRANCH   7   9
ATOM      9  N   UNL     1      33.676 -15.719 -25.236  0.00  0.00    +0.389 N 
ATOM     10  H   UNL     1      34.604 -16.107 -25.404  0.00  0.00    -0.088 HD
ATOM     11  H   UNL     1      33.505 -14.951 -25.885  0.00  0.00    -0.088 HD
ATOM     12  H   UNL     1      32.972 -16.446 -25.375  0.00  0.00    -0.088 HD
ENDBRANCH   7   9
ENDBRANCH   6   7
ENDBRANCH   4   6
ENDBRANCH   1   4
BRANCH   1  13
ATOM     13  C   UNL     1      34.273 -18.055 -21.814  0.00  0.00    +0.066 C 
BRANCH  13  15
ATOM     14 CL   UNL     1      33.734 -23.034 -18.505  0.00  0.00    -0.082 Cl
ATOM     15  C   UNL     1      34.138 -19.309 -20.981  0.00  0.00    -0.019 C 
ATOM     16  C   UNL     1      32.874 -19.766 -20.645  0.00  0.00    -0.003 C 
ATOM     17  C   UNL     1      35.280 -19.977 -20.571  0.00  0.00    -0.003 C 
ATOM     18  C   UNL     1      32.749 -20.923 -19.876  0.00  0.00    +0.011 C 
ATOM     19  C   UNL     1      35.154 -21.134 -19.802  0.00  0.00    +0.011 C 
ATOM     20  C   UNL     1      33.889 -21.607 -19.455  0.00  0.00    +0.058 C 
ENDBRANCH  13  15
ENDBRANCH   1  13
TORSDOF 6
ENDMDL
MODEL 4
REMARK VINA RESULT:      -7.5      1.808      2.456
REMARK  Name = 2081
REMARK  6 active torsions:
REMARK  status: ('A' for Active; 'I' for Inactive)
REMARK    1  A    between atoms: C_1  and  O_4
REMARK    2  A    between atoms: C_1  and  C_13
REMARK    3  A    between atoms: O_4  and  C_6
REMARK    4  A    between atoms: C_6  and  C_7
REMARK    5  A    between atoms: C_7  and  N_9
REMARK    6  A    between atoms: C_13  and  C_15
REMARK                            x       y       z     vdW  Elec       q    Type
REMARK                         _______ _______ _______ _____ _____    ______ ____
ROOT
ATOM      1  C   UNL     1      34.905 -18.395 -22.036  0.00  0.00    +0.140 C 
ATOM      2  C   UNL     1      33.559 -18.342 -21.302  0.00  0.00    +0.044 C 
ATOM      3  C   UNL     1      34.711 -19.005 -23.427  0.00  0.00    +0.044 C 
ENDROOT
BRANCH   1   4
ATOM      4  O   UNL     1      35.363 -17.047 -22.186  0.00  0.00    -0.457 OA
BRANCH   4   6
ATOM      5  O   UNL     1      35.044 -16.037 -20.140  0.00  0.00    -0.252 OA
ATOM      6  C   UNL     1      34.802 -16.135 -21.335  0.00  0.00    +0.296 C 
BRANCH   6   7
ATOM      7  C   UNL     1      33.823 -15.269 -22.107  0.00  0.00    +0.036 C 
ATOM      8  C   UNL     1      32.708 -14.775 -21.197  0.00  0.00    -0.013 C 
BRANCH   7   9
ATOM      9  N   UNL     1      34.558 -14.130 -22.654  0.00  0.00    +0.389 N 
ATOM     10  H   UNL     1      33.937 -13.578 -23.247  0.00  0.00    -0.088 HD
ATOM     11  H   UNL     1      35.345 -14.467 -23.208  0.00  0.00    -0.088 HD
ATOM     12  H   UNL     1      34.902 -13.549 -21.889  0.00  0.00    -0.088 HD
ENDBRANCH   7   9
ENDBRANCH   6   7
ENDBRANCH   4   6
ENDBRANCH   1   4
BRANCH   1  13
ATOM     13  C   UNL     1      35.923 -19.172 -21.172  0.00  0.00    +0.066 C 
BRANCH  13  15
ATOM     14 CL   UNL     1      33.594 -23.501 -17.728  0.00  0.00    -0.082 Cl
ATOM     15  C   UNL     1      35.337 -20.261 -20.305  0.00  0.00    -0.019 C 
ATOM     16  C   UNL     1      36.174 -20.999 -19.485  0.00  0.00    -0.003 C 
ATOM     17  C   UNL     1      33.973 -20.500 -20.347  0.00  0.00    -0.003 C 
ATOM     18  C   UNL     1      35.633 -22.005 -18.685  0.00  0.00    +0.011 C 
ATOM     19  C   UNL     1      33.432 -21.506 -19.546  0.00  0.00    +0.011 C 
ATOM     20  C   UNL     1      34.261 -22.258 -18.715  0.00  0.00    +0.058 C 
ENDBRANCH  13  15
ENDBRANCH   1  13
TORSDOF 6
ENDMDL
MODEL 5
REMARK VINA RESULT:      -7.5      4.138      6.408
REMARK  Name = 2081
REMARK  6 active torsions:
REMARK  status: ('A' for Active; 'I' for Inactive)
REMARK    1  A    between atoms: C_1  and  O_4
REMARK    2  A    between atoms: C_1  and  C_13
REMARK    3  A    between atoms: O_4  and  C_6
REMARK    4  A    between atoms: C_6  and  C_7
REMARK    5  A    between atoms: C_7  and  N_9
REMARK    6  A    between atoms: C_13  and  C_15
REMARK                            x       y       z     vdW  Elec       q    Type
REMARK                         _______ _______ _______ _____ _____    ______ ____
ROOT
ATOM      1  C   UNL     1      34.837 -19.319 -21.773  0.00  0.00    +0.140 C 
ATOM      2  C   UNL     1      34.590 -19.403 -23.285  0.00  0.00    +0.044 C 
ATOM      3  C   UNL     1      33.497 -19.310 -21.031  0.00  0.00    +0.044 C 
ENDROOT
BRANCH   1   4
ATOM      4  O   UNL     1      35.564 -20.491 -21.393  0.00  0.00    -0.457 OA
BRANCH   4   6
ATOM      5  O   UNL     1      36.838 -19.519 -19.737  0.00  0.00    -0.252 OA
ATOM      6  C   UNL     1      36.158 -20.444 -20.162  0.00  0.00    +0.296 C 
BRANCH   6   7
ATOM      7  C   UNL     1      35.849 -21.725 -19.410  0.00  0.00    +0.036 C 
ATOM      8  C   UNL     1      36.574 -21.751 -18.071  0.00  0.00    -0.013 C 
BRANCH   7   9
ATOM      9  N   UNL     1      34.404 -21.787 -19.191  0.00  0.00    +0.389 N 
ATOM     10  H   UNL     1      33.923 -21.335 -19.969  0.00  0.00    -0.088 HD
ATOM     11  H   UNL     1      34.171 -21.308 -18.322  0.00  0.00    -0.088 HD
ATOM     12  H   UNL     1      34.112 -22.763 -19.132  0.00  0.00    -0.088 HD
ENDBRANCH   7   9
ENDBRANCH   6   7
ENDBRANCH   4   6
ENDBRANCH   1   4
BRANCH   1  13
ATOM     13  C   UNL     1      35.704 -18.077 -21.469  0.00  0.00    +0.066 C 
BRANCH  13  15
ATOM     14 CL   UNL     1      33.212 -12.802 -22.880  0.00  0.00    -0.082 Cl
ATOM     15  C   UNL     1      35.077 -16.748 -21.824  0.00  0.00    -0.019 C 
ATOM     16  C   UNL     1      34.519 -15.973 -20.822  0.00  0.00    -0.003 C 
ATOM     17  C   UNL     1      35.073 -16.332 -23.146  0.00  0.00    -0.003 C 
ATOM     18  C   UNL     1      33.939 -14.747 -21.150  0.00  0.00    +0.011 C 
ATOM     19  C   UNL     1      34.494 -15.107 -23.473  0.00  0.00    +0.011 C 
ATOM     20  C   UNL     1      33.928 -14.313 -22.475  0.00  0.00    +0.058 C 
ENDBRANCH  13  15
ENDBRANCH   1  13
TORSDOF 6
ENDMDL
MODEL 6
REMARK VINA RESULT:      -7.4      3.610      5.900
REMARK  Name = 2081
REMARK  6 active torsions:
REMARK  status: ('A' for Active; 'I' for Inactive)
REMARK    1  A    between atoms: C_1  and  O_4
REMARK    2  A    between atoms: C_1  and  C_13
REMARK    3  A    between atoms: O_4  and  C_6
REMARK    4  A    between atoms: C_6  and  C_7
REMARK    5  A    between atoms: C_7  and  N_9
REMARK    6  A    between atoms: C_13  and  C_15
REMARK                            x       y       z     vdW  Elec       q    Type
REMARK                         _______ _______ _______ _____ _____    ______ ____
ROOT
ATOM      1  C   UNL     1      34.918 -17.945 -23.333  0.00  0.00    +0.140 C 
ATOM      2  C   UNL     1      36.125 -18.877 -23.171  0.00  0.00    +0.044 C 
ATOM      3  C   UNL     1      34.141 -18.321 -24.599  0.00  0.00    +0.044 C 
ENDROOT
BRANCH   1   4
ATOM      4  O   UNL     1      34.069 -18.142 -22.198  0.00  0.00    -0.457 OA
BRANCH   4   6
ATOM      5  O   UNL     1      35.569 -18.369 -20.463  0.00  0.00    -0.252 OA
ATOM      6  C   UNL     1      34.642 -18.793 -21.140  0.00  0.00    +0.296 C 
BRANCH   6   7
ATOM      7  C   UNL     1      33.949 -20.129 -20.942  0.00  0.00    +0.036 C 
ATOM      8  C   UNL     1      34.694 -20.975 -19.919  0.00  0.00    -0.013 C 
BRANCH   7   9
ATOM      9  N   UNL     1      32.588 -19.872 -20.475  0.00  0.00    +0.389 N 
ATOM     10  H   UNL     1      32.591 -19.771 -19.460  0.00  0.00    -0.088 HD
ATOM     11  H   UNL     1      31.986 -20.652 -20.737  0.00  0.00    -0.088 HD
ATOM     12  H   UNL     1      32.240 -19.013 -20.901  0.00  0.00    -0.088 HD
ENDBRANCH   7   9
ENDBRANCH   6   7
ENDBRANCH   4   6
ENDBRANCH   1   4
BRANCH   1  13
ATOM     13  C   UNL     1      35.406 -16.479 -23.339  0.00  0.00    +0.066 C 
BRANCH  13  15
ATOM     14 CL   UNL     1      31.510 -12.471 -21.154  0.00  0.00    -0.082 Cl
ATOM     15  C   UNL     1      34.425 -15.469 -22.789  0.00  0.00    -0.019 C 
ATOM     16  C   UNL     1      34.424 -15.195 -21.431  0.00  0.00    -0.003 C 
ATOM     17  C   UNL     1      33.547 -14.837 -23.653  0.00  0.00    -0.003 C 
ATOM     18  C   UNL     1      33.519 -14.264 -20.923  0.00  0.00    +0.011 C 
ATOM     19  C   UNL     1      32.642 -13.906 -23.145  0.00  0.00    +0.011 C 
ATOM     20  C   UNL     1      32.628 -13.619 -21.780  0.00  0.00    +0.058 C 
ENDBRANCH  13  15
ENDBRANCH   1  13
TORSDOF 6
ENDMDL
MODEL 7
REMARK VINA RESULT:      -7.4      4.682      7.593
REMARK  Name = 2081
REMARK  6 active torsions:
REMARK  status: ('A' for Active; 'I' for Inactive)
REMARK    1  A    between atoms: C_1  and  O_4
REMARK    2  A    between atoms: C_1  and  C_13
REMARK    3  A    between atoms: O_4  and  C_6
REMARK    4  A    between atoms: C_6  and  C_7
REMARK    5  A    between atoms: C_7  and  N_9
REMARK    6  A    between atoms: C_13  and  C_15
REMARK                            x       y       z     vdW  Elec       q    Type
REMARK                         _______ _______ _______ _____ _____    ______ ____
ROOT
ATOM      1  C   UNL     1      33.596 -15.306 -21.905  0.00  0.00    +0.140 C 
ATOM      2  C   UNL     1      32.506 -15.727 -20.912  0.00  0.00    +0.044 C 
ATOM      3  C   UNL     1      34.585 -14.360 -21.217  0.00  0.00    +0.044 C 
ENDROOT
BRANCH   1   4
ATOM      4  O   UNL     1      34.294 -16.491 -22.301  0.00  0.00    -0.457 OA
BRANCH   4   6
ATOM      5  O   UNL     1      35.397 -16.880 -20.316  0.00  0.00    -0.252 OA
ATOM      6  C   UNL     1      34.753 -17.275 -21.278  0.00  0.00    +0.296 C 
BRANCH   6   7
ATOM      7  C   UNL     1      34.344 -18.714 -21.531  0.00  0.00    +0.036 C 
ATOM      8  C   UNL     1      34.667 -19.122 -22.962  0.00  0.00    -0.013 C 
BRANCH   7   9
ATOM      9  N   UNL     1      35.076 -19.567 -20.596  0.00  0.00    +0.389 N 
ATOM     10  H   UNL     1      34.419 -20.004 -19.949  0.00  0.00    -0.088 HD
ATOM     11  H   UNL     1      35.744 -19.002 -20.073  0.00  0.00    -0.088 HD
ATOM     12  H   UNL     1      35.573 -20.291 -21.116  0.00  0.00    -0.088 HD
ENDBRANCH   7   9
ENDBRANCH   6   7
ENDBRANCH   4   6
ENDBRANCH   1   4
BRANCH   1  13
ATOM     13  C   UNL     1      32.932 -14.682 -23.153  0.00  0.00    +0.066 C 
BRANCH  13  15
ATOM     14 CL   UNL     1      32.715  -8.684 -23.216  0.00  0.00    -0.082 Cl
ATOM     15  C   UNL     1      32.877 -13.172 -23.168  0.00  0.00    -0.019 C 
ATOM     16  C   UNL     1      31.995 -12.516 -22.325  0.00  0.00    -0.003 C 
ATOM     17  C   UNL     1      33.712 -12.472 -24.025  0.00  0.00    -0.003 C 
ATOM     18  C   UNL     1      31.945 -11.123 -22.340  0.00  0.00    +0.011 C 
ATOM     19  C   UNL     1      33.661 -11.079 -24.039  0.00  0.00    +0.011 C 
ATOM     20  C   UNL     1      32.778 -10.403 -23.197  0.00  0.00    +0.058 C 
ENDBRANCH  13  15
ENDBRANCH   1  13
TORSDOF 6
ENDMDL
MODEL 8
REMARK VINA RESULT:      -7.4      6.707      9.500
REMARK  Name = 2081
REMARK  6 active torsions:
REMARK  status: ('A' for Active; 'I' for Inactive)
REMARK    1  A    between atoms: C_1  and  O_4
REMARK    2  A    between atoms: C_1  and  C_13
REMARK    3  A    between atoms: O_4  and  C_6
REMARK    4  A    between atoms: C_6  and  C_7
REMARK    5  A    between atoms: C_7  and  N_9
REMARK    6  A    between atoms: C_13  and  C_15
REMARK                            x       y       z     vdW  Elec       q    Type
REMARK                         _______ _______ _______ _____ _____    ______ ____
ROOT
ATOM      1  C   UNL     1      34.376 -23.404 -16.522  0.00  0.00    +0.140 C 
ATOM      2  C   UNL     1      33.228 -22.931 -15.621  0.00  0.00    +0.044 C 
ATOM      3  C   UNL     1      35.557 -22.435 -16.406  0.00  0.00    +0.044 C 
ENDROOT
BRANCH   1   4
ATOM      4  O   UNL     1      34.789 -24.690 -16.050  0.00  0.00    -0.457 OA
BRANCH   4   6
ATOM      5  O   UNL     1      35.061 -24.087 -13.842  0.00  0.00    -0.252 OA
ATOM      6  C   UNL     1      35.425 -24.697 -14.839  0.00  0.00    +0.296 C 
BRANCH   6   7
ATOM      7  C   UNL     1      36.660 -25.575 -14.929  0.00  0.00    +0.036 C 
ATOM      8  C   UNL     1      37.412 -25.583 -13.606  0.00  0.00    -0.013 C 
BRANCH   7   9
ATOM      9  N   UNL     1      36.230 -26.932 -15.263  0.00  0.00    +0.389 N 
ATOM     10  H   UNL     1      35.314 -26.898 -15.710  0.00  0.00    -0.088 HD
ATOM     11  H   UNL     1      36.171 -27.489 -14.410  0.00  0.00    -0.088 HD
ATOM     12  H   UNL     1      36.905 -27.355 -15.900  0.00  0.00    -0.088 HD
ENDBRANCH   7   9
ENDBRANCH   6   7
ENDBRANCH   4   6
ENDBRANCH   1   4
BRANCH   1  13
ATOM     13  C   UNL     1      33.856 -23.551 -17.970  0.00  0.00    +0.066 C 
BRANCH  13  15
ATOM     14 CL   UNL     1      34.744 -18.789 -21.514  0.00  0.00    -0.082 Cl
ATOM     15  C   UNL     1      34.080 -22.351 -18.862  0.00  0.00    -0.019 C 
ATOM     16  C   UNL     1      33.001 -21.557 -19.213  0.00  0.00    -0.003 C 
ATOM     17  C   UNL     1      35.360 -22.070 -19.310  0.00  0.00    -0.003 C 
ATOM     18  C   UNL     1      33.207 -20.451 -20.037  0.00  0.00    +0.011 C 
ATOM     19  C   UNL     1      35.565 -20.963 -20.134  0.00  0.00    +0.011 C 
ATOM     20  C   UNL     1      34.490 -20.153 -20.497  0.00  0.00    +0.058 C 
ENDBRANCH  13  15
ENDBRANCH   1  13
TORSDOF 6
ENDMDL
MODEL 9
REMARK VINA RESULT:      -7.4      4.677      7.533
REMARK  Name = 2081
REMARK  6 active torsions:
REMARK  status: ('A' for Active; 'I' for Inactive)
REMARK    1  A    between atoms: C_1  and  O_4
REMARK    2  A    between atoms: C_1  and  C_13
REMARK    3  A    between atoms: O_4  and  C_6
REMARK    4  A    between atoms: C_6  and  C_7
REMARK    5  A    between atoms: C_7  and  N_9
REMARK    6  A    between atoms: C_13  and  C_15
REMARK                            x       y       z     vdW  Elec       q    Type
REMARK                         _______ _______ _______ _____ _____    ______ ____
ROOT
ATOM      1  C   UNL     1      33.556 -15.322 -21.913  0.00  0.00    +0.140 C 
ATOM      2  C   UNL     1      32.462 -15.731 -20.919  0.00  0.00    +0.044 C 
ATOM      3  C   UNL     1      34.553 -14.383 -21.228  0.00  0.00    +0.044 C 
ENDROOT
BRANCH   1   4
ATOM      4  O   UNL     1      34.244 -16.514 -22.305  0.00  0.00    -0.457 OA
BRANCH   4   6
ATOM      5  O   UNL     1      35.375 -16.852 -20.326  0.00  0.00    -0.252 OA
ATOM      6  C   UNL     1      34.737 -17.275 -21.281  0.00  0.00    +0.296 C 
BRANCH   6   7
ATOM      7  C   UNL     1      34.374 -18.729 -21.521  0.00  0.00    +0.036 C 
ATOM      8  C   UNL     1      34.678 -19.128 -22.959  0.00  0.00    -0.013 C 
BRANCH   7   9
ATOM      9  N   UNL     1      35.160 -19.552 -20.603  0.00  0.00    +0.389 N 
ATOM     10  H   UNL     1      34.534 -20.144 -20.057  0.00  0.00    -0.088 HD
ATOM     11  H   UNL     1      35.690 -18.948 -19.975  0.00  0.00    -0.088 HD
ATOM     12  H   UNL     1      35.802 -20.137 -21.137  0.00  0.00    -0.088 HD
ENDBRANCH   7   9
ENDBRANCH   6   7
ENDBRANCH   4   6
ENDBRANCH   1   4
BRANCH   1  13
ATOM     13  C   UNL     1      32.897 -14.696 -23.162  0.00  0.00    +0.066 C 
BRANCH  13  15
ATOM     14 CL   UNL     1      32.889  -8.695 -23.320  0.00  0.00    -0.082 Cl
ATOM     15  C   UNL     1      32.895 -13.185 -23.203  0.00  0.00    -0.019 C 
ATOM     16  C   UNL     1      33.756 -12.528 -24.066  0.00  0.00    -0.003 C 
ATOM     17  C   UNL     1      32.030 -12.486 -22.375  0.00  0.00    -0.003 C 
ATOM     18  C   UNL     1      33.754 -11.134 -24.102  0.00  0.00    +0.011 C 
ATOM     19  C   UNL     1      32.029 -11.092 -22.413  0.00  0.00    +0.011 C 
ATOM     20  C   UNL     1      32.890 -10.416 -23.276  0.00  0.00    +0.058 C 
ENDBRANCH  13  15
ENDBRANCH   1  13
TORSDOF 6
ENDMDL
