MODEL 1
REMARK VINA RESULT:     -10.5      0.000      0.000
REMARK  Name = 5805243
REMARK  7 active torsions:
REMARK  status: ('A' for Active; 'I' for Inactive)
REMARK    1  A    between atoms: C_1  and  C_4
REMARK    2  A    between atoms: C_1  and  C_14
REMARK    3  A    between atoms: C_9  and  O_10
REMARK    4  A    between atoms: O_10  and  C_12
REMARK    5  A    between atoms: C_14  and  C_17
REMARK    6  A    between atoms: C_22  and  O_23
REMARK    7  A    between atoms: O_23  and  C_25
REMARK                            x       y       z     vdW  Elec       q    Type
REMARK                         _______ _______ _______ _____ _____    ______ ____
ROOT
ATOM      1  C   UNL     1      34.586 -17.038 -22.174  0.00  0.00    -0.005 C 
ATOM      2  C   UNL     1      34.806 -16.504 -20.954  0.00  0.00    -0.026 C 
ATOM      3  C   UNL     1      34.565 -15.092 -20.517  0.00  0.00    +0.031 C 
ENDROOT
BRANCH   1   4
ATOM      4  C   UNL     1      34.044 -16.124 -23.208  0.00  0.00    -0.000 C 
ATOM      5  C   UNL     1      33.356 -14.995 -22.810  0.00  0.00    +0.003 C 
ATOM      6  C   UNL     1      34.243 -16.428 -24.540  0.00  0.00    +0.003 C 
ATOM      7  C   UNL     1      32.846 -14.135 -23.782  0.00  0.00    +0.038 C 
ATOM      8  C   UNL     1      33.734 -15.568 -25.513  0.00  0.00    +0.038 C 
ATOM      9  C   UNL     1      33.036 -14.421 -25.134  0.00  0.00    +0.148 C 
BRANCH   9  10
ATOM     10  O   UNL     1      32.539 -13.582 -26.084  0.00  0.00    -0.424 OA
BRANCH  10  12
ATOM     11  O   UNL     1      33.952 -13.271 -27.924  0.00  0.00    -0.250 OA
ATOM     12  C   UNL     1      33.523 -12.917 -26.833  0.00  0.00    +0.322 C 
ATOM     13  C   UNL     1      33.987 -11.693 -26.101  0.00  0.00    +0.122 C 
ENDBRANCH  10  12
ENDBRANCH   9  10
ENDBRANCH   1   4
BRANCH   1  14
ATOM     14  C   UNL     1      34.821 -18.450 -22.497  0.00  0.00    -0.005 C 
ATOM     15  C   UNL     1      34.988 -18.911 -23.756  0.00  0.00    -0.026 C 
ATOM     16  C   UNL     1      35.195 -20.330 -24.189  0.00  0.00    +0.031 C 
BRANCH  14  17
ATOM     17  C   UNL     1      34.845 -19.462 -21.413  0.00  0.00    -0.000 C 
ATOM     18  C   UNL     1      36.062 -19.890 -20.922  0.00  0.00    +0.003 C 
ATOM     19  C   UNL     1      33.647 -19.946 -20.924  0.00  0.00    +0.003 C 
ATOM     20  C   UNL     1      36.084 -20.841 -19.903  0.00  0.00    +0.038 C 
ATOM     21  C   UNL     1      33.669 -20.897 -19.904  0.00  0.00    +0.038 C 
ATOM     22  C   UNL     1      34.887 -21.344 -19.393  0.00  0.00    +0.148 C 
BRANCH  22  23
ATOM     23  O   UNL     1      34.909 -22.273 -18.397  0.00  0.00    -0.424 OA
BRANCH  23  25
ATOM     24  O   UNL     1      33.845 -24.076 -19.445  0.00  0.00    -0.250 OA
ATOM     25  C   UNL     1      33.931 -23.273 -18.525  0.00  0.00    +0.322 C 
ATOM     26  C   UNL     1      32.988 -23.221 -17.361  0.00  0.00    +0.122 C 
ENDBRANCH  23  25
ENDBRANCH  22  23
ENDBRANCH  14  17
ENDBRANCH   1  14
TORSDOF 7
ENDMDL
MODEL 2
REMARK VINA RESULT:     -10.5      0.086      9.047
REMARK  Name = 5805243
REMARK  7 active torsions:
REMARK  status: ('A' for Active; 'I' for Inactive)
REMARK    1  A    between atoms: C_1  and  C_4
REMARK    2  A    between atoms: C_1  and  C_14
REMARK    3  A    between atoms: C_9  and  O_10
REMARK    4  A    between atoms: O_10  and  C_12
REMARK    5  A    between atoms: C_14  and  C_17
REMARK    6  A    between atoms: C_22  and  O_23
REMARK    7  A    between atoms: O_23  and  C_25
REMARK                            x       y       z     vdW  Elec       q    Type
REMARK                         _______ _______ _______ _____ _____    ______ ____
ROOT
ATOM      1  C   UNL     1      34.810 -18.421 -22.501  0.00  0.00    -0.005 C 
ATOM      2  C   UNL     1      34.950 -18.875 -23.764  0.00  0.00    -0.026 C 
ATOM      3  C   UNL     1      35.134 -20.293 -24.210  0.00  0.00    +0.031 C 
ENDROOT
BRANCH   1   4
ATOM      4  C   UNL     1      34.843 -19.440 -21.425  0.00  0.00    -0.000 C 
ATOM      5  C   UNL     1      36.064 -19.867 -20.942  0.00  0.00    +0.003 C 
ATOM      6  C   UNL     1      33.649 -19.933 -20.934  0.00  0.00    +0.003 C 
ATOM      7  C   UNL     1      36.093 -20.825 -19.929  0.00  0.00    +0.038 C 
ATOM      8  C   UNL     1      33.678 -20.891 -19.920  0.00  0.00    +0.038 C 
ATOM      9  C   UNL     1      34.901 -21.337 -19.418  0.00  0.00    +0.148 C 
BRANCH   9  10
ATOM     10  O   UNL     1      34.930 -22.272 -18.429  0.00  0.00    -0.424 OA
BRANCH  10  12
ATOM     11  O   UNL     1      33.860 -24.089 -19.446  0.00  0.00    -0.250 OA
ATOM     12  C   UNL     1      33.941 -23.262 -18.547  0.00  0.00    +0.322 C 
ATOM     13  C   UNL     1      32.978 -23.165 -17.401  0.00  0.00    +0.122 C 
ENDBRANCH  10  12
ENDBRANCH   9  10
ENDBRANCH   1   4
BRANCH   1  14
ATOM     14  C   UNL     1      34.596 -17.008 -22.165  0.00  0.00    -0.005 C 
ATOM     15  C   UNL     1      34.829 -16.489 -20.939  0.00  0.00    -0.026 C 
ATOM     16  C   UNL     1      34.609 -15.077 -20.489  0.00  0.00    +0.031 C 
BRANCH  14  17
ATOM     17  C   UNL     1      34.062 -16.078 -23.187  0.00  0.00    -0.000 C 
ATOM     18  C   UNL     1      33.264 -15.025 -22.785  0.00  0.00    +0.003 C 
ATOM     19  C   UNL     1      34.380 -16.290 -24.515  0.00  0.00    +0.003 C 
ATOM     20  C   UNL     1      32.762 -14.150 -23.748  0.00  0.00    +0.038 C 
ATOM     21  C   UNL     1      33.879 -15.414 -25.478  0.00  0.00    +0.038 C 
ATOM     22  C   UNL     1      33.071 -14.344 -25.094  0.00  0.00    +0.148 C 
BRANCH  22  23
ATOM     23  O   UNL     1      32.581 -13.489 -26.034  0.00  0.00    -0.424 OA
BRANCH  23  25
ATOM     24  O   UNL     1      33.940 -13.181 -27.916  0.00  0.00    -0.250 OA
ATOM     25  C   UNL     1      33.570 -12.848 -26.797  0.00  0.00    +0.322 C 
ATOM     26  C   UNL     1      34.126 -11.679 -26.040  0.00  0.00    +0.122 C 
ENDBRANCH  23  25
ENDBRANCH  22  23
ENDBRANCH  14  17
ENDBRANCH   1  14
TORSDOF 7
ENDMDL
MODEL 3
REMARK VINA RESULT:     -10.5      8.177     10.508
REMARK  Name = 5805243
REMARK  7 active torsions:
REMARK  status: ('A' for Active; 'I' for Inactive)
REMARK    1  A    between atoms: C_1  and  C_4
REMARK    2  A    between atoms: C_1  and  C_14
REMARK    3  A    between atoms: C_9  and  O_10
REMARK    4  A    between atoms: O_10  and  C_12
REMARK    5  A    between atoms: C_14  and  C_17
REMARK    6  A    between atoms: C_22  and  O_23
REMARK    7  A    between atoms: O_23  and  C_25
REMARK                            x       y       z     vdW  Elec       q    Type
REMARK                         _______ _______ _______ _____ _____    ______ ____
ROOT
ATOM      1  C   UNL     1      32.197 -23.986 -15.083  0.00  0.00    -0.005 C 
ATOM      2  C   UNL     1      32.407 -24.683 -13.946  0.00  0.00    -0.026 C 
ATOM      3  C   UNL     1      31.382 -25.159 -12.963  0.00  0.00    +0.031 C 
ENDROOT
BRANCH   1   4
ATOM      4  C   UNL     1      30.789 -23.647 -15.399  0.00  0.00    -0.000 C 
ATOM      5  C   UNL     1      30.004 -24.579 -16.050  0.00  0.00    +0.003 C 
ATOM      6  C   UNL     1      30.300 -22.408 -15.032  0.00  0.00    +0.003 C 
ATOM      7  C   UNL     1      28.680 -24.259 -16.347  0.00  0.00    +0.038 C 
ATOM      8  C   UNL     1      28.975 -22.089 -15.329  0.00  0.00    +0.038 C 
ATOM      9  C   UNL     1      28.165 -23.015 -15.985  0.00  0.00    +0.148 C 
BRANCH   9  10
ATOM     10  O   UNL     1      26.872 -22.704 -16.275  0.00  0.00    -0.424 OA
BRANCH  10  12
ATOM     11  O   UNL     1      27.096 -22.704 -18.606  0.00  0.00    -0.250 OA
ATOM     12  C   UNL     1      26.680 -22.198 -17.571  0.00  0.00    +0.322 C 
ATOM     13  C   UNL     1      25.885 -20.927 -17.514  0.00  0.00    +0.122 C 
ENDBRANCH  10  12
ENDBRANCH   9  10
ENDBRANCH   1   4
BRANCH   1  14
ATOM     14  C   UNL     1      33.269 -23.595 -16.006  0.00  0.00    -0.005 C 
ATOM     15  C   UNL     1      33.046 -23.125 -17.253  0.00  0.00    -0.026 C 
ATOM     16  C   UNL     1      34.067 -22.736 -18.277  0.00  0.00    +0.031 C 
BRANCH  14  17
ATOM     17  C   UNL     1      34.686 -23.744 -15.598  0.00  0.00    -0.000 C 
ATOM     18  C   UNL     1      35.222 -25.012 -15.487  0.00  0.00    +0.003 C 
ATOM     19  C   UNL     1      35.431 -22.609 -15.342  0.00  0.00    +0.003 C 
ATOM     20  C   UNL     1      36.555 -25.151 -15.105  0.00  0.00    +0.038 C 
ATOM     21  C   UNL     1      36.766 -22.749 -14.960  0.00  0.00    +0.038 C 
ATOM     22  C   UNL     1      37.328 -24.020 -14.842  0.00  0.00    +0.148 C 
BRANCH  22  23
ATOM     23  O   UNL     1      38.630 -24.157 -14.468  0.00  0.00    -0.424 OA
BRANCH  23  25
ATOM     24  O   UNL     1      39.332 -26.112 -13.387  0.00  0.00    -0.250 OA
ATOM     25  C   UNL     1      38.823 -24.999 -13.361  0.00  0.00    +0.322 C 
ATOM     26  C   UNL     1      38.308 -24.337 -12.117  0.00  0.00    +0.122 C 
ENDBRANCH  23  25
ENDBRANCH  22  23
ENDBRANCH  14  17
ENDBRANCH   1  14
TORSDOF 7
ENDMDL
MODEL 4
REMARK VINA RESULT:     -10.5      8.176     11.811
REMARK  Name = 5805243
REMARK  7 active torsions:
REMARK  status: ('A' for Active; 'I' for Inactive)
REMARK    1  A    between atoms: C_1  and  C_4
REMARK    2  A    between atoms: C_1  and  C_14
REMARK    3  A    between atoms: C_9  and  O_10
REMARK    4  A    between atoms: O_10  and  C_12
REMARK    5  A    between atoms: C_14  and  C_17
REMARK    6  A    between atoms: C_22  and  O_23
REMARK    7  A    between atoms: O_23  and  C_25
REMARK                            x       y       z     vdW  Elec       q    Type
REMARK                         _______ _______ _______ _____ _____    ______ ____
ROOT
ATOM      1  C   UNL     1      33.257 -23.588 -16.004  0.00  0.00    -0.005 C 
ATOM      2  C   UNL     1      33.033 -23.117 -17.249  0.00  0.00    -0.026 C 
ATOM      3  C   UNL     1      34.052 -22.730 -18.276  0.00  0.00    +0.031 C 
ENDROOT
BRANCH   1   4
ATOM      4  C   UNL     1      34.675 -23.741 -15.600  0.00  0.00    -0.000 C 
ATOM      5  C   UNL     1      35.208 -25.010 -15.493  0.00  0.00    +0.003 C 
ATOM      6  C   UNL     1      35.423 -22.608 -15.343  0.00  0.00    +0.003 C 
ATOM      7  C   UNL     1      36.542 -25.153 -15.113  0.00  0.00    +0.038 C 
ATOM      8  C   UNL     1      36.758 -22.751 -14.963  0.00  0.00    +0.038 C 
ATOM      9  C   UNL     1      37.317 -24.023 -14.849  0.00  0.00    +0.148 C 
BRANCH   9  10
ATOM     10  O   UNL     1      38.620 -24.164 -14.479  0.00  0.00    -0.424 OA
BRANCH  10  12
ATOM     11  O   UNL     1      39.306 -26.123 -13.396  0.00  0.00    -0.250 OA
ATOM     12  C   UNL     1      38.813 -25.003 -13.369  0.00  0.00    +0.322 C 
ATOM     13  C   UNL     1      38.321 -24.328 -12.124  0.00  0.00    +0.122 C 
ENDBRANCH  10  12
ENDBRANCH   9  10
ENDBRANCH   1   4
BRANCH   1  14
ATOM     14  C   UNL     1      32.186 -23.976 -15.078  0.00  0.00    -0.005 C 
ATOM     15  C   UNL     1      32.398 -24.674 -13.941  0.00  0.00    -0.026 C 
ATOM     16  C   UNL     1      31.375 -25.147 -12.955  0.00  0.00    +0.031 C 
BRANCH  14  17
ATOM     17  C   UNL     1      30.778 -23.636 -15.392  0.00  0.00    -0.000 C 
ATOM     18  C   UNL     1      30.289 -22.397 -15.026  0.00  0.00    +0.003 C 
ATOM     19  C   UNL     1      29.994 -24.568 -16.045  0.00  0.00    +0.003 C 
ATOM     20  C   UNL     1      28.965 -22.078 -15.322  0.00  0.00    +0.038 C 
ATOM     21  C   UNL     1      28.669 -24.248 -16.342  0.00  0.00    +0.038 C 
ATOM     22  C   UNL     1      28.155 -23.003 -15.981  0.00  0.00    +0.148 C 
BRANCH  22  23
ATOM     23  O   UNL     1      26.862 -22.691 -16.270  0.00  0.00    -0.424 OA
BRANCH  23  25
ATOM     24  O   UNL     1      27.076 -22.705 -18.602  0.00  0.00    -0.250 OA
ATOM     25  C   UNL     1      26.670 -22.190 -17.568  0.00  0.00    +0.322 C 
ATOM     26  C   UNL     1      25.887 -20.911 -17.515  0.00  0.00    +0.122 C 
ENDBRANCH  23  25
ENDBRANCH  22  23
ENDBRANCH  14  17
ENDBRANCH   1  14
TORSDOF 7
ENDMDL
MODEL 5
REMARK VINA RESULT:     -10.3      1.281      9.126
REMARK  Name = 5805243
REMARK  7 active torsions:
REMARK  status: ('A' for Active; 'I' for Inactive)
REMARK    1  A    between atoms: C_1  and  C_4
REMARK    2  A    between atoms: C_1  and  C_14
REMARK    3  A    between atoms: C_9  and  O_10
REMARK    4  A    between atoms: O_10  and  C_12
REMARK    5  A    between atoms: C_14  and  C_17
REMARK    6  A    between atoms: C_22  and  O_23
REMARK    7  A    between atoms: O_23  and  C_25
REMARK                            x       y       z     vdW  Elec       q    Type
REMARK                         _______ _______ _______ _____ _____    ______ ____
ROOT
ATOM      1  C   UNL     1      34.391 -17.780 -22.567  0.00  0.00    -0.005 C 
ATOM      2  C   UNL     1      34.655 -18.064 -23.860  0.00  0.00    -0.026 C 
ATOM      3  C   UNL     1      35.114 -19.369 -24.433  0.00  0.00    +0.031 C 
ENDROOT
BRANCH   1   4
ATOM      4  C   UNL     1      34.576 -18.886 -21.596  0.00  0.00    -0.000 C 
ATOM      5  C   UNL     1      35.851 -19.185 -21.156  0.00  0.00    +0.003 C 
ATOM      6  C   UNL     1      33.467 -19.584 -21.158  0.00  0.00    +0.003 C 
ATOM      7  C   UNL     1      36.024 -20.225 -20.243  0.00  0.00    +0.038 C 
ATOM      8  C   UNL     1      33.641 -20.623 -20.244  0.00  0.00    +0.038 C 
ATOM      9  C   UNL     1      34.919 -20.943 -19.786  0.00  0.00    +0.148 C 
BRANCH   9  10
ATOM     10  O   UNL     1      35.089 -21.958 -18.894  0.00  0.00    -0.424 OA
BRANCH  10  12
ATOM     11  O   UNL     1      33.993 -23.803 -19.830  0.00  0.00    -0.250 OA
ATOM     12  C   UNL     1      34.097 -22.949 -18.958  0.00  0.00    +0.322 C 
ATOM     13  C   UNL     1      33.162 -22.817 -17.793  0.00  0.00    +0.122 C 
ENDBRANCH  10  12
ENDBRANCH   9  10
ENDBRANCH   1   4
BRANCH   1  14
ATOM     14  C   UNL     1      33.907 -16.474 -22.105  0.00  0.00    -0.005 C 
ATOM     15  C   UNL     1      33.477 -16.240 -20.845  0.00  0.00    -0.026 C 
ATOM     16  C   UNL     1      32.934 -14.960 -20.290  0.00  0.00    +0.031 C 
BRANCH  14  17
ATOM     17  C   UNL     1      33.837 -15.335 -23.050  0.00  0.00    -0.000 C 
ATOM     18  C   UNL     1      34.190 -14.075 -22.610  0.00  0.00    +0.003 C 
ATOM     19  C   UNL     1      33.421 -15.568 -24.347  0.00  0.00    +0.003 C 
ATOM     20  C   UNL     1      34.124 -13.004 -23.501  0.00  0.00    +0.038 C 
ATOM     21  C   UNL     1      33.356 -14.496 -25.238  0.00  0.00    +0.038 C 
ATOM     22  C   UNL     1      33.708 -13.215 -24.815  0.00  0.00    +0.148 C 
BRANCH  22  23
ATOM     23  O   UNL     1      33.644 -12.169 -25.685  0.00  0.00    -0.424 OA
BRANCH  23  25
ATOM     24  O   UNL     1      33.416 -10.303 -24.289  0.00  0.00    -0.250 OA
ATOM     25  C   UNL     1      34.036 -10.939 -25.131  0.00  0.00    +0.322 C 
ATOM     26  C   UNL     1      35.342 -10.501 -25.726  0.00  0.00    +0.122 C 
ENDBRANCH  23  25
ENDBRANCH  22  23
ENDBRANCH  14  17
ENDBRANCH   1  14
TORSDOF 7
ENDMDL
MODEL 6
REMARK VINA RESULT:     -10.3      1.276      1.944
REMARK  Name = 5805243
REMARK  7 active torsions:
REMARK  status: ('A' for Active; 'I' for Inactive)
REMARK    1  A    between atoms: C_1  and  C_4
REMARK    2  A    between atoms: C_1  and  C_14
REMARK    3  A    between atoms: C_9  and  O_10
REMARK    4  A    between atoms: O_10  and  C_12
REMARK    5  A    between atoms: C_14  and  C_17
REMARK    6  A    between atoms: C_22  and  O_23
REMARK    7  A    between atoms: O_23  and  C_25
REMARK                            x       y       z     vdW  Elec       q    Type
REMARK                         _______ _______ _______ _____ _____    ______ ____
ROOT
ATOM      1  C   UNL     1      33.910 -16.482 -22.070  0.00  0.00    -0.005 C 
ATOM      2  C   UNL     1      33.467 -16.246 -20.816  0.00  0.00    -0.026 C 
ATOM      3  C   UNL     1      32.910 -14.968 -20.270  0.00  0.00    +0.031 C 
ENDROOT
BRANCH   1   4
ATOM      4  C   UNL     1      33.841 -15.346 -23.020  0.00  0.00    -0.000 C 
ATOM      5  C   UNL     1      33.395 -15.574 -24.307  0.00  0.00    +0.003 C 
ATOM      6  C   UNL     1      34.223 -14.090 -22.590  0.00  0.00    +0.003 C 
ATOM      7  C   UNL     1      33.330 -14.504 -25.199  0.00  0.00    +0.038 C 
ATOM      8  C   UNL     1      34.158 -13.020 -23.483  0.00  0.00    +0.038 C 
ATOM      9  C   UNL     1      33.710 -13.227 -24.787  0.00  0.00    +0.148 C 
BRANCH   9  10
ATOM     10  O   UNL     1      33.646 -12.184 -25.659  0.00  0.00    -0.424 OA
BRANCH  10  12
ATOM     11  O   UNL     1      33.343 -10.324 -24.270  0.00  0.00    -0.250 OA
ATOM     12  C   UNL     1      33.997 -10.945 -25.098  0.00  0.00    +0.322 C 
ATOM     13  C   UNL     1      35.305 -10.478 -25.662  0.00  0.00    +0.122 C 
ENDBRANCH  10  12
ENDBRANCH   9  10
ENDBRANCH   1   4
BRANCH   1  14
ATOM     14  C   UNL     1      34.406 -17.786 -22.524  0.00  0.00    -0.005 C 
ATOM     15  C   UNL     1      34.692 -18.069 -23.814  0.00  0.00    -0.026 C 
ATOM     16  C   UNL     1      35.166 -19.372 -24.379  0.00  0.00    +0.031 C 
BRANCH  14  17
ATOM     17  C   UNL     1      34.581 -18.890 -21.550  0.00  0.00    -0.000 C 
ATOM     18  C   UNL     1      33.467 -19.575 -21.106  0.00  0.00    +0.003 C 
ATOM     19  C   UNL     1      35.855 -19.203 -21.116  0.00  0.00    +0.003 C 
ATOM     20  C   UNL     1      33.633 -20.614 -20.190  0.00  0.00    +0.038 C 
ATOM     21  C   UNL     1      36.020 -20.243 -20.200  0.00  0.00    +0.038 C 
ATOM     22  C   UNL     1      34.910 -20.948 -19.738  0.00  0.00    +0.148 C 
BRANCH  22  23
ATOM     23  O   UNL     1      35.070 -21.963 -18.844  0.00  0.00    -0.424 OA
BRANCH  23  25
ATOM     24  O   UNL     1      34.009 -23.806 -19.822  0.00  0.00    -0.250 OA
ATOM     25  C   UNL     1      34.093 -22.966 -18.935  0.00  0.00    +0.322 C 
ATOM     26  C   UNL     1      33.145 -22.866 -17.777  0.00  0.00    +0.122 C 
ENDBRANCH  23  25
ENDBRANCH  22  23
ENDBRANCH  14  17
ENDBRANCH   1  14
TORSDOF 7
ENDMDL
MODEL 7
REMARK VINA RESULT:     -10.3      4.741      7.942
REMARK  Name = 5805243
REMARK  7 active torsions:
REMARK  status: ('A' for Active; 'I' for Inactive)
REMARK    1  A    between atoms: C_1  and  C_4
REMARK    2  A    between atoms: C_1  and  C_14
REMARK    3  A    between atoms: C_9  and  O_10
REMARK    4  A    between atoms: O_10  and  C_12
REMARK    5  A    between atoms: C_14  and  C_17
REMARK    6  A    between atoms: C_22  and  O_23
REMARK    7  A    between atoms: O_23  and  C_25
REMARK                            x       y       z     vdW  Elec       q    Type
REMARK                         _______ _______ _______ _____ _____    ______ ____
ROOT
ATOM      1  C   UNL     1      32.393 -10.748 -22.713  0.00  0.00    -0.005 C 
ATOM      2  C   UNL     1      31.718 -11.459 -21.784  0.00  0.00    -0.026 C 
ATOM      3  C   UNL     1      30.736 -10.945 -20.777  0.00  0.00    +0.031 C 
ENDROOT
BRANCH   1   4
ATOM      4  C   UNL     1      32.137  -9.288 -22.743  0.00  0.00    -0.000 C 
ATOM      5  C   UNL     1      32.938  -8.451 -21.991  0.00  0.00    +0.003 C 
ATOM      6  C   UNL     1      31.104  -8.806 -23.523  0.00  0.00    +0.003 C 
ATOM      7  C   UNL     1      32.697  -7.078 -22.020  0.00  0.00    +0.038 C 
ATOM      8  C   UNL     1      30.863  -7.432 -23.552  0.00  0.00    +0.038 C 
ATOM      9  C   UNL     1      31.660  -6.568 -22.801  0.00  0.00    +0.148 C 
BRANCH   9  10
ATOM     10  O   UNL     1      31.426  -5.227 -22.829  0.00  0.00    -0.424 OA
BRANCH  10  12
ATOM     11  O   UNL     1      30.318  -4.040 -24.516  0.00  0.00    -0.250 OA
ATOM     12  C   UNL     1      31.271  -4.699 -24.121  0.00  0.00    +0.322 C 
ATOM     13  C   UNL     1      32.453  -5.063 -24.970  0.00  0.00    +0.122 C 
ENDBRANCH  10  12
ENDBRANCH   9  10
ENDBRANCH   1   4
BRANCH   1  14
ATOM     14  C   UNL     1      33.311 -11.350 -23.687  0.00  0.00    -0.005 C 
ATOM     15  C   UNL     1      33.965 -10.642 -24.634  0.00  0.00    -0.026 C 
ATOM     16  C   UNL     1      34.888 -11.165 -25.690  0.00  0.00    +0.031 C 
BRANCH  14  17
ATOM     17  C   UNL     1      33.530 -12.816 -23.688  0.00  0.00    -0.000 C 
ATOM     18  C   UNL     1      32.963 -13.578 -24.691  0.00  0.00    +0.003 C 
ATOM     19  C   UNL     1      34.297 -13.378 -22.686  0.00  0.00    +0.003 C 
ATOM     20  C   UNL     1      33.170 -14.957 -24.691  0.00  0.00    +0.038 C 
ATOM     21  C   UNL     1      34.505 -14.757 -22.687  0.00  0.00    +0.038 C 
ATOM     22  C   UNL     1      33.942 -15.547 -23.690  0.00  0.00    +0.148 C 
BRANCH  22  23
ATOM     23  O   UNL     1      34.144 -16.893 -23.691  0.00  0.00    -0.424 OA
BRANCH  23  25
ATOM     24  O   UNL     1      35.060 -16.752 -25.841  0.00  0.00    -0.250 OA
ATOM     25  C   UNL     1      34.581 -17.406 -24.923  0.00  0.00    +0.322 C 
ATOM     26  C   UNL     1      34.374 -18.891 -24.964  0.00  0.00    +0.122 C 
ENDBRANCH  23  25
ENDBRANCH  22  23
ENDBRANCH  14  17
ENDBRANCH   1  14
TORSDOF 7
ENDMDL
MODEL 8
REMARK VINA RESULT:     -10.3      4.772     10.907
REMARK  Name = 5805243
REMARK  7 active torsions:
REMARK  status: ('A' for Active; 'I' for Inactive)
REMARK    1  A    between atoms: C_1  and  C_4
REMARK    2  A    between atoms: C_1  and  C_14
REMARK    3  A    between atoms: C_9  and  O_10
REMARK    4  A    between atoms: O_10  and  C_12
REMARK    5  A    between atoms: C_14  and  C_17
REMARK    6  A    between atoms: C_22  and  O_23
REMARK    7  A    between atoms: O_23  and  C_25
REMARK                            x       y       z     vdW  Elec       q    Type
REMARK                         _______ _______ _______ _____ _____    ______ ____
ROOT
ATOM      1  C   UNL     1      33.268 -11.357 -23.641  0.00  0.00    -0.005 C 
ATOM      2  C   UNL     1      33.905 -10.639 -24.591  0.00  0.00    -0.026 C 
ATOM      3  C   UNL     1      34.823 -11.149 -25.659  0.00  0.00    +0.031 C 
ENDROOT
BRANCH   1   4
ATOM      4  C   UNL     1      33.502 -12.821 -23.651  0.00  0.00    -0.000 C 
ATOM      5  C   UNL     1      34.251 -13.387 -22.638  0.00  0.00    +0.003 C 
ATOM      6  C   UNL     1      32.963 -13.577 -24.673  0.00  0.00    +0.003 C 
ATOM      7  C   UNL     1      34.470 -14.764 -22.647  0.00  0.00    +0.038 C 
ATOM      8  C   UNL     1      33.182 -14.955 -24.682  0.00  0.00    +0.038 C 
ATOM      9  C   UNL     1      33.935 -15.548 -23.669  0.00  0.00    +0.148 C 
BRANCH   9  10
ATOM     10  O   UNL     1      34.149 -16.893 -23.678  0.00  0.00    -0.424 OA
BRANCH  10  12
ATOM     11  O   UNL     1      35.045 -16.731 -25.835  0.00  0.00    -0.250 OA
ATOM     12  C   UNL     1      34.588 -17.395 -24.914  0.00  0.00    +0.322 C 
ATOM     13  C   UNL     1      34.414 -18.884 -24.953  0.00  0.00    +0.122 C 
ENDBRANCH  10  12
ENDBRANCH   9  10
ENDBRANCH   1   4
BRANCH   1  14
ATOM     14  C   UNL     1      32.354 -10.768 -22.655  0.00  0.00    -0.005 C 
ATOM     15  C   UNL     1      31.680 -11.493 -21.736  0.00  0.00    -0.026 C 
ATOM     16  C   UNL     1      30.702 -10.994 -20.718  0.00  0.00    +0.031 C 
BRANCH  14  17
ATOM     17  C   UNL     1      32.102  -9.308 -22.660  0.00  0.00    -0.000 C 
ATOM     18  C   UNL     1      32.895  -8.487 -21.882  0.00  0.00    +0.003 C 
ATOM     19  C   UNL     1      31.081  -8.808 -23.446  0.00  0.00    +0.003 C 
ATOM     20  C   UNL     1      32.658  -7.113 -21.888  0.00  0.00    +0.038 C 
ATOM     21  C   UNL     1      30.844  -7.433 -23.452  0.00  0.00    +0.038 C 
ATOM     22  C   UNL     1      31.633  -6.586 -22.674  0.00  0.00    +0.148 C 
BRANCH  22  23
ATOM     23  O   UNL     1      31.402  -5.244 -22.679  0.00  0.00    -0.424 OA
BRANCH  23  25
ATOM     24  O   UNL     1      30.329  -3.978 -24.331  0.00  0.00    -0.250 OA
ATOM     25  C   UNL     1      31.251  -4.694 -23.963  0.00  0.00    +0.322 C 
ATOM     26  C   UNL     1      32.394  -5.114 -24.839  0.00  0.00    +0.122 C 
ENDBRANCH  23  25
ENDBRANCH  22  23
ENDBRANCH  14  17
ENDBRANCH   1  14
TORSDOF 7
ENDMDL
MODEL 9
REMARK VINA RESULT:     -10.3      4.753     10.997
REMARK  Name = 5805243
REMARK  7 active torsions:
REMARK  status: ('A' for Active; 'I' for Inactive)
REMARK    1  A    between atoms: C_1  and  C_4
REMARK    2  A    between atoms: C_1  and  C_14
REMARK    3  A    between atoms: C_9  and  O_10
REMARK    4  A    between atoms: O_10  and  C_12
REMARK    5  A    between atoms: C_14  and  C_17
REMARK    6  A    between atoms: C_22  and  O_23
REMARK    7  A    between atoms: O_23  and  C_25
REMARK                            x       y       z     vdW  Elec       q    Type
REMARK                         _______ _______ _______ _____ _____    ______ ____
ROOT
ATOM      1  C   UNL     1      33.304 -11.328 -23.721  0.00  0.00    -0.005 C 
ATOM      2  C   UNL     1      33.950 -10.623 -24.675  0.00  0.00    -0.026 C 
ATOM      3  C   UNL     1      34.870 -11.150 -25.733  0.00  0.00    +0.031 C 
ENDROOT
BRANCH   1   4
ATOM      4  C   UNL     1      33.529 -12.793 -23.714  0.00  0.00    -0.000 C 
ATOM      5  C   UNL     1      33.016 -13.555 -24.744  0.00  0.00    +0.003 C 
ATOM      6  C   UNL     1      34.249 -13.354 -22.676  0.00  0.00    +0.003 C 
ATOM      7  C   UNL     1      33.229 -14.933 -24.737  0.00  0.00    +0.038 C 
ATOM      8  C   UNL     1      34.462 -14.732 -22.670  0.00  0.00    +0.038 C 
ATOM      9  C   UNL     1      33.953 -15.522 -23.700  0.00  0.00    +0.148 C 
BRANCH   9  10
ATOM     10  O   UNL     1      34.160 -16.867 -23.694  0.00  0.00    -0.424 OA
BRANCH  10  12
ATOM     11  O   UNL     1      35.047 -16.730 -25.857  0.00  0.00    -0.250 OA
ATOM     12  C   UNL     1      34.602 -17.384 -24.923  0.00  0.00    +0.322 C 
ATOM     13  C   UNL     1      34.451 -18.876 -24.936  0.00  0.00    +0.122 C 
ENDBRANCH  10  12
ENDBRANCH   9  10
ENDBRANCH   1   4
BRANCH   1  14
ATOM     14  C   UNL     1      32.389 -10.723 -22.746  0.00  0.00    -0.005 C 
ATOM     15  C   UNL     1      31.698 -11.435 -21.828  0.00  0.00    -0.026 C 
ATOM     16  C   UNL     1      30.718 -10.919 -20.820  0.00  0.00    +0.031 C 
BRANCH  14  17
ATOM     17  C   UNL     1      32.153  -9.260 -22.761  0.00  0.00    -0.000 C 
ATOM     18  C   UNL     1      31.102  -8.757 -23.503  0.00  0.00    +0.003 C 
ATOM     19  C   UNL     1      32.992  -8.440 -22.031  0.00  0.00    +0.003 C 
ATOM     20  C   UNL     1      30.881  -7.380 -23.516  0.00  0.00    +0.038 C 
ATOM     21  C   UNL     1      32.771  -7.063 -22.044  0.00  0.00    +0.038 C 
ATOM     22  C   UNL     1      31.715  -6.533 -22.786  0.00  0.00    +0.148 C 
BRANCH  22  23
ATOM     23  O   UNL     1      31.499  -5.189 -22.799  0.00  0.00    -0.424 OA
BRANCH  23  25
ATOM     24  O   UNL     1      30.324  -4.009 -24.445  0.00  0.00    -0.250 OA
ATOM     25  C   UNL     1      31.300  -4.653 -24.082  0.00  0.00    +0.322 C 
ATOM     26  C   UNL     1      32.466  -4.986 -24.964  0.00  0.00    +0.122 C 
ENDBRANCH  23  25
ENDBRANCH  22  23
ENDBRANCH  14  17
ENDBRANCH   1  14
TORSDOF 7
ENDMDL
