MODEL 1
REMARK VINA RESULT:      -7.7      0.000      0.000
REMARK  Name = 2255489
REMARK  2 active torsions:
REMARK  status: ('A' for Active; 'I' for Inactive)
REMARK    1  A    between atoms: N_2  and  C_14
REMARK    2  A    between atoms: C_3  and  C_9
REMARK                            x       y       z     vdW  Elec       q    Type
REMARK                         _______ _______ _______ _____ _____    ______ ____
ROOT
ATOM      1  O   UNL     1      34.524 -16.673 -25.817  0.00  0.00    -0.265 OA
ATOM      2  N   UNL     1      34.803 -16.961 -23.503  0.00  0.00    -0.299 N 
ATOM      3  C   UNL     1      34.380 -16.333 -24.653  0.00  0.00    +0.300 C 
ATOM      4  H   UNL     1      34.598 -16.542 -22.636  0.00  0.00    +0.150 HD
ENDROOT
BRANCH   3   9
ATOM      5  S   UNL     1      32.605 -13.842 -20.769  0.00  0.00    -0.051 S 
ATOM      6  O   UNL     1      33.393 -14.358 -25.353  0.00  0.00    -0.265 OA
ATOM      7  N   UNL     1      33.424 -14.871 -23.036  0.00  0.00    -0.257 N 
ATOM      8  N   UNL     1      32.264 -12.760 -23.091  0.00  0.00    -0.222 NA
ATOM      9  C   UNL     1      33.665 -15.043 -24.381  0.00  0.00    +0.305 C 
ATOM     10  C   UNL     1      32.761 -13.784 -22.465  0.00  0.00    +0.166 C 
ATOM     11  C   UNL     1      31.784 -12.339 -20.840  0.00  0.00    +0.059 C 
ATOM     12  C   UNL     1      31.696 -11.921 -22.152  0.00  0.00    +0.108 C 
ATOM     13  H   UNL     1      33.745 -15.574 -22.426  0.00  0.00    +0.157 HD
ENDBRANCH   3   9
BRANCH   2  14
ATOM     14  C   UNL     1      35.530 -18.206 -23.509  0.00  0.00    +0.072 C 
ATOM     15  C   UNL     1      34.596 -19.404 -23.386  0.00  0.00    +0.020 C 
ATOM     16  C   UNL     1      36.425 -18.349 -22.284  0.00  0.00    +0.020 C 
ATOM     17  C   UNL     1      34.311 -19.516 -21.891  0.00  0.00    +0.002 C 
ATOM     18  C   UNL     1      35.506 -18.876 -21.183  0.00  0.00    +0.002 C 
ENDBRANCH   2  14
TORSDOF 2
ENDMDL
MODEL 2
REMARK VINA RESULT:      -7.7      6.426      8.873
REMARK  Name = 2255489
REMARK  2 active torsions:
REMARK  status: ('A' for Active; 'I' for Inactive)
REMARK    1  A    between atoms: N_2  and  C_14
REMARK    2  A    between atoms: C_3  and  C_9
REMARK                            x       y       z     vdW  Elec       q    Type
REMARK                         _______ _______ _______ _____ _____    ______ ____
ROOT
ATOM      1  O   UNL     1      32.726 -21.784 -20.052  0.00  0.00    -0.265 OA
ATOM      2  N   UNL     1      34.568 -20.376 -20.427  0.00  0.00    -0.299 N 
ATOM      3  C   UNL     1      33.866 -21.402 -19.835  0.00  0.00    +0.300 C 
ATOM      4  H   UNL     1      35.490 -20.203 -20.127  0.00  0.00    +0.150 HD
ENDROOT
BRANCH   3   9
ATOM      5  S   UNL     1      33.037 -23.607 -15.488  0.00  0.00    -0.051 S 
ATOM      6  O   UNL     1      35.855 -22.182 -18.942  0.00  0.00    -0.265 OA
ATOM      7  N   UNL     1      33.839 -22.532 -17.741  0.00  0.00    -0.257 N 
ATOM      8  N   UNL     1      35.491 -23.529 -16.297  0.00  0.00    -0.222 NA
ATOM      9  C   UNL     1      34.651 -22.104 -18.768  0.00  0.00    +0.305 C 
ATOM     10  C   UNL     1      34.270 -23.200 -16.593  0.00  0.00    +0.166 C 
ATOM     11  C   UNL     1      34.235 -24.308 -14.483  0.00  0.00    +0.059 C 
ATOM     12  C   UNL     1      35.474 -24.171 -15.074  0.00  0.00    +0.108 C 
ATOM     13  H   UNL     1      32.874 -22.353 -17.822  0.00  0.00    +0.157 HD
ENDBRANCH   3   9
BRANCH   2  14
ATOM     14  C   UNL     1      34.016 -19.542 -21.466  0.00  0.00    +0.072 C 
ATOM     15  C   UNL     1      34.966 -19.418 -22.651  0.00  0.00    +0.020 C 
ATOM     16  C   UNL     1      33.853 -18.097 -21.011  0.00  0.00    +0.020 C 
ATOM     17  C   UNL     1      35.958 -18.334 -22.235  0.00  0.00    +0.002 C 
ATOM     18  C   UNL     1      35.228 -17.462 -21.213  0.00  0.00    +0.002 C 
ENDBRANCH   2  14
TORSDOF 2
ENDMDL
MODEL 3
REMARK VINA RESULT:      -7.5      1.860      1.981
REMARK  Name = 2255489
REMARK  2 active torsions:
REMARK  status: ('A' for Active; 'I' for Inactive)
REMARK    1  A    between atoms: N_2  and  C_14
REMARK    2  A    between atoms: C_3  and  C_9
REMARK                            x       y       z     vdW  Elec       q    Type
REMARK                         _______ _______ _______ _____ _____    ______ ____
ROOT
ATOM      1  O   UNL     1      34.270 -16.085 -25.108  0.00  0.00    -0.265 OA
ATOM      2  N   UNL     1      34.751 -16.793 -22.921  0.00  0.00    -0.299 N 
ATOM      3  C   UNL     1      34.220 -15.974 -23.892  0.00  0.00    +0.300 C 
ATOM      4  H   UNL     1      34.613 -16.552 -21.976  0.00  0.00    +0.150 HD
ENDROOT
BRANCH   3   9
ATOM      5  S   UNL     1      33.999 -11.093 -24.642  0.00  0.00    -0.051 S 
ATOM      6  O   UNL     1      32.751 -15.000 -22.390  0.00  0.00    -0.265 OA
ATOM      7  N   UNL     1      33.858 -13.624 -23.973  0.00  0.00    -0.257 N 
ATOM      8  N   UNL     1      32.537 -12.037 -22.731  0.00  0.00    -0.222 NA
ATOM      9  C   UNL     1      33.505 -14.785 -23.323  0.00  0.00    +0.305 C 
ATOM     10  C   UNL     1      33.382 -12.348 -23.667  0.00  0.00    +0.166 C 
ATOM     11  C   UNL     1      33.047  -9.989 -23.740  0.00  0.00    +0.059 C 
ATOM     12  C   UNL     1      32.341 -10.670 -22.770  0.00  0.00    +0.108 C 
ATOM     13  H   UNL     1      34.500 -13.698 -24.716  0.00  0.00    +0.157 HD
ENDBRANCH   3   9
BRANCH   2  14
ATOM     14  C   UNL     1      35.500 -17.988 -23.222  0.00  0.00    +0.072 C 
ATOM     15  C   UNL     1      34.601 -19.217 -23.275  0.00  0.00    +0.020 C 
ATOM     16  C   UNL     1      36.485 -18.337 -22.114  0.00  0.00    +0.020 C 
ATOM     17  C   UNL     1      34.430 -19.629 -21.815  0.00  0.00    +0.002 C 
ATOM     18  C   UNL     1      35.661 -19.100 -21.078  0.00  0.00    +0.002 C 
ENDBRANCH   2  14
TORSDOF 2
ENDMDL
MODEL 4
REMARK VINA RESULT:      -7.5      3.080      6.406
REMARK  Name = 2255489
REMARK  2 active torsions:
REMARK  status: ('A' for Active; 'I' for Inactive)
REMARK    1  A    between atoms: N_2  and  C_14
REMARK    2  A    between atoms: C_3  and  C_9
REMARK                            x       y       z     vdW  Elec       q    Type
REMARK                         _______ _______ _______ _____ _____    ______ ____
ROOT
ATOM      1  O   UNL     1      32.983 -14.255 -24.940  0.00  0.00    -0.265 OA
ATOM      2  N   UNL     1      33.969 -12.416 -23.863  0.00  0.00    -0.299 N 
ATOM      3  C   UNL     1      33.658 -13.742 -24.061  0.00  0.00    +0.300 C 
ATOM      4  H   UNL     1      34.533 -12.175 -23.093  0.00  0.00    +0.150 HD
ENDROOT
BRANCH   3   9
ATOM      5  S   UNL     1      34.817 -18.516 -23.502  0.00  0.00    -0.051 S 
ATOM      6  O   UNL     1      34.519 -14.114 -21.943  0.00  0.00    -0.265 OA
ATOM      7  N   UNL     1      34.335 -15.940 -23.447  0.00  0.00    -0.257 N 
ATOM      8  N   UNL     1      35.249 -16.976 -21.472  0.00  0.00    -0.222 NA
ATOM      9  C   UNL     1      34.238 -14.638 -23.007  0.00  0.00    +0.305 C 
ATOM     10  C   UNL     1      34.816 -17.014 -22.696  0.00  0.00    +0.166 C 
ATOM     11  C   UNL     1      35.467 -19.223 -22.083  0.00  0.00    +0.059 C 
ATOM     12  C   UNL     1      35.626 -18.255 -21.113  0.00  0.00    +0.108 C 
ATOM     13  H   UNL     1      34.041 -16.129 -24.367  0.00  0.00    +0.157 HD
ENDBRANCH   3   9
BRANCH   2  14
ATOM     14  C   UNL     1      33.509 -11.362 -24.734  0.00  0.00    +0.072 C 
ATOM     15  C   UNL     1      34.444 -11.164 -25.921  0.00  0.00    +0.020 C 
ATOM     16  C   UNL     1      33.541 -10.002 -24.048  0.00  0.00    +0.020 C 
ATOM     17  C   UNL     1      35.574 -10.294 -25.377  0.00  0.00    +0.002 C 
ATOM     18  C   UNL     1      34.982  -9.517 -24.201  0.00  0.00    +0.002 C 
ENDBRANCH   2  14
TORSDOF 2
ENDMDL
MODEL 5
REMARK VINA RESULT:      -7.3     10.191     11.903
REMARK  Name = 2255489
REMARK  2 active torsions:
REMARK  status: ('A' for Active; 'I' for Inactive)
REMARK    1  A    between atoms: N_2  and  C_14
REMARK    2  A    between atoms: C_3  and  C_9
REMARK                            x       y       z     vdW  Elec       q    Type
REMARK                         _______ _______ _______ _____ _____    ______ ____
ROOT
ATOM      1  O   UNL     1      32.354 -22.495 -18.136  0.00  0.00    -0.265 OA
ATOM      2  N   UNL     1      32.008 -23.465 -16.025  0.00  0.00    -0.299 N 
ATOM      3  C   UNL     1      32.742 -22.993 -17.091  0.00  0.00    +0.300 C 
ATOM      4  H   UNL     1      32.489 -23.838 -15.252  0.00  0.00    +0.150 HD
ENDROOT
BRANCH   3   9
ATOM      5  S   UNL     1      35.853 -24.585 -13.593  0.00  0.00    -0.051 S 
ATOM      6  O   UNL     1      34.932 -22.802 -17.821  0.00  0.00    -0.265 OA
ATOM      7  N   UNL     1      34.513 -23.681 -15.657  0.00  0.00    -0.257 N 
ATOM      8  N   UNL     1      36.919 -23.722 -15.784  0.00  0.00    -0.222 NA
ATOM      9  C   UNL     1      34.220 -23.157 -16.896  0.00  0.00    +0.305 C 
ATOM     10  C   UNL     1      35.795 -23.934 -15.168  0.00  0.00    +0.166 C 
ATOM     11  C   UNL     1      37.563 -24.602 -13.714  0.00  0.00    +0.059 C 
ATOM     12  C   UNL     1      37.945 -24.108 -14.944  0.00  0.00    +0.108 C 
ATOM     13  H   UNL     1      33.755 -23.896 -15.067  0.00  0.00    +0.157 HD
ENDBRANCH   3   9
BRANCH   2  14
ATOM     14  C   UNL     1      30.567 -23.435 -15.988  0.00  0.00    +0.072 C 
ATOM     15  C   UNL     1      30.048 -22.958 -14.637  0.00  0.00    +0.020 C 
ATOM     16  C   UNL     1      29.965 -24.829 -16.108  0.00  0.00    +0.020 C 
ATOM     17  C   UNL     1      30.099 -24.198 -13.749  0.00  0.00    +0.002 C 
ATOM     18  C   UNL     1      30.002 -25.399 -14.690  0.00  0.00    +0.002 C 
ENDBRANCH   2  14
TORSDOF 2
ENDMDL
MODEL 6
REMARK VINA RESULT:      -7.3     11.701     13.303
REMARK  Name = 2255489
REMARK  2 active torsions:
REMARK  status: ('A' for Active; 'I' for Inactive)
REMARK    1  A    between atoms: N_2  and  C_14
REMARK    2  A    between atoms: C_3  and  C_9
REMARK                            x       y       z     vdW  Elec       q    Type
REMARK                         _______ _______ _______ _____ _____    ______ ____
ROOT
ATOM      1  O   UNL     1      32.234 -25.051 -13.024  0.00  0.00    -0.265 OA
ATOM      2  N   UNL     1      31.502 -23.673 -14.778  0.00  0.00    -0.299 N 
ATOM      3  C   UNL     1      32.411 -24.395 -14.038  0.00  0.00    +0.300 C 
ATOM      4  H   UNL     1      31.819 -23.198 -15.580  0.00  0.00    +0.150 HD
ENDROOT
BRANCH   3   9
ATOM      5  S   UNL     1      37.003 -25.609 -12.665  0.00  0.00    -0.051 S 
ATOM      6  O   UNL     1      33.923 -23.799 -15.688  0.00  0.00    -0.265 OA
ATOM      7  N   UNL     1      34.726 -24.843 -13.715  0.00  0.00    -0.257 N 
ATOM      8  N   UNL     1      36.748 -24.470 -14.971  0.00  0.00    -0.222 NA
ATOM      9  C   UNL     1      33.803 -24.315 -14.590  0.00  0.00    +0.305 C 
ATOM     10  C   UNL     1      36.104 -24.899 -13.928  0.00  0.00    +0.166 C 
ATOM     11  C   UNL     1      38.424 -25.330 -13.583  0.00  0.00    +0.059 C 
ATOM     12  C   UNL     1      38.092 -24.717 -14.774  0.00  0.00    +0.108 C 
ATOM     13  H   UNL     1      34.386 -25.213 -12.868  0.00  0.00    +0.157 HD
ENDBRANCH   3   9
BRANCH   2  14
ATOM     14  C   UNL     1      30.104 -23.581 -14.434  0.00  0.00    +0.072 C 
ATOM     15  C   UNL     1      29.318 -24.779 -14.952  0.00  0.00    +0.020 C 
ATOM     16  C   UNL     1      29.423 -22.406 -15.126  0.00  0.00    +0.020 C 
ATOM     17  C   UNL     1      29.034 -24.449 -16.415  0.00  0.00    +0.002 C 
ATOM     18  C   UNL     1      29.061 -22.923 -16.517  0.00  0.00    +0.002 C 
ENDBRANCH   2  14
TORSDOF 2
ENDMDL
MODEL 7
REMARK VINA RESULT:      -7.2      3.190      4.316
REMARK  Name = 2255489
REMARK  2 active torsions:
REMARK  status: ('A' for Active; 'I' for Inactive)
REMARK    1  A    between atoms: N_2  and  C_14
REMARK    2  A    between atoms: C_3  and  C_9
REMARK                            x       y       z     vdW  Elec       q    Type
REMARK                         _______ _______ _______ _____ _____    ______ ____
ROOT
ATOM      1  O   UNL     1      33.420 -13.526 -25.348  0.00  0.00    -0.265 OA
ATOM      2  N   UNL     1      33.544 -13.436 -23.005  0.00  0.00    -0.299 N 
ATOM      3  C   UNL     1      33.564 -12.937 -24.288  0.00  0.00    +0.300 C 
ATOM      4  H   UNL     1      33.677 -12.812 -22.256  0.00  0.00    +0.150 HD
ENDROOT
BRANCH   3   9
ATOM      5  S   UNL     1      32.155  -8.870 -21.856  0.00  0.00    -0.051 S 
ATOM      6  O   UNL     1      34.572 -11.066 -25.207  0.00  0.00    -0.265 OA
ATOM      7  N   UNL     1      33.116 -10.795 -23.354  0.00  0.00    -0.257 N 
ATOM      8  N   UNL     1      33.788  -8.530 -23.830  0.00  0.00    -0.222 NA
ATOM      9  C   UNL     1      33.819 -11.460 -24.333  0.00  0.00    +0.305 C 
ATOM     10  C   UNL     1      33.126  -9.414 -23.147  0.00  0.00    +0.166 C 
ATOM     11  C   UNL     1      32.651  -7.270 -22.219  0.00  0.00    +0.059 C 
ATOM     12  C   UNL     1      33.514  -7.286 -23.295  0.00  0.00    +0.108 C 
ATOM     13  H   UNL     1      32.560 -11.337 -22.748  0.00  0.00    +0.157 HD
ENDBRANCH   3   9
BRANCH   2  14
ATOM     14  C   UNL     1      33.337 -14.832 -22.707  0.00  0.00    +0.072 C 
ATOM     15  C   UNL     1      32.319 -15.023 -21.589  0.00  0.00    +0.020 C 
ATOM     16  C   UNL     1      34.590 -15.486 -22.138  0.00  0.00    +0.020 C 
ATOM     17  C   UNL     1      33.117 -14.813 -20.305  0.00  0.00    +0.002 C 
ATOM     18  C   UNL     1      34.569 -15.151 -20.647  0.00  0.00    +0.002 C 
ENDBRANCH   2  14
TORSDOF 2
ENDMDL
MODEL 8
REMARK VINA RESULT:      -7.1      4.531      7.128
REMARK  Name = 2255489
REMARK  2 active torsions:
REMARK  status: ('A' for Active; 'I' for Inactive)
REMARK    1  A    between atoms: N_2  and  C_14
REMARK    2  A    between atoms: C_3  and  C_9
REMARK                            x       y       z     vdW  Elec       q    Type
REMARK                         _______ _______ _______ _____ _____    ______ ____
ROOT
ATOM      1  O   UNL     1      34.729 -19.160 -22.666  0.00  0.00    -0.265 OA
ATOM      2  N   UNL     1      34.145 -17.606 -21.005  0.00  0.00    -0.299 N 
ATOM      3  C   UNL     1      34.227 -18.846 -21.597  0.00  0.00    +0.300 C 
ATOM      4  H   UNL     1      33.702 -17.532 -20.129  0.00  0.00    +0.150 HD
ENDROOT
BRANCH   3   9
ATOM      5  S   UNL     1      35.474 -22.062 -18.056  0.00  0.00    -0.051 S 
ATOM      6  O   UNL     1      32.398 -20.141 -21.013  0.00  0.00    -0.265 OA
ATOM      7  N   UNL     1      34.465 -20.502 -19.905  0.00  0.00    -0.257 N 
ATOM      8  N   UNL     1      33.027 -22.143 -18.882  0.00  0.00    -0.222 NA
ATOM      9  C   UNL     1      33.576 -19.924 -20.784  0.00  0.00    +0.305 C 
ATOM     10  C   UNL     1      34.171 -21.545 -19.025  0.00  0.00    +0.166 C 
ATOM     11  C   UNL     1      34.427 -23.218 -17.346  0.00  0.00    +0.059 C 
ATOM     12  C   UNL     1      33.172 -23.114 -17.910  0.00  0.00    +0.108 C 
ATOM     13  H   UNL     1      35.385 -20.151 -19.897  0.00  0.00    +0.157 HD
ENDBRANCH   3   9
BRANCH   2  14
ATOM     14  C   UNL     1      34.681 -16.410 -21.605  0.00  0.00    +0.072 C 
ATOM     15  C   UNL     1      34.721 -15.252 -20.616  0.00  0.00    +0.020 C 
ATOM     16  C   UNL     1      33.782 -15.877 -22.714  0.00  0.00    +0.020 C 
ATOM     17  C   UNL     1      33.302 -14.687 -20.631  0.00  0.00    +0.002 C 
ATOM     18  C   UNL     1      32.715 -15.053 -21.994  0.00  0.00    +0.002 C 
ENDBRANCH   2  14
TORSDOF 2
ENDMDL
MODEL 9
REMARK VINA RESULT:      -7.0      6.424      8.637
REMARK  Name = 2255489
REMARK  2 active torsions:
REMARK  status: ('A' for Active; 'I' for Inactive)
REMARK    1  A    between atoms: N_2  and  C_14
REMARK    2  A    between atoms: C_3  and  C_9
REMARK                            x       y       z     vdW  Elec       q    Type
REMARK                         _______ _______ _______ _____ _____    ______ ____
ROOT
ATOM      1  O   UNL     1      36.016 -22.015 -19.695  0.00  0.00    -0.265 OA
ATOM      2  N   UNL     1      34.511 -20.476 -20.634  0.00  0.00    -0.299 N 
ATOM      3  C   UNL     1      34.921 -21.481 -19.787  0.00  0.00    +0.300 C 
ATOM      4  H   UNL     1      33.581 -20.160 -20.573  0.00  0.00    +0.150 HD
ENDROOT
BRANCH   3   9
ATOM      5  S   UNL     1      34.464 -23.755 -15.421  0.00  0.00    -0.051 S 
ATOM      6  O   UNL     1      32.684 -21.801 -19.283  0.00  0.00    -0.265 OA
ATOM      7  N   UNL     1      34.328 -22.545 -17.743  0.00  0.00    -0.257 N 
ATOM      8  N   UNL     1      32.271 -23.184 -16.664  0.00  0.00    -0.222 NA
ATOM      9  C   UNL     1      33.825 -21.966 -18.887  0.00  0.00    +0.305 C 
ATOM     10  C   UNL     1      33.566 -23.108 -16.718  0.00  0.00    +0.166 C 
ATOM     11  C   UNL     1      32.983 -24.197 -14.679  0.00  0.00    +0.059 C 
ATOM     12  C   UNL     1      31.930 -23.815 -15.484  0.00  0.00    +0.108 C 
ATOM     13  H   UNL     1      35.307 -22.563 -17.638  0.00  0.00    +0.157 HD
ENDBRANCH   3   9
BRANCH   2  14
ATOM     14  C   UNL     1      35.382 -19.862 -21.606  0.00  0.00    +0.072 C 
ATOM     15  C   UNL     1      36.197 -18.729 -20.995  0.00  0.00    +0.020 C 
ATOM     16  C   UNL     1      34.599 -19.159 -22.708  0.00  0.00    +0.020 C 
ATOM     17  C   UNL     1      35.253 -17.530 -21.004  0.00  0.00    +0.002 C 
ATOM     18  C   UNL     1      34.253 -17.786 -22.132  0.00  0.00    +0.002 C 
ENDBRANCH   2  14
TORSDOF 2
ENDMDL
