MODEL 1
REMARK VINA RESULT:      -9.1      0.000      0.000
REMARK  Name = 25203945
REMARK  2 active torsions:
REMARK  status: ('A' for Active; 'I' for Inactive)
REMARK    1  A    between atoms: C_7  and  C_13
REMARK    2  A    between atoms: C_10  and  O_19
REMARK                            x       y       z     vdW  Elec       q    Type
REMARK                         _______ _______ _______ _____ _____    ______ ____
ROOT
ATOM      1 CL   UNL     1      34.617 -14.441 -20.207  0.00  0.00    -0.079 Cl
ATOM      2  N   UNL     1      34.889 -19.679 -23.829  0.00  0.00    -0.270 NA
ATOM      3  C   UNL     1      34.327 -16.888 -23.995  0.00  0.00    -0.016 C 
ATOM      4  C   UNL     1      34.248 -17.739 -25.227  0.00  0.00    +0.053 C 
ATOM      5  C   UNL     1      34.505 -17.516 -22.755  0.00  0.00    +0.014 C 
ATOM      6  C   UNL     1      35.176 -18.934 -25.059  0.00  0.00    +0.130 C 
ATOM      7  C   UNL     1      34.598 -19.002 -22.764  0.00  0.00    +0.076 C 
ATOM      8  C   UNL     1      34.195 -15.499 -24.056  0.00  0.00    +0.034 C 
ATOM      9  C   UNL     1      34.607 -16.753 -21.589  0.00  0.00    +0.016 C 
ATOM     10  C   UNL     1      34.277 -14.738 -22.889  0.00  0.00    +0.149 C 
ATOM     11  C   UNL     1      34.489 -15.363 -21.660  0.00  0.00    +0.092 C 
ENDROOT
BRANCH   7  13
ATOM     12 BR   UNL     1      36.555 -21.675 -18.575  0.00  0.00    -0.049 Br
ATOM     13  C   UNL     1      34.324 -19.773 -21.528  0.00  0.00    +0.018 C 
ATOM     14  C   UNL     1      35.381 -20.273 -20.768  0.00  0.00    +0.008 C 
ATOM     15  C   UNL     1      33.008 -19.999 -21.125  0.00  0.00    +0.002 C 
ATOM     16  C   UNL     1      35.123 -20.998 -19.605  0.00  0.00    +0.035 C 
ATOM     17  C   UNL     1      32.749 -20.724 -19.962  0.00  0.00    +0.001 C 
ATOM     18  C   UNL     1      33.806 -21.224 -19.202  0.00  0.00    +0.007 C 
ENDBRANCH   7  13
BRANCH  10  19
ATOM     19  O   UNL     1      34.142 -13.385 -22.978  0.00  0.00    -0.471 OA
ATOM     20  C   UNL     1      33.523 -12.873 -24.157  0.00  0.00    +0.253 C 
ENDBRANCH  10  19
TORSDOF 2
ENDMDL
MODEL 2
REMARK VINA RESULT:      -8.9      4.007      7.463
REMARK  Name = 25203945
REMARK  2 active torsions:
REMARK  status: ('A' for Active; 'I' for Inactive)
REMARK    1  A    between atoms: C_7  and  C_13
REMARK    2  A    between atoms: C_10  and  O_19
REMARK                            x       y       z     vdW  Elec       q    Type
REMARK                         _______ _______ _______ _____ _____    ______ ____
ROOT
ATOM      1 CL   UNL     1      34.802 -14.909 -20.029  0.00  0.00    -0.079 Cl
ATOM      2  N   UNL     1      32.941 -13.487 -25.957  0.00  0.00    -0.270 NA
ATOM      3  C   UNL     1      34.086 -15.609 -24.436  0.00  0.00    -0.016 C 
ATOM      4  C   UNL     1      33.826 -15.798 -25.901  0.00  0.00    +0.053 C 
ATOM      5  C   UNL     1      33.922 -14.332 -23.883  0.00  0.00    +0.014 C 
ATOM      6  C   UNL     1      32.682 -14.884 -26.318  0.00  0.00    +0.130 C 
ATOM      7  C   UNL     1      33.500 -13.249 -24.814  0.00  0.00    +0.076 C 
ATOM      8  C   UNL     1      34.516 -16.664 -23.627  0.00  0.00    +0.034 C 
ATOM      9  C   UNL     1      34.133 -14.125 -22.517  0.00  0.00    +0.016 C 
ATOM     10  C   UNL     1      34.744 -16.453 -22.267  0.00  0.00    +0.149 C 
ATOM     11  C   UNL     1      34.547 -15.188 -21.713  0.00  0.00    +0.092 C 
ENDROOT
BRANCH   7  13
ATOM     12 BR   UNL     1      32.094  -9.018 -21.875  0.00  0.00    -0.049 Br
ATOM     13  C   UNL     1      33.741 -11.829 -24.462  0.00  0.00    +0.018 C 
ATOM     14  C   UNL     1      32.945 -11.202 -23.503  0.00  0.00    +0.008 C 
ATOM     15  C   UNL     1      34.764 -11.119 -25.091  0.00  0.00    +0.002 C 
ATOM     16  C   UNL     1      33.172  -9.867 -23.173  0.00  0.00    +0.035 C 
ATOM     17  C   UNL     1      34.992  -9.784 -24.761  0.00  0.00    +0.001 C 
ATOM     18  C   UNL     1      34.196  -9.157 -23.802  0.00  0.00    +0.007 C 
ENDBRANCH   7  13
BRANCH  10  19
ATOM     19  O   UNL     1      35.166 -17.500 -21.503  0.00  0.00    -0.471 OA
ATOM     20  C   UNL     1      34.292 -18.624 -21.408  0.00  0.00    +0.253 C 
ENDBRANCH  10  19
TORSDOF 2
ENDMDL
MODEL 3
REMARK VINA RESULT:      -8.6      6.805     10.862
REMARK  Name = 25203945
REMARK  2 active torsions:
REMARK  status: ('A' for Active; 'I' for Inactive)
REMARK    1  A    between atoms: C_7  and  C_13
REMARK    2  A    between atoms: C_10  and  O_19
REMARK                            x       y       z     vdW  Elec       q    Type
REMARK                         _______ _______ _______ _____ _____    ______ ____
ROOT
ATOM      1 CL   UNL     1      33.781 -12.768 -24.828  0.00  0.00    -0.079 Cl
ATOM      2  N   UNL     1      32.399  -8.106 -20.707  0.00  0.00    -0.270 NA
ATOM      3  C   UNL     1      31.827 -10.850 -21.234  0.00  0.00    -0.016 C 
ATOM      4  C   UNL     1      31.205 -10.173 -20.049  0.00  0.00    +0.053 C 
ATOM      5  C   UNL     1      32.538 -10.071 -22.156  0.00  0.00    +0.014 C 
ATOM      6  C   UNL     1      32.109  -9.030 -19.606  0.00  0.00    +0.130 C 
ATOM      7  C   UNL     1      32.614  -8.610 -21.881  0.00  0.00    +0.076 C 
ATOM      8  C   UNL     1      31.685 -12.223 -21.450  0.00  0.00    +0.034 C 
ATOM      9  C   UNL     1      33.151 -10.672 -23.259  0.00  0.00    +0.016 C 
ATOM     10  C   UNL     1      32.280 -12.820 -22.561  0.00  0.00    +0.149 C 
ATOM     11  C   UNL     1      33.017 -12.047 -23.459  0.00  0.00    +0.092 C 
ENDROOT
BRANCH   7  13
ATOM     12 BR   UNL     1      30.978  -4.534 -24.920  0.00  0.00    -0.049 Br
ATOM     13  C   UNL     1      32.919  -7.661 -22.977  0.00  0.00    +0.018 C 
ATOM     14  C   UNL     1      31.972  -6.712 -23.364  0.00  0.00    +0.008 C 
ATOM     15  C   UNL     1      34.153  -7.717 -23.625  0.00  0.00    +0.002 C 
ATOM     16  C   UNL     1      32.260  -5.820 -24.397  0.00  0.00    +0.035 C 
ATOM     17  C   UNL     1      34.441  -6.825 -24.657  0.00  0.00    +0.001 C 
ATOM     18  C   UNL     1      33.495  -5.877 -25.044  0.00  0.00    +0.007 C 
ENDBRANCH   7  13
BRANCH  10  19
ATOM     19  O   UNL     1      32.122 -14.160 -22.748  0.00  0.00    -0.471 OA
ATOM     20  C   UNL     1      32.636 -15.020 -21.732  0.00  0.00    +0.253 C 
ENDBRANCH  10  19
TORSDOF 2
ENDMDL
MODEL 4
REMARK VINA RESULT:      -8.6      7.862     10.061
REMARK  Name = 25203945
REMARK  2 active torsions:
REMARK  status: ('A' for Active; 'I' for Inactive)
REMARK    1  A    between atoms: C_7  and  C_13
REMARK    2  A    between atoms: C_10  and  O_19
REMARK                            x       y       z     vdW  Elec       q    Type
REMARK                         _______ _______ _______ _____ _____    ______ ____
ROOT
ATOM      1 CL   UNL     1      36.760 -25.823 -12.975  0.00  0.00    -0.079 Cl
ATOM      2  N   UNL     1      33.836 -22.600 -17.632  0.00  0.00    -0.270 NA
ATOM      3  C   UNL     1      36.382 -22.872 -16.376  0.00  0.00    -0.016 C 
ATOM      4  C   UNL     1      36.211 -21.909 -17.513  0.00  0.00    +0.053 C 
ATOM      5  C   UNL     1      35.244 -23.491 -15.842  0.00  0.00    +0.014 C 
ATOM      6  C   UNL     1      35.070 -22.391 -18.398  0.00  0.00    +0.130 C 
ATOM      7  C   UNL     1      33.936 -23.129 -16.454  0.00  0.00    +0.076 C 
ATOM      8  C   UNL     1      37.638 -23.138 -15.825  0.00  0.00    +0.034 C 
ATOM      9  C   UNL     1      35.369 -24.412 -14.798  0.00  0.00    +0.016 C 
ATOM     10  C   UNL     1      37.761 -24.043 -14.771  0.00  0.00    +0.149 C 
ATOM     11  C   UNL     1      36.630 -24.683 -14.264  0.00  0.00    +0.092 C 
ENDROOT
BRANCH   7  13
ATOM     12 BR   UNL     1      28.650 -23.879 -16.603  0.00  0.00    -0.049 Br
ATOM     13  C   UNL     1      32.677 -23.344 -15.702  0.00  0.00    +0.018 C 
ATOM     14  C   UNL     1      31.470 -23.485 -16.386  0.00  0.00    +0.008 C 
ATOM     15  C   UNL     1      32.699 -23.403 -14.308  0.00  0.00    +0.002 C 
ATOM     16  C   UNL     1      30.286 -23.687 -15.677  0.00  0.00    +0.035 C 
ATOM     17  C   UNL     1      31.516 -23.605 -13.599  0.00  0.00    +0.001 C 
ATOM     18  C   UNL     1      30.309 -23.747 -14.283  0.00  0.00    +0.007 C 
ENDBRANCH   7  13
BRANCH  10  19
ATOM     19  O   UNL     1      38.998 -24.280 -14.252  0.00  0.00    -0.471 OA
ATOM     20  C   UNL     1      39.801 -25.258 -14.912  0.00  0.00    +0.253 C 
ENDBRANCH  10  19
TORSDOF 2
ENDMDL
MODEL 5
REMARK VINA RESULT:      -8.5      7.635      9.751
REMARK  Name = 25203945
REMARK  2 active torsions:
REMARK  status: ('A' for Active; 'I' for Inactive)
REMARK    1  A    between atoms: C_7  and  C_13
REMARK    2  A    between atoms: C_10  and  O_19
REMARK                            x       y       z     vdW  Elec       q    Type
REMARK                         _______ _______ _______ _____ _____    ______ ____
ROOT
ATOM      1 CL   UNL     1      30.759 -23.869 -12.989  0.00  0.00    -0.079 Cl
ATOM      2  N   UNL     1      35.579 -22.994 -17.065  0.00  0.00    -0.270 NA
ATOM      3  C   UNL     1      32.730 -23.071 -16.975  0.00  0.00    -0.016 C 
ATOM      4  C   UNL     1      33.428 -22.805 -18.276  0.00  0.00    +0.053 C 
ATOM      5  C   UNL     1      33.498 -23.449 -15.866  0.00  0.00    +0.014 C 
ATOM      6  C   UNL     1      34.783 -22.175 -17.986  0.00  0.00    +0.130 C 
ATOM      7  C   UNL     1      34.968 -23.563 -16.076  0.00  0.00    +0.076 C 
ATOM      8  C   UNL     1      31.340 -22.982 -16.859  0.00  0.00    +0.034 C 
ATOM      9  C   UNL     1      32.883 -23.683 -14.633  0.00  0.00    +0.016 C 
ATOM     10  C   UNL     1      30.726 -23.233 -15.632  0.00  0.00    +0.149 C 
ATOM     11  C   UNL     1      31.496 -23.576 -14.521  0.00  0.00    +0.092 C 
ENDROOT
BRANCH   7  13
ATOM     12 BR   UNL     1      38.068 -23.711 -11.731  0.00  0.00    -0.049 Br
ATOM     13  C   UNL     1      35.791 -24.374 -15.150  0.00  0.00    +0.018 C 
ATOM     14  C   UNL     1      36.429 -23.768 -14.067  0.00  0.00    +0.008 C 
ATOM     15  C   UNL     1      35.931 -25.746 -15.361  0.00  0.00    +0.002 C 
ATOM     16  C   UNL     1      37.205 -24.532 -13.196  0.00  0.00    +0.035 C 
ATOM     17  C   UNL     1      36.706 -26.511 -14.490  0.00  0.00    +0.001 C 
ATOM     18  C   UNL     1      37.343 -25.905 -13.408  0.00  0.00    +0.007 C 
ENDBRANCH   7  13
BRANCH  10  19
ATOM     19  O   UNL     1      29.369 -23.141 -15.549  0.00  0.00    -0.471 OA
ATOM     20  C   UNL     1      28.609 -23.920 -16.472  0.00  0.00    +0.253 C 
ENDBRANCH  10  19
TORSDOF 2
ENDMDL
MODEL 6
REMARK VINA RESULT:      -8.4      1.837      2.492
REMARK  Name = 25203945
REMARK  2 active torsions:
REMARK  status: ('A' for Active; 'I' for Inactive)
REMARK    1  A    between atoms: C_7  and  C_13
REMARK    2  A    between atoms: C_10  and  O_19
REMARK                            x       y       z     vdW  Elec       q    Type
REMARK                         _______ _______ _______ _____ _____    ______ ____
ROOT
ATOM      1 CL   UNL     1      32.856 -13.761 -19.866  0.00  0.00    -0.079 Cl
ATOM      2  N   UNL     1      35.279 -17.397 -24.506  0.00  0.00    -0.270 NA
ATOM      3  C   UNL     1      33.414 -15.281 -24.084  0.00  0.00    -0.016 C 
ATOM      4  C   UNL     1      33.636 -15.814 -25.469  0.00  0.00    +0.053 C 
ATOM      5  C   UNL     1      34.000 -15.953 -23.003  0.00  0.00    +0.014 C 
ATOM      6  C   UNL     1      35.040 -16.396 -25.551  0.00  0.00    +0.130 C 
ATOM      7  C   UNL     1      34.804 -17.165 -23.324  0.00  0.00    +0.076 C 
ATOM      8  C   UNL     1      32.616 -14.158 -23.852  0.00  0.00    +0.034 C 
ATOM      9  C   UNL     1      33.834 -15.471 -21.702  0.00  0.00    +0.016 C 
ATOM     10  C   UNL     1      32.435 -13.688 -22.552  0.00  0.00    +0.149 C 
ATOM     11  C   UNL     1      33.047 -14.339 -21.480  0.00  0.00    +0.092 C 
ENDROOT
BRANCH   7  13
ATOM     12 BR   UNL     1      32.829 -20.851 -20.003  0.00  0.00    -0.049 Br
ATOM     13  C   UNL     1      35.067 -18.182 -22.279  0.00  0.00    +0.018 C 
ATOM     14  C   UNL     1      34.011 -18.909 -21.730  0.00  0.00    +0.008 C 
ATOM     15  C   UNL     1      36.372 -18.410 -21.842  0.00  0.00    +0.002 C 
ATOM     16  C   UNL     1      34.260 -19.865 -20.746  0.00  0.00    +0.035 C 
ATOM     17  C   UNL     1      36.621 -19.366 -20.858  0.00  0.00    +0.001 C 
ATOM     18  C   UNL     1      35.565 -20.094 -20.309  0.00  0.00    +0.007 C 
ENDBRANCH   7  13
BRANCH  10  19
ATOM     19  O   UNL     1      31.649 -12.592 -22.355  0.00  0.00    -0.471 OA
ATOM     20  C   UNL     1      32.253 -11.316 -22.565  0.00  0.00    +0.253 C 
ENDBRANCH  10  19
TORSDOF 2
ENDMDL
MODEL 7
REMARK VINA RESULT:      -8.2      6.508     10.547
REMARK  Name = 25203945
REMARK  2 active torsions:
REMARK  status: ('A' for Active; 'I' for Inactive)
REMARK    1  A    between atoms: C_7  and  C_13
REMARK    2  A    between atoms: C_10  and  O_19
REMARK                            x       y       z     vdW  Elec       q    Type
REMARK                         _______ _______ _______ _____ _____    ______ ____
ROOT
ATOM      1 CL   UNL     1      33.815 -12.388 -25.152  0.00  0.00    -0.079 Cl
ATOM      2  N   UNL     1      31.876  -8.570 -20.431  0.00  0.00    -0.270 NA
ATOM      3  C   UNL     1      31.835 -11.305 -21.238  0.00  0.00    -0.016 C 
ATOM      4  C   UNL     1      31.194 -10.899 -19.943  0.00  0.00    +0.053 C 
ATOM      5  C   UNL     1      32.287 -10.303 -22.106  0.00  0.00    +0.014 C 
ATOM      6  C   UNL     1      31.880  -9.641 -19.430  0.00  0.00    +0.130 C 
ATOM      7  C   UNL     1      32.085  -8.894 -21.667  0.00  0.00    +0.076 C 
ATOM      8  C   UNL     1      31.959 -12.647 -21.604  0.00  0.00    +0.034 C 
ATOM      9  C   UNL     1      32.909 -10.645 -23.310  0.00  0.00    +0.016 C 
ATOM     10  C   UNL     1      32.563 -12.988 -22.814  0.00  0.00    +0.149 C 
ATOM     11  C   UNL     1      33.043 -11.989 -23.661  0.00  0.00    +0.092 C 
ENDROOT
BRANCH   7  13
ATOM     12 BR   UNL     1      34.727  -6.281 -25.502  0.00  0.00    -0.049 Br
ATOM     13  C   UNL     1      32.091  -7.796 -22.662  0.00  0.00    +0.018 C 
ATOM     14  C   UNL     1      33.208  -7.591 -23.471  0.00  0.00    +0.008 C 
ATOM     15  C   UNL     1      30.977  -6.965 -22.789  0.00  0.00    +0.002 C 
ATOM     16  C   UNL     1      33.213  -6.557 -24.407  0.00  0.00    +0.035 C 
ATOM     17  C   UNL     1      30.981  -5.931 -23.725  0.00  0.00    +0.001 C 
ATOM     18  C   UNL     1      32.099  -5.727 -24.534  0.00  0.00    +0.007 C 
ENDBRANCH   7  13
BRANCH  10  19
ATOM     19  O   UNL     1      32.668 -14.305 -23.146  0.00  0.00    -0.471 OA
ATOM     20  C   UNL     1      33.741 -15.038 -22.558  0.00  0.00    +0.253 C 
ENDBRANCH  10  19
TORSDOF 2
ENDMDL
MODEL 8
REMARK VINA RESULT:      -8.2      4.541      6.888
REMARK  Name = 25203945
REMARK  2 active torsions:
REMARK  status: ('A' for Active; 'I' for Inactive)
REMARK    1  A    between atoms: C_7  and  C_13
REMARK    2  A    between atoms: C_10  and  O_19
REMARK                            x       y       z     vdW  Elec       q    Type
REMARK                         _______ _______ _______ _____ _____    ______ ____
ROOT
ATOM      1 CL   UNL     1      35.698 -10.389 -25.997  0.00  0.00    -0.079 Cl
ATOM      2  N   UNL     1      31.490 -12.528 -21.715  0.00  0.00    -0.270 NA
ATOM      3  C   UNL     1      32.696 -10.112 -22.632  0.00  0.00    -0.016 C 
ATOM      4  C   UNL     1      31.690 -10.068 -21.520  0.00  0.00    +0.053 C 
ATOM      5  C   UNL     1      33.150 -11.360 -23.078  0.00  0.00    +0.014 C 
ATOM      6  C   UNL     1      30.754 -11.262 -21.658  0.00  0.00    +0.130 C 
ATOM      7  C   UNL     1      32.592 -12.560 -22.395  0.00  0.00    +0.076 C 
ATOM      8  C   UNL     1      33.206  -8.944 -23.204  0.00  0.00    +0.034 C 
ATOM      9  C   UNL     1      34.070 -11.440 -24.127  0.00  0.00    +0.016 C 
ATOM     10  C   UNL     1      34.138  -9.023 -24.238  0.00  0.00    +0.149 C 
ATOM     11  C   UNL     1      34.564 -10.268 -24.703  0.00  0.00    +0.092 C 
ENDROOT
BRANCH   7  13
ATOM     12 BR   UNL     1      34.284 -16.668 -25.358  0.00  0.00    -0.049 Br
ATOM     13  C   UNL     1      33.314 -13.853 -22.451  0.00  0.00    +0.018 C 
ATOM     14  C   UNL     1      33.437 -14.532 -23.663  0.00  0.00    +0.008 C 
ATOM     15  C   UNL     1      33.870 -14.392 -21.291  0.00  0.00    +0.002 C 
ATOM     16  C   UNL     1      34.116 -15.749 -23.716  0.00  0.00    +0.035 C 
ATOM     17  C   UNL     1      34.549 -15.609 -21.343  0.00  0.00    +0.001 C 
ATOM     18  C   UNL     1      34.673 -16.287 -22.555  0.00  0.00    +0.007 C 
ENDBRANCH   7  13
BRANCH  10  19
ATOM     19  O   UNL     1      34.621  -7.867 -24.775  0.00  0.00    -0.471 OA
ATOM     20  C   UNL     1      33.945  -6.660 -24.425  0.00  0.00    +0.253 C 
ENDBRANCH  10  19
TORSDOF 2
ENDMDL
MODEL 9
REMARK VINA RESULT:      -8.0      6.079      9.392
REMARK  Name = 25203945
REMARK  2 active torsions:
REMARK  status: ('A' for Active; 'I' for Inactive)
REMARK    1  A    between atoms: C_7  and  C_13
REMARK    2  A    between atoms: C_10  and  O_19
REMARK                            x       y       z     vdW  Elec       q    Type
REMARK                         _______ _______ _______ _____ _____    ______ ____
ROOT
ATOM      1 CL   UNL     1      29.739 -22.828 -17.131  0.00  0.00    -0.079 Cl
ATOM      2  N   UNL     1      36.004 -23.638 -16.285  0.00  0.00    -0.270 NA
ATOM      3  C   UNL     1      33.545 -23.661 -14.842  0.00  0.00    -0.016 C 
ATOM      4  C   UNL     1      34.833 -23.937 -14.125  0.00  0.00    +0.053 C 
ATOM      5  C   UNL     1      33.597 -23.226 -16.173  0.00  0.00    +0.014 C 
ATOM      6  C   UNL     1      35.835 -24.509 -15.118  0.00  0.00    +0.130 C 
ATOM      7  C   UNL     1      34.950 -23.065 -16.773  0.00  0.00    +0.076 C 
ATOM      8  C   UNL     1      32.309 -23.797 -14.205  0.00  0.00    +0.034 C 
ATOM      9  C   UNL     1      32.415 -22.981 -16.879  0.00  0.00    +0.016 C 
ATOM     10  C   UNL     1      31.131 -23.536 -14.904  0.00  0.00    +0.149 C 
ATOM     11  C   UNL     1      31.184 -23.135 -16.240  0.00  0.00    +0.092 C 
ENDROOT
BRANCH   7  13
ATOM     12 BR   UNL     1      32.714 -20.309 -20.763  0.00  0.00    -0.049 Br
ATOM     13  C   UNL     1      35.140 -22.199 -17.960  0.00  0.00    +0.018 C 
ATOM     14  C   UNL     1      34.033 -21.742 -18.676  0.00  0.00    +0.008 C 
ATOM     15  C   UNL     1      36.427 -21.842 -18.365  0.00  0.00    +0.002 C 
ATOM     16  C   UNL     1      34.213 -20.928 -19.794  0.00  0.00    +0.035 C 
ATOM     17  C   UNL     1      36.606 -21.028 -19.482  0.00  0.00    +0.001 C 
ATOM     18  C   UNL     1      35.500 -20.571 -20.197  0.00  0.00    +0.007 C 
ENDBRANCH   7  13
BRANCH  10  19
ATOM     19  O   UNL     1      29.940 -23.675 -14.257  0.00  0.00    -0.471 OA
ATOM     20  C   UNL     1      29.210 -24.877 -14.495  0.00  0.00    +0.253 C 
ENDBRANCH  10  19
TORSDOF 2
ENDMDL
