MODEL 1
REMARK VINA RESULT:      -9.6      0.000      0.000
REMARK  Name = 164628
REMARK  10 active torsions:
REMARK  status: ('A' for Active; 'I' for Inactive)
REMARK    1  A    between atoms: C_2  and  O_16
REMARK    2  A    between atoms: C_3  and  C_18
REMARK    3  A    between atoms: C_5  and  N_8
REMARK    4  A    between atoms: C_18  and  O_19
REMARK    5  A    between atoms: O_19  and  P_20
REMARK    6  A    between atoms: P_20  and  O_22
REMARK    7  A    between atoms: P_20  and  O_24
REMARK    8  A    between atoms: O_24  and  P_25
REMARK    9  A    between atoms: P_25  and  O_27
REMARK   10  A    between atoms: P_25  and  O_29
REMARK                            x       y       z     vdW  Elec       q    Type
REMARK                         _______ _______ _______ _____ _____    ______ ____
ROOT
ATOM      1  O   UNL     1      35.138 -24.591 -16.108  0.00  0.00    -0.335 OA
ATOM      2  C   UNL     1      36.790 -22.956 -15.640  0.00  0.00    +0.144 C 
ATOM      3  C   UNL     1      36.340 -24.379 -15.341  0.00  0.00    +0.174 C 
ATOM      4  C   UNL     1      35.493 -22.243 -15.942  0.00  0.00    +0.083 C 
ATOM      5  C   UNL     1      34.666 -23.331 -16.606  0.00  0.00    +0.202 C 
ENDROOT
BRANCH   5   8
ATOM      6  O   UNL     1      32.693 -22.494 -18.481  0.00  0.00    -0.252 OA
ATOM      7  O   UNL     1      29.323 -22.920 -15.379  0.00  0.00    -0.270 OA
ATOM      8  N   UNL     1      33.264 -23.208 -16.333  0.00  0.00    -0.219 N 
ATOM      9  N   UNL     1      31.022 -22.710 -16.924  0.00  0.00    -0.236 N 
ATOM     10  C   UNL     1      32.808 -23.517 -15.058  0.00  0.00    +0.071 C 
ATOM     11  C   UNL     1      32.359 -22.783 -17.330  0.00  0.00    +0.315 C 
ATOM     12  C   UNL     1      31.528 -23.445 -14.673  0.00  0.00    +0.047 C 
ATOM     13  C   UNL     1      30.515 -23.006 -15.668  0.00  0.00    +0.250 C 
ATOM     14  C   UNL     1      31.058 -23.783 -13.294  0.00  0.00    +0.037 C 
ATOM     15  H   UNL     1      30.373 -22.416 -17.603  0.00  0.00    +0.159 HD
ENDBRANCH   5   8
BRANCH   2  16
ATOM     16  O   UNL     1      37.626 -22.944 -16.795  0.00  0.00    -0.382 OA
ATOM     17  H   UNL     1      37.925 -22.038 -16.969  0.00  0.00    +0.210 HD
ENDBRANCH   2  16
BRANCH   3  18
ATOM     18  C   UNL     1      36.002 -24.598 -13.872  0.00  0.00    +0.186 C 
BRANCH  18  19
ATOM     19  O   UNL     1      36.849 -23.780 -13.080  0.00  0.00    -0.270 OA
BRANCH  19  20
ATOM     20  P   UNL     1      38.266 -24.354 -12.554  0.00  0.00    +0.484 P 
ATOM     21  O   UNL     1      38.951 -23.495 -11.531  0.00  0.00    -0.227 OA
BRANCH  20  22
ATOM     22  O   UNL     1      37.932 -25.855 -12.049  0.00  0.00    -0.302 OA
ATOM     23  H   UNL     1      37.940 -26.460 -12.807  0.00  0.00    +0.222 HD
ENDBRANCH  20  22
BRANCH  20  24
ATOM     24  O   UNL     1      39.129 -24.600 -13.899  0.00  0.00    -0.186 OA
BRANCH  24  25
ATOM     25  P   UNL     1      39.838 -25.933 -14.475  0.00  0.00    +0.481 P 
ATOM     26  O   UNL     1      41.012 -26.414 -13.674  0.00  0.00    -0.227 OA
BRANCH  25  27
ATOM     27  O   UNL     1      40.165 -25.539 -16.009  0.00  0.00    -0.302 OA
ATOM     28  H   UNL     1      39.676 -24.737 -16.248  0.00  0.00    +0.222 HD
ENDBRANCH  25  27
BRANCH  25  29
ATOM     29  O   UNL     1      38.615 -26.980 -14.607  0.00  0.00    -0.302 OA
ATOM     30  H   UNL     1      38.008 -26.683 -15.302  0.00  0.00    +0.222 HD
ENDBRANCH  25  29
ENDBRANCH  24  25
ENDBRANCH  20  24
ENDBRANCH  19  20
ENDBRANCH  18  19
ENDBRANCH   3  18
TORSDOF 10
ENDMDL
MODEL 2
REMARK VINA RESULT:      -9.1      3.623      7.354
REMARK  Name = 164628
REMARK  10 active torsions:
REMARK  status: ('A' for Active; 'I' for Inactive)
REMARK    1  A    between atoms: C_2  and  O_16
REMARK    2  A    between atoms: C_3  and  C_18
REMARK    3  A    between atoms: C_5  and  N_8
REMARK    4  A    between atoms: C_18  and  O_19
REMARK    5  A    between atoms: O_19  and  P_20
REMARK    6  A    between atoms: P_20  and  O_22
REMARK    7  A    between atoms: P_20  and  O_24
REMARK    8  A    between atoms: O_24  and  P_25
REMARK    9  A    between atoms: P_25  and  O_27
REMARK   10  A    between atoms: P_25  and  O_29
REMARK                            x       y       z     vdW  Elec       q    Type
REMARK                         _______ _______ _______ _____ _____    ______ ____
ROOT
ATOM      1  O   UNL     1      34.147 -24.616 -15.050  0.00  0.00    -0.335 OA
ATOM      2  C   UNL     1      34.445 -23.983 -12.784  0.00  0.00    +0.144 C 
ATOM      3  C   UNL     1      33.421 -24.429 -13.819  0.00  0.00    +0.174 C 
ATOM      4  C   UNL     1      35.480 -23.263 -13.615  0.00  0.00    +0.083 C 
ATOM      5  C   UNL     1      35.455 -24.041 -14.920  0.00  0.00    +0.202 C 
ENDROOT
BRANCH   5   8
ATOM      6  O   UNL     1      37.955 -22.807 -15.501  0.00  0.00    -0.252 OA
ATOM      7  O   UNL     1      36.316 -20.917 -19.360  0.00  0.00    -0.270 OA
ATOM      8  N   UNL     1      35.727 -23.219 -16.063  0.00  0.00    -0.219 N 
ATOM      9  N   UNL     1      37.125 -21.870 -17.422  0.00  0.00    -0.236 N 
ATOM     10  C   UNL     1      34.703 -22.993 -16.974  0.00  0.00    +0.071 C 
ATOM     11  C   UNL     1      37.002 -22.648 -16.266  0.00  0.00    +0.315 C 
ATOM     12  C   UNL     1      34.824 -22.246 -18.079  0.00  0.00    +0.047 C 
ATOM     13  C   UNL     1      36.138 -21.613 -18.363  0.00  0.00    +0.250 C 
ATOM     14  C   UNL     1      33.709 -22.016 -19.048  0.00  0.00    +0.037 C 
ATOM     15  H   UNL     1      38.005 -21.461 -17.586  0.00  0.00    +0.159 HD
ENDBRANCH   5   8
BRANCH   2  16
ATOM     16  O   UNL     1      35.035 -25.124 -12.164  0.00  0.00    -0.382 OA
ATOM     17  H   UNL     1      35.979 -24.958 -12.014  0.00  0.00    +0.210 HD
ENDBRANCH   2  16
BRANCH   3  18
ATOM     18  C   UNL     1      32.339 -23.387 -14.068  0.00  0.00    +0.186 C 
BRANCH  18  19
ATOM     19  O   UNL     1      31.488 -23.849 -15.105  0.00  0.00    -0.270 OA
BRANCH  19  20
ATOM     20  P   UNL     1      30.166 -24.707 -14.742  0.00  0.00    +0.484 P 
ATOM     21  O   UNL     1      30.101 -26.062 -15.386  0.00  0.00    -0.227 OA
BRANCH  20  22
ATOM     22  O   UNL     1      30.133 -24.736 -13.125  0.00  0.00    -0.302 OA
ATOM     23  H   UNL     1      30.949 -25.141 -12.793  0.00  0.00    +0.222 HD
ENDBRANCH  20  22
BRANCH  20  24
ATOM     24  O   UNL     1      28.932 -23.734 -15.121  0.00  0.00    -0.186 OA
BRANCH  24  25
ATOM     25  P   UNL     1      28.451 -23.134 -16.542  0.00  0.00    +0.481 P 
ATOM     26  O   UNL     1      27.815 -24.135 -17.461  0.00  0.00    -0.227 OA
BRANCH  25  27
ATOM     27  O   UNL     1      29.788 -22.426 -17.112  0.00  0.00    -0.302 OA
ATOM     28  H   UNL     1      30.504 -23.078 -17.161  0.00  0.00    +0.222 HD
ENDBRANCH  25  27
BRANCH  25  29
ATOM     29  O   UNL     1      27.513 -21.887 -16.123  0.00  0.00    -0.302 OA
ATOM     30  H   UNL     1      27.287 -21.372 -16.913  0.00  0.00    +0.222 HD
ENDBRANCH  25  29
ENDBRANCH  24  25
ENDBRANCH  20  24
ENDBRANCH  19  20
ENDBRANCH  18  19
ENDBRANCH   3  18
TORSDOF 10
ENDMDL
MODEL 3
REMARK VINA RESULT:      -8.7      9.895     12.959
REMARK  Name = 164628
REMARK  10 active torsions:
REMARK  status: ('A' for Active; 'I' for Inactive)
REMARK    1  A    between atoms: C_2  and  O_16
REMARK    2  A    between atoms: C_3  and  C_18
REMARK    3  A    between atoms: C_5  and  N_8
REMARK    4  A    between atoms: C_18  and  O_19
REMARK    5  A    between atoms: O_19  and  P_20
REMARK    6  A    between atoms: P_20  and  O_22
REMARK    7  A    between atoms: P_20  and  O_24
REMARK    8  A    between atoms: O_24  and  P_25
REMARK    9  A    between atoms: P_25  and  O_27
REMARK   10  A    between atoms: P_25  and  O_29
REMARK                            x       y       z     vdW  Elec       q    Type
REMARK                         _______ _______ _______ _____ _____    ______ ____
ROOT
ATOM      1  O   UNL     1      35.760 -16.706 -22.833  0.00  0.00    -0.335 OA
ATOM      2  C   UNL     1      34.331 -16.979 -24.706  0.00  0.00    +0.144 C 
ATOM      3  C   UNL     1      34.728 -16.033 -23.581  0.00  0.00    +0.174 C 
ATOM      4  C   UNL     1      34.603 -18.344 -24.117  0.00  0.00    +0.083 C 
ATOM      5  C   UNL     1      35.809 -18.084 -23.228  0.00  0.00    +0.202 C 
ENDROOT
BRANCH   5   8
ATOM      6  O   UNL     1      38.127 -18.740 -21.710  0.00  0.00    -0.252 OA
ATOM      7  O   UNL     1      35.682 -21.282 -18.759  0.00  0.00    -0.270 OA
ATOM      8  N   UNL     1      35.825 -18.913 -22.058  0.00  0.00    -0.219 N 
ATOM      9  N   UNL     1      36.896 -20.006 -20.247  0.00  0.00    -0.236 N 
ATOM     10  C   UNL     1      34.625 -19.451 -21.611  0.00  0.00    +0.071 C 
ATOM     11  C   UNL     1      37.028 -19.183 -21.371  0.00  0.00    +0.315 C 
ATOM     12  C   UNL     1      34.503 -20.239 -20.535  0.00  0.00    +0.047 C 
ATOM     13  C   UNL     1      35.726 -20.566 -19.757  0.00  0.00    +0.250 C 
ATOM     14  C   UNL     1      33.200 -20.807 -20.070  0.00  0.00    +0.037 C 
ATOM     15  H   UNL     1      37.721 -20.207 -19.750  0.00  0.00    +0.159 HD
ENDBRANCH   5   8
BRANCH   2  16
ATOM     16  O   UNL     1      35.173 -16.767 -25.837  0.00  0.00    -0.382 OA
ATOM     17  H   UNL     1      35.394 -17.621 -26.241  0.00  0.00    +0.210 HD
ENDBRANCH   2  16
BRANCH   3  18
ATOM     18  C   UNL     1      33.579 -15.732 -22.627  0.00  0.00    +0.186 C 
BRANCH  18  19
ATOM     19  O   UNL     1      33.590 -14.347 -22.320  0.00  0.00    -0.270 OA
BRANCH  19  20
ATOM     20  P   UNL     1      32.883 -13.292 -23.321  0.00  0.00    +0.484 P 
ATOM     21  O   UNL     1      32.548 -13.841 -24.677  0.00  0.00    -0.227 OA
BRANCH  20  22
ATOM     22  O   UNL     1      31.608 -12.739 -22.492  0.00  0.00    -0.302 OA
ATOM     23  H   UNL     1      31.463 -11.805 -22.709  0.00  0.00    +0.222 HD
ENDBRANCH  20  22
BRANCH  20  24
ATOM     24  O   UNL     1      33.885 -12.024 -23.348  0.00  0.00    -0.186 OA
BRANCH  24  25
ATOM     25  P   UNL     1      33.945 -10.741 -24.330  0.00  0.00    +0.481 P 
ATOM     26  O   UNL     1      32.826  -9.759 -24.147  0.00  0.00    -0.227 OA
BRANCH  25  27
ATOM     27  O   UNL     1      34.045 -11.409 -25.799  0.00  0.00    -0.302 OA
ATOM     28  H   UNL     1      33.422 -12.149 -25.860  0.00  0.00    +0.222 HD
ENDBRANCH  25  27
BRANCH  25  29
ATOM     29  O   UNL     1      35.429 -10.152 -24.082  0.00  0.00    -0.302 OA
ATOM     30  H   UNL     1      35.924 -10.752 -23.504  0.00  0.00    +0.222 HD
ENDBRANCH  25  29
ENDBRANCH  24  25
ENDBRANCH  20  24
ENDBRANCH  19  20
ENDBRANCH  18  19
ENDBRANCH   3  18
TORSDOF 10
ENDMDL
MODEL 4
REMARK VINA RESULT:      -8.5      3.880      7.232
REMARK  Name = 164628
REMARK  10 active torsions:
REMARK  status: ('A' for Active; 'I' for Inactive)
REMARK    1  A    between atoms: C_2  and  O_16
REMARK    2  A    between atoms: C_3  and  C_18
REMARK    3  A    between atoms: C_5  and  N_8
REMARK    4  A    between atoms: C_18  and  O_19
REMARK    5  A    between atoms: O_19  and  P_20
REMARK    6  A    between atoms: P_20  and  O_22
REMARK    7  A    between atoms: P_20  and  O_24
REMARK    8  A    between atoms: O_24  and  P_25
REMARK    9  A    between atoms: P_25  and  O_27
REMARK   10  A    between atoms: P_25  and  O_29
REMARK                            x       y       z     vdW  Elec       q    Type
REMARK                         _______ _______ _______ _____ _____    ______ ____
ROOT
ATOM      1  O   UNL     1      34.213 -23.669 -17.597  0.00  0.00    -0.335 OA
ATOM      2  C   UNL     1      35.585 -23.234 -15.712  0.00  0.00    +0.144 C 
ATOM      3  C   UNL     1      34.245 -23.799 -16.162  0.00  0.00    +0.174 C 
ATOM      4  C   UNL     1      35.890 -22.197 -16.767  0.00  0.00    +0.083 C 
ATOM      5  C   UNL     1      35.283 -22.811 -18.018  0.00  0.00    +0.202 C 
ENDROOT
BRANCH   5   8
ATOM      6  O   UNL     1      32.532 -22.424 -18.645  0.00  0.00    -0.252 OA
ATOM      7  O   UNL     1      33.503 -18.982 -21.538  0.00  0.00    -0.270 OA
ATOM      8  N   UNL     1      34.772 -21.828 -18.928  0.00  0.00    -0.219 N 
ATOM      9  N   UNL     1      33.031 -20.710 -20.085  0.00  0.00    -0.236 N 
ATOM     10  C   UNL     1      35.673 -20.986 -19.567  0.00  0.00    +0.071 C 
ATOM     11  C   UNL     1      33.387 -21.712 -19.176  0.00  0.00    +0.315 C 
ATOM     12  C   UNL     1      35.328 -20.029 -20.438  0.00  0.00    +0.047 C 
ATOM     13  C   UNL     1      33.886 -19.844 -20.749  0.00  0.00    +0.250 C 
ATOM     14  C   UNL     1      36.314 -19.132 -21.115  0.00  0.00    +0.037 C 
ATOM     15  H   UNL     1      32.070 -20.609 -20.273  0.00  0.00    +0.159 HD
ENDBRANCH   5   8
BRANCH   2  16
ATOM     16  O   UNL     1      36.578 -24.258 -15.743  0.00  0.00    -0.382 OA
ATOM     17  H   UNL     1      37.149 -24.178 -14.963  0.00  0.00    +0.210 HD
ENDBRANCH   2  16
BRANCH   3  18
ATOM     18  C   UNL     1      33.058 -23.031 -15.596  0.00  0.00    +0.186 C 
BRANCH  18  19
ATOM     19  O   UNL     1      31.864 -23.716 -15.938  0.00  0.00    -0.270 OA
BRANCH  19  20
ATOM     20  P   UNL     1      30.847 -24.196 -14.776  0.00  0.00    +0.484 P 
ATOM     21  O   UNL     1      31.179 -25.525 -14.161  0.00  0.00    -0.227 OA
BRANCH  20  22
ATOM     22  O   UNL     1      30.820 -22.965 -13.727  0.00  0.00    -0.302 OA
ATOM     23  H   UNL     1      30.028 -22.426 -13.881  0.00  0.00    +0.222 HD
ENDBRANCH  20  22
BRANCH  20  24
ATOM     24  O   UNL     1      29.385 -24.130 -15.461  0.00  0.00    -0.186 OA
BRANCH  24  25
ATOM     25  P   UNL     1      28.669 -22.966 -16.324  0.00  0.00    +0.481 P 
ATOM     26  O   UNL     1      27.845 -22.005 -15.518  0.00  0.00    -0.227 OA
BRANCH  25  27
ATOM     27  O   UNL     1      27.859 -23.793 -17.453  0.00  0.00    -0.302 OA
ATOM     28  H   UNL     1      28.082 -24.734 -17.387  0.00  0.00    +0.222 HD
ENDBRANCH  25  27
BRANCH  25  29
ATOM     29  O   UNL     1      29.893 -22.305 -17.147  0.00  0.00    -0.302 OA
ATOM     30  H   UNL     1      30.652 -22.908 -17.138  0.00  0.00    +0.222 HD
ENDBRANCH  25  29
ENDBRANCH  24  25
ENDBRANCH  20  24
ENDBRANCH  19  20
ENDBRANCH  18  19
ENDBRANCH   3  18
TORSDOF 10
ENDMDL
MODEL 5
REMARK VINA RESULT:      -8.2      9.554     12.740
REMARK  Name = 164628
REMARK  10 active torsions:
REMARK  status: ('A' for Active; 'I' for Inactive)
REMARK    1  A    between atoms: C_2  and  O_16
REMARK    2  A    between atoms: C_3  and  C_18
REMARK    3  A    between atoms: C_5  and  N_8
REMARK    4  A    between atoms: C_18  and  O_19
REMARK    5  A    between atoms: O_19  and  P_20
REMARK    6  A    between atoms: P_20  and  O_22
REMARK    7  A    between atoms: P_20  and  O_24
REMARK    8  A    between atoms: O_24  and  P_25
REMARK    9  A    between atoms: P_25  and  O_27
REMARK   10  A    between atoms: P_25  and  O_29
REMARK                            x       y       z     vdW  Elec       q    Type
REMARK                         _______ _______ _______ _____ _____    ______ ____
ROOT
ATOM      1  O   UNL     1      35.799 -16.564 -22.876  0.00  0.00    -0.335 OA
ATOM      2  C   UNL     1      34.215 -16.646 -24.639  0.00  0.00    +0.144 C 
ATOM      3  C   UNL     1      34.792 -15.771 -23.535  0.00  0.00    +0.174 C 
ATOM      4  C   UNL     1      34.384 -18.044 -24.091  0.00  0.00    +0.083 C 
ATOM      5  C   UNL     1      35.673 -17.931 -23.293  0.00  0.00    +0.202 C 
ENDROOT
BRANCH   5   8
ATOM      6  O   UNL     1      38.000 -18.683 -21.834  0.00  0.00    -0.252 OA
ATOM      7  O   UNL     1      35.538 -21.208 -18.882  0.00  0.00    -0.270 OA
ATOM      8  N   UNL     1      35.688 -18.782 -22.139  0.00  0.00    -0.219 N 
ATOM      9  N   UNL     1      36.761 -19.940 -20.370  0.00  0.00    -0.236 N 
ATOM     10  C   UNL     1      34.481 -19.293 -21.678  0.00  0.00    +0.071 C 
ATOM     11  C   UNL     1      36.895 -19.100 -21.481  0.00  0.00    +0.315 C 
ATOM     12  C   UNL     1      34.356 -20.097 -20.614  0.00  0.00    +0.047 C 
ATOM     13  C   UNL     1      35.584 -20.475 -19.867  0.00  0.00    +0.250 C 
ATOM     14  C   UNL     1      33.047 -20.635 -20.134  0.00  0.00    +0.037 C 
ATOM     15  H   UNL     1      37.589 -20.174 -19.893  0.00  0.00    +0.159 HD
ENDBRANCH   5   8
BRANCH   2  16
ATOM     16  O   UNL     1      34.989 -16.499 -25.828  0.00  0.00    -0.382 OA
ATOM     17  H   UNL     1      34.400 -16.316 -26.577  0.00  0.00    +0.210 HD
ENDBRANCH   2  16
BRANCH   3  18
ATOM     18  C   UNL     1      33.755 -15.372 -22.493  0.00  0.00    +0.186 C 
BRANCH  18  19
ATOM     19  O   UNL     1      33.816 -13.968 -22.300  0.00  0.00    -0.270 OA
BRANCH  19  20
ATOM     20  P   UNL     1      33.080 -12.976 -23.344  0.00  0.00    +0.484 P 
ATOM     21  O   UNL     1      33.820 -12.760 -24.632  0.00  0.00    -0.227 OA
BRANCH  20  22
ATOM     22  O   UNL     1      31.600 -13.603 -23.523  0.00  0.00    -0.302 OA
ATOM     23  H   UNL     1      31.646 -14.569 -23.445  0.00  0.00    +0.222 HD
ENDBRANCH  20  22
BRANCH  20  24
ATOM     24  O   UNL     1      32.810 -11.624 -22.500  0.00  0.00    -0.186 OA
BRANCH  24  25
ATOM     25  P   UNL     1      31.775 -11.313 -21.299  0.00  0.00    +0.481 P 
ATOM     26  O   UNL     1      31.923  -9.953 -20.681  0.00  0.00    -0.227 OA
BRANCH  25  27
ATOM     27  O   UNL     1      31.998 -12.557 -20.291  0.00  0.00    -0.302 OA
ATOM     28  H   UNL     1      31.146 -12.828 -19.918  0.00  0.00    +0.222 HD
ENDBRANCH  25  27
BRANCH  25  29
ATOM     29  O   UNL     1      30.332 -11.618 -21.961  0.00  0.00    -0.302 OA
ATOM     30  H   UNL     1      29.634 -11.242 -21.403  0.00  0.00    +0.222 HD
ENDBRANCH  25  29
ENDBRANCH  24  25
ENDBRANCH  20  24
ENDBRANCH  19  20
ENDBRANCH  18  19
ENDBRANCH   3  18
TORSDOF 10
ENDMDL
MODEL 6
REMARK VINA RESULT:      -8.1     11.345     13.475
REMARK  Name = 164628
REMARK  10 active torsions:
REMARK  status: ('A' for Active; 'I' for Inactive)
REMARK    1  A    between atoms: C_2  and  O_16
REMARK    2  A    between atoms: C_3  and  C_18
REMARK    3  A    between atoms: C_5  and  N_8
REMARK    4  A    between atoms: C_18  and  O_19
REMARK    5  A    between atoms: O_19  and  P_20
REMARK    6  A    between atoms: P_20  and  O_22
REMARK    7  A    between atoms: P_20  and  O_24
REMARK    8  A    between atoms: O_24  and  P_25
REMARK    9  A    between atoms: P_25  and  O_27
REMARK   10  A    between atoms: P_25  and  O_29
REMARK                            x       y       z     vdW  Elec       q    Type
REMARK                         _______ _______ _______ _____ _____    ______ ____
ROOT
ATOM      1  O   UNL     1      31.853 -12.663 -23.099  0.00  0.00    -0.335 OA
ATOM      2  C   UNL     1      33.797 -13.137 -24.372  0.00  0.00    +0.144 C 
ATOM      3  C   UNL     1      32.750 -13.738 -23.445  0.00  0.00    +0.174 C 
ATOM      4  C   UNL     1      33.868 -11.697 -23.921  0.00  0.00    +0.083 C 
ATOM      5  C   UNL     1      32.436 -11.414 -23.497  0.00  0.00    +0.202 C 
ENDROOT
BRANCH   5   8
ATOM      6  O   UNL     1      33.167  -8.665 -23.622  0.00  0.00    -0.252 OA
ATOM      7  O   UNL     1      32.045  -7.991 -19.213  0.00  0.00    -0.270 OA
ATOM      8  N   UNL     1      32.352 -10.485 -22.408  0.00  0.00    -0.219 N 
ATOM      9  N   UNL     1      32.605  -8.343 -21.422  0.00  0.00    -0.236 N 
ATOM     10  C   UNL     1      31.879 -10.940 -21.184  0.00  0.00    +0.071 C 
ATOM     11  C   UNL     1      32.740  -9.136 -22.567  0.00  0.00    +0.315 C 
ATOM     12  C   UNL     1      31.752 -10.177 -20.090  0.00  0.00    +0.047 C 
ATOM     13  C   UNL     1      32.139  -8.745 -20.179  0.00  0.00    +0.250 C 
ATOM     14  C   UNL     1      31.240 -10.687 -18.782  0.00  0.00    +0.037 C 
ATOM     15  H   UNL     1      32.868  -7.399 -21.509  0.00  0.00    +0.159 HD
ENDBRANCH   5   8
BRANCH   2  16
ATOM     16  O   UNL     1      33.341 -13.196 -25.722  0.00  0.00    -0.382 OA
ATOM     17  H   UNL     1      33.976 -13.698 -26.256  0.00  0.00    +0.210 HD
ENDBRANCH   2  16
BRANCH   3  18
ATOM     18  C   UNL     1      33.345 -14.284 -22.154  0.00  0.00    +0.186 C 
BRANCH  18  19
ATOM     19  O   UNL     1      33.306 -15.702 -22.195  0.00  0.00    -0.270 OA
BRANCH  19  20
ATOM     20  P   UNL     1      34.534 -16.561 -21.586  0.00  0.00    +0.484 P 
ATOM     21  O   UNL     1      35.637 -16.858 -22.561  0.00  0.00    -0.227 OA
BRANCH  20  22
ATOM     22  O   UNL     1      35.003 -15.728 -20.281  0.00  0.00    -0.302 OA
ATOM     23  H   UNL     1      35.037 -14.783 -20.497  0.00  0.00    +0.222 HD
ENDBRANCH  20  22
BRANCH  20  24
ATOM     24  O   UNL     1      33.836 -17.876 -20.955  0.00  0.00    -0.186 OA
BRANCH  24  25
ATOM     25  P   UNL     1      34.121 -19.448 -21.198  0.00  0.00    +0.481 P 
ATOM     26  O   UNL     1      32.968 -20.351 -20.872  0.00  0.00    -0.227 OA
BRANCH  25  27
ATOM     27  O   UNL     1      35.467 -19.712 -20.343  0.00  0.00    -0.302 OA
ATOM     28  H   UNL     1      35.479 -20.630 -20.033  0.00  0.00    +0.222 HD
ENDBRANCH  25  27
BRANCH  25  29
ATOM     29  O   UNL     1      34.629 -19.503 -22.731  0.00  0.00    -0.302 OA
ATOM     30  H   UNL     1      34.857 -20.416 -22.964  0.00  0.00    +0.222 HD
ENDBRANCH  25  29
ENDBRANCH  24  25
ENDBRANCH  20  24
ENDBRANCH  19  20
ENDBRANCH  18  19
ENDBRANCH   3  18
TORSDOF 10
ENDMDL
MODEL 7
REMARK VINA RESULT:      -8.0      1.812      3.626
REMARK  Name = 164628
REMARK  10 active torsions:
REMARK  status: ('A' for Active; 'I' for Inactive)
REMARK    1  A    between atoms: C_2  and  O_16
REMARK    2  A    between atoms: C_3  and  C_18
REMARK    3  A    between atoms: C_5  and  N_8
REMARK    4  A    between atoms: C_18  and  O_19
REMARK    5  A    between atoms: O_19  and  P_20
REMARK    6  A    between atoms: P_20  and  O_22
REMARK    7  A    between atoms: P_20  and  O_24
REMARK    8  A    between atoms: O_24  and  P_25
REMARK    9  A    between atoms: P_25  and  O_27
REMARK   10  A    between atoms: P_25  and  O_29
REMARK                            x       y       z     vdW  Elec       q    Type
REMARK                         _______ _______ _______ _____ _____    ______ ____
ROOT
ATOM      1  O   UNL     1      33.807 -22.941 -14.117  0.00  0.00    -0.335 OA
ATOM      2  C   UNL     1      32.823 -25.044 -13.636  0.00  0.00    +0.144 C 
ATOM      3  C   UNL     1      33.919 -24.069 -13.228  0.00  0.00    +0.174 C 
ATOM      4  C   UNL     1      32.656 -24.771 -15.113  0.00  0.00    +0.083 C 
ATOM      5  C   UNL     1      32.937 -23.280 -15.207  0.00  0.00    +0.202 C 
ENDROOT
BRANCH   5   8
ATOM      6  O   UNL     1      31.597 -23.005 -17.704  0.00  0.00    -0.252 OA
ATOM      7  O   UNL     1      35.492 -21.844 -19.857  0.00  0.00    -0.270 OA
ATOM      8  N   UNL     1      33.560 -22.909 -16.444  0.00  0.00    -0.219 N 
ATOM      9  N   UNL     1      33.546 -22.428 -18.766  0.00  0.00    -0.236 N 
ATOM     10  C   UNL     1      34.926 -22.659 -16.448  0.00  0.00    +0.071 C 
ATOM     11  C   UNL     1      32.810 -22.799 -17.635  0.00  0.00    +0.315 C 
ATOM     12  C   UNL     1      35.628 -22.306 -17.533  0.00  0.00    +0.047 C 
ATOM     13  C   UNL     1      34.907 -22.167 -18.825  0.00  0.00    +0.250 C 
ATOM     14  C   UNL     1      37.099 -22.041 -17.516  0.00  0.00    +0.037 C 
ATOM     15  H   UNL     1      33.045 -22.344 -19.608  0.00  0.00    +0.159 HD
ENDBRANCH   5   8
BRANCH   2  16
ATOM     16  O   UNL     1      31.613 -24.729 -12.949  0.00  0.00    -0.382 OA
ATOM     17  H   UNL     1      31.136 -24.037 -13.434  0.00  0.00    +0.210 HD
ENDBRANCH   2  16
BRANCH   3  18
ATOM     18  C   UNL     1      35.318 -24.651 -13.384  0.00  0.00    +0.186 C 
BRANCH  18  19
ATOM     19  O   UNL     1      36.269 -23.616 -13.195  0.00  0.00    -0.270 OA
BRANCH  19  20
ATOM     20  P   UNL     1      37.520 -23.842 -12.196  0.00  0.00    +0.484 P 
ATOM     21  O   UNL     1      38.384 -22.631 -11.989  0.00  0.00    -0.227 OA
BRANCH  20  22
ATOM     22  O   UNL     1      36.858 -24.427 -10.842  0.00  0.00    -0.302 OA
ATOM     23  H   UNL     1      36.112 -23.866 -10.578  0.00  0.00    +0.222 HD
ENDBRANCH  20  22
BRANCH  20  24
ATOM     24  O   UNL     1      38.303 -25.118 -12.807  0.00  0.00    -0.186 OA
BRANCH  24  25
ATOM     25  P   UNL     1      39.154 -25.287 -14.170  0.00  0.00    +0.481 P 
ATOM     26  O   UNL     1      40.600 -24.900 -14.058  0.00  0.00    -0.227 OA
BRANCH  25  27
ATOM     27  O   UNL     1      38.294 -24.440 -15.246  0.00  0.00    -0.302 OA
ATOM     28  H   UNL     1      38.804 -24.346 -16.065  0.00  0.00    +0.222 HD
ENDBRANCH  25  27
BRANCH  25  29
ATOM     29  O   UNL     1      38.881 -26.823 -14.593  0.00  0.00    -0.302 OA
ATOM     30  H   UNL     1      39.542 -27.396 -14.176  0.00  0.00    +0.222 HD
ENDBRANCH  25  29
ENDBRANCH  24  25
ENDBRANCH  20  24
ENDBRANCH  19  20
ENDBRANCH  18  19
ENDBRANCH   3  18
TORSDOF 10
ENDMDL
MODEL 8
REMARK VINA RESULT:      -7.7     11.300     14.335
REMARK  Name = 164628
REMARK  10 active torsions:
REMARK  status: ('A' for Active; 'I' for Inactive)
REMARK    1  A    between atoms: C_2  and  O_16
REMARK    2  A    between atoms: C_3  and  C_18
REMARK    3  A    between atoms: C_5  and  N_8
REMARK    4  A    between atoms: C_18  and  O_19
REMARK    5  A    between atoms: O_19  and  P_20
REMARK    6  A    between atoms: P_20  and  O_22
REMARK    7  A    between atoms: P_20  and  O_24
REMARK    8  A    between atoms: O_24  and  P_25
REMARK    9  A    between atoms: P_25  and  O_27
REMARK   10  A    between atoms: P_25  and  O_29
REMARK                            x       y       z     vdW  Elec       q    Type
REMARK                         _______ _______ _______ _____ _____    ______ ____
ROOT
ATOM      1  O   UNL     1      34.463 -13.935 -22.229  0.00  0.00    -0.335 OA
ATOM      2  C   UNL     1      32.987 -13.333 -23.985  0.00  0.00    +0.144 C 
ATOM      3  C   UNL     1      33.341 -13.080 -22.526  0.00  0.00    +0.174 C 
ATOM      4  C   UNL     1      33.412 -14.768 -24.196  0.00  0.00    +0.083 C 
ATOM      5  C   UNL     1      34.624 -14.889 -23.287  0.00  0.00    +0.202 C 
ENDROOT
BRANCH   5   8
ATOM      6  O   UNL     1      34.903 -15.468 -20.513  0.00  0.00    -0.252 OA
ATOM      7  O   UNL     1      35.166 -19.989 -21.310  0.00  0.00    -0.270 OA
ATOM      8  N   UNL     1      34.769 -16.200 -22.726  0.00  0.00    -0.219 N 
ATOM      9  N   UNL     1      35.034 -17.720 -20.925  0.00  0.00    -0.236 N 
ATOM     10  C   UNL     1      34.776 -17.292 -23.585  0.00  0.00    +0.071 C 
ATOM     11  C   UNL     1      34.901 -16.388 -21.333  0.00  0.00    +0.315 C 
ATOM     12  C   UNL     1      34.904 -18.565 -23.191  0.00  0.00    +0.047 C 
ATOM     13  C   UNL     1      35.047 -18.843 -21.738  0.00  0.00    +0.250 C 
ATOM     14  C   UNL     1      34.909 -19.726 -24.133  0.00  0.00    +0.037 C 
ATOM     15  H   UNL     1      35.127 -17.876 -19.958  0.00  0.00    +0.159 HD
ENDBRANCH   5   8
BRANCH   2  16
ATOM     16  O   UNL     1      33.756 -12.476 -24.826  0.00  0.00    -0.382 OA
ATOM     17  H   UNL     1      33.176 -12.066 -25.488  0.00  0.00    +0.210 HD
ENDBRANCH   2  16
BRANCH   3  18
ATOM     18  C   UNL     1      32.211 -13.441 -21.571  0.00  0.00    +0.186 C 
BRANCH  18  19
ATOM     19  O   UNL     1      32.085 -12.415 -20.600  0.00  0.00    -0.270 OA
BRANCH  19  20
ATOM     20  P   UNL     1      31.228 -11.086 -20.936  0.00  0.00    +0.484 P 
ATOM     21  O   UNL     1      30.209 -11.254 -22.026  0.00  0.00    -0.227 OA
BRANCH  20  22
ATOM     22  O   UNL     1      30.611 -10.631 -19.511  0.00  0.00    -0.302 OA
ATOM     23  H   UNL     1      31.217 -10.008 -19.080  0.00  0.00    +0.222 HD
ENDBRANCH  20  22
BRANCH  20  24
ATOM     24  O   UNL     1      32.338  -9.950 -21.236  0.00  0.00    -0.186 OA
BRANCH  24  25
ATOM     25  P   UNL     1      32.634  -9.081 -22.566  0.00  0.00    +0.481 P 
ATOM     26  O   UNL     1      33.432  -9.795 -23.617  0.00  0.00    -0.227 OA
BRANCH  25  27
ATOM     27  O   UNL     1      33.312  -7.735 -21.980  0.00  0.00    -0.302 OA
ATOM     28  H   UNL     1      34.265  -7.750 -22.157  0.00  0.00    +0.222 HD
ENDBRANCH  25  27
BRANCH  25  29
ATOM     29  O   UNL     1      31.164  -8.593 -23.027  0.00  0.00    -0.302 OA
ATOM     30  H   UNL     1      30.995  -8.888 -23.935  0.00  0.00    +0.222 HD
ENDBRANCH  25  29
ENDBRANCH  24  25
ENDBRANCH  20  24
ENDBRANCH  19  20
ENDBRANCH  18  19
ENDBRANCH   3  18
TORSDOF 10
ENDMDL
MODEL 9
REMARK VINA RESULT:      -7.7      7.729     10.767
REMARK  Name = 164628
REMARK  10 active torsions:
REMARK  status: ('A' for Active; 'I' for Inactive)
REMARK    1  A    between atoms: C_2  and  O_16
REMARK    2  A    between atoms: C_3  and  C_18
REMARK    3  A    between atoms: C_5  and  N_8
REMARK    4  A    between atoms: C_18  and  O_19
REMARK    5  A    between atoms: O_19  and  P_20
REMARK    6  A    between atoms: P_20  and  O_22
REMARK    7  A    between atoms: P_20  and  O_24
REMARK    8  A    between atoms: O_24  and  P_25
REMARK    9  A    between atoms: P_25  and  O_27
REMARK   10  A    between atoms: P_25  and  O_29
REMARK                            x       y       z     vdW  Elec       q    Type
REMARK                         _______ _______ _______ _____ _____    ______ ____
ROOT
ATOM      1  O   UNL     1      36.106 -18.437 -20.932  0.00  0.00    -0.335 OA
ATOM      2  C   UNL     1      34.687 -17.793 -22.720  0.00  0.00    +0.144 C 
ATOM      3  C   UNL     1      35.504 -17.278 -21.543  0.00  0.00    +0.174 C 
ATOM      4  C   UNL     1      34.290 -19.182 -22.280  0.00  0.00    +0.083 C 
ATOM      5  C   UNL     1      35.490 -19.622 -21.456  0.00  0.00    +0.202 C 
ENDROOT
BRANCH   5   8
ATOM      6  O   UNL     1      32.861 -20.570 -20.908  0.00  0.00    -0.252 OA
ATOM      7  O   UNL     1      34.300 -22.947 -17.243  0.00  0.00    -0.270 OA
ATOM      8  N   UNL     1      35.131 -20.489 -20.371  0.00  0.00    -0.219 N 
ATOM      9  N   UNL     1      33.592 -21.750 -19.082  0.00  0.00    -0.236 N 
ATOM     10  C   UNL     1      36.131 -20.912 -19.505  0.00  0.00    +0.071 C 
ATOM     11  C   UNL     1      33.796 -20.906 -20.180  0.00  0.00    +0.315 C 
ATOM     12  C   UNL     1      35.930 -21.720 -18.455  0.00  0.00    +0.047 C 
ATOM     13  C   UNL     1      34.550 -22.203 -18.189  0.00  0.00    +0.250 C 
ATOM     14  C   UNL     1      37.021 -22.165 -17.535  0.00  0.00    +0.037 C 
ATOM     15  H   UNL     1      32.668 -22.055 -18.929  0.00  0.00    +0.159 HD
ENDBRANCH   5   8
BRANCH   2  16
ATOM     16  O   UNL     1      35.510 -17.873 -23.882  0.00  0.00    -0.382 OA
ATOM     17  H   UNL     1      36.147 -18.597 -23.778  0.00  0.00    +0.210 HD
ENDBRANCH   2  16
BRANCH   3  18
ATOM     18  C   UNL     1      34.652 -16.584 -20.488  0.00  0.00    +0.186 C 
BRANCH  18  19
ATOM     19  O   UNL     1      34.230 -15.328 -20.994  0.00  0.00    -0.270 OA
BRANCH  19  20
ATOM     20  P   UNL     1      32.653 -14.995 -21.117  0.00  0.00    +0.484 P 
ATOM     21  O   UNL     1      31.741 -16.074 -20.607  0.00  0.00    -0.227 OA
BRANCH  20  22
ATOM     22  O   UNL     1      32.480 -13.569 -20.372  0.00  0.00    -0.302 OA
ATOM     23  H   UNL     1      32.753 -13.654 -19.445  0.00  0.00    +0.222 HD
ENDBRANCH  20  22
BRANCH  20  24
ATOM     24  O   UNL     1      32.435 -14.626 -22.676  0.00  0.00    -0.186 OA
BRANCH  24  25
ATOM     25  P   UNL     1      33.339 -13.757 -23.697  0.00  0.00    +0.481 P 
ATOM     26  O   UNL     1      33.159 -12.272 -23.584  0.00  0.00    -0.227 OA
BRANCH  25  27
ATOM     27  O   UNL     1      32.971 -14.390 -25.139  0.00  0.00    -0.302 OA
ATOM     28  H   UNL     1      32.501 -13.730 -25.671  0.00  0.00    +0.222 HD
ENDBRANCH  25  27
BRANCH  25  29
ATOM     29  O   UNL     1      34.837 -14.295 -23.419  0.00  0.00    -0.302 OA
ATOM     30  H   UNL     1      35.386 -13.567 -23.090  0.00  0.00    +0.222 HD
ENDBRANCH  25  29
ENDBRANCH  24  25
ENDBRANCH  20  24
ENDBRANCH  19  20
ENDBRANCH  18  19
ENDBRANCH   3  18
TORSDOF 10
ENDMDL
