MODEL 1
REMARK VINA RESULT:     -10.7      0.000      0.000
REMARK  Name = 72078
REMARK  8 active torsions:
REMARK  status: ('A' for Active; 'I' for Inactive)
REMARK    1  A    between atoms: C_6  and  O_21
REMARK    2  A    between atoms: C_6  and  C_26
REMARK    3  A    between atoms: C_9  and  O_23
REMARK    4  A    between atoms: C_26  and  C_27
REMARK    5  A    between atoms: C_27  and  O_28
REMARK    6  A    between atoms: O_28  and  P_29
REMARK    7  A    between atoms: P_29  and  O_31
REMARK    8  A    between atoms: P_29  and  O_33
REMARK                            x       y       z     vdW  Elec       q    Type
REMARK                         _______ _______ _______ _____ _____    ______ ____
ROOT
ATOM      1  O   UNL     1      39.853 -26.544 -14.589  0.00  0.00    -0.287 OA
ATOM      2  C   UNL     1      32.163 -23.638 -14.870  0.00  0.00    +0.031 C 
ATOM      3  C   UNL     1      33.277 -23.514 -15.934  0.00  0.00    +0.003 C 
ATOM      4  C   UNL     1      34.655 -23.180 -15.346  0.00  0.00    +0.003 C 
ATOM      5  C   UNL     1      35.071 -24.324 -14.355  0.00  0.00    +0.034 C 
ATOM      6  C   UNL     1      30.949 -23.905 -15.802  0.00  0.00    +0.141 C 
ATOM      7  C   UNL     1      32.555 -24.789 -13.922  0.00  0.00    +0.032 C 
ATOM      8  C   UNL     1      32.670 -22.575 -16.973  0.00  0.00    +0.003 C 
ATOM      9  C   UNL     1      33.958 -24.613 -13.298  0.00  0.00    +0.111 C 
ATOM     10  C   UNL     1      36.531 -24.119 -13.785  0.00  0.00    +0.036 C 
ATOM     11  C   UNL     1      31.175 -22.954 -17.000  0.00  0.00    +0.034 C 
ATOM     12  C   UNL     1      35.693 -23.012 -16.469  0.00  0.00    +0.004 C 
ATOM     13  C   UNL     1      31.927 -22.325 -14.074  0.00  0.00    +0.003 C 
ATOM     14  C   UNL     1      37.104 -22.807 -15.930  0.00  0.00    +0.022 C 
ATOM     15  C   UNL     1      37.466 -23.924 -14.984  0.00  0.00    -0.038 C 
ATOM     16  C   UNL     1      36.677 -22.892 -12.857  0.00  0.00    +0.009 C 
ATOM     17  C   UNL     1      36.942 -25.328 -12.958  0.00  0.00    -0.020 C 
ATOM     18  C   UNL     1      38.527 -24.706 -15.238  0.00  0.00    +0.034 C 
ATOM     19  C   UNL     1      37.996 -26.112 -13.207  0.00  0.00    +0.038 C 
ATOM     20  C   UNL     1      38.873 -25.843 -14.361  0.00  0.00    +0.195 C 
ENDROOT
BRANCH   6  21
ATOM     21  O   UNL     1      30.938 -25.253 -16.265  0.00  0.00    -0.380 OA
ATOM     22  H   UNL     1      30.964 -25.855 -15.505  0.00  0.00    +0.211 HD
ENDBRANCH   6  21
BRANCH   9  23
ATOM     23  O   UNL     1      33.913 -23.597 -12.306  0.00  0.00    -0.384 OA
ATOM     24  H   UNL     1      34.812 -23.282 -12.125  0.00  0.00    +0.210 HD
ENDBRANCH   9  23
BRANCH   6  26
ATOM     25  O   UNL     1      28.976 -24.682 -14.717  0.00  0.00    -0.291 OA
ATOM     26  C   UNL     1      29.611 -23.723 -15.153  0.00  0.00    +0.205 C 
BRANCH  26  27
ATOM     27  C   UNL     1      29.095 -22.301 -15.070  0.00  0.00    +0.220 C 
BRANCH  27  28
ATOM     28  O   UNL     1      28.699 -21.841 -16.345  0.00  0.00    -0.265 OA
BRANCH  28  29
ATOM     29  P   UNL     1      27.290 -22.361 -16.955  0.00  0.00    +0.473 P 
ATOM     30  O   UNL     1      27.364 -23.668 -17.690  0.00  0.00    -0.227 OA
BRANCH  29  31
ATOM     31  O   UNL     1      26.763 -21.106 -17.827  0.00  0.00    -0.303 OA
ATOM     32  H   UNL     1      27.045 -20.279 -17.406  0.00  0.00    +0.222 HD
ENDBRANCH  29  31
BRANCH  29  33
ATOM     33  O   UNL     1      26.310 -22.358 -15.668  0.00  0.00    -0.303 OA
ATOM     34  H   UNL     1      26.674 -21.771 -14.987  0.00  0.00    +0.222 HD
ENDBRANCH  29  33
ENDBRANCH  28  29
ENDBRANCH  27  28
ENDBRANCH  26  27
ENDBRANCH   6  26
TORSDOF 8
ENDMDL
MODEL 2
REMARK VINA RESULT:     -10.0      9.873     12.548
REMARK  Name = 72078
REMARK  8 active torsions:
REMARK  status: ('A' for Active; 'I' for Inactive)
REMARK    1  A    between atoms: C_6  and  O_21
REMARK    2  A    between atoms: C_6  and  C_26
REMARK    3  A    between atoms: C_9  and  O_23
REMARK    4  A    between atoms: C_26  and  C_27
REMARK    5  A    between atoms: C_27  and  O_28
REMARK    6  A    between atoms: O_28  and  P_29
REMARK    7  A    between atoms: P_29  and  O_31
REMARK    8  A    between atoms: P_29  and  O_33
REMARK                            x       y       z     vdW  Elec       q    Type
REMARK                         _______ _______ _______ _____ _____    ______ ____
ROOT
ATOM      1  O   UNL     1      34.855 -10.200 -26.236  0.00  0.00    -0.287 OA
ATOM      2  C   UNL     1      34.747 -17.396 -22.254  0.00  0.00    +0.031 C 
ATOM      3  C   UNL     1      34.666 -17.139 -23.775  0.00  0.00    +0.003 C 
ATOM      4  C   UNL     1      33.741 -15.973 -24.154  0.00  0.00    +0.003 C 
ATOM      5  C   UNL     1      34.280 -14.662 -23.478  0.00  0.00    +0.034 C 
ATOM      6  C   UNL     1      35.682 -18.637 -22.255  0.00  0.00    +0.141 C 
ATOM      7  C   UNL     1      35.314 -16.121 -21.598  0.00  0.00    +0.032 C 
ATOM      8  C   UNL     1      34.384 -18.523 -24.354  0.00  0.00    +0.003 C 
ATOM      9  C   UNL     1      34.509 -14.849 -21.945  0.00  0.00    +0.111 C 
ATOM     10  C   UNL     1      33.449 -13.386 -23.905  0.00  0.00    +0.036 C 
ATOM     11  C   UNL     1      35.189 -19.482 -23.453  0.00  0.00    +0.034 C 
ATOM     12  C   UNL     1      33.665 -15.821 -25.682  0.00  0.00    +0.004 C 
ATOM     13  C   UNL     1      33.379 -17.778 -21.623  0.00  0.00    +0.003 C 
ATOM     14  C   UNL     1      32.861 -14.597 -26.105  0.00  0.00    +0.022 C 
ATOM     15  C   UNL     1      33.408 -13.361 -25.437  0.00  0.00    -0.038 C 
ATOM     16  C   UNL     1      31.995 -13.380 -23.384  0.00  0.00    +0.009 C 
ATOM     17  C   UNL     1      34.105 -12.129 -23.351  0.00  0.00    -0.020 C 
ATOM     18  C   UNL     1      33.862 -12.338 -26.179  0.00  0.00    +0.034 C 
ATOM     19  C   UNL     1      34.561 -11.110 -24.084  0.00  0.00    +0.038 C 
ATOM     20  C   UNL     1      34.456 -11.138 -25.555  0.00  0.00    +0.195 C 
ENDROOT
BRANCH   6  21
ATOM     21  O   UNL     1      37.039 -18.262 -22.470  0.00  0.00    -0.380 OA
ATOM     22  H   UNL     1      37.294 -18.477 -23.381  0.00  0.00    +0.211 HD
ENDBRANCH   6  21
BRANCH   9  23
ATOM     23  O   UNL     1      33.277 -14.858 -21.237  0.00  0.00    -0.384 OA
ATOM     24  H   UNL     1      32.782 -14.049 -21.440  0.00  0.00    +0.210 HD
ENDBRANCH   9  23
BRANCH   6  26
ATOM     25  O   UNL     1      36.512 -19.134 -20.078  0.00  0.00    -0.291 OA
ATOM     26  C   UNL     1      35.706 -19.403 -20.967  0.00  0.00    +0.205 C 
BRANCH  26  27
ATOM     27  C   UNL     1      34.688 -20.516 -20.832  0.00  0.00    +0.220 C 
BRANCH  27  28
ATOM     28  O   UNL     1      35.134 -21.489 -19.910  0.00  0.00    -0.265 OA
BRANCH  28  29
ATOM     29  P   UNL     1      34.028 -22.357 -19.102  0.00  0.00    +0.473 P 
ATOM     30  O   UNL     1      32.670 -21.725 -19.013  0.00  0.00    -0.227 OA
BRANCH  29  31
ATOM     31  O   UNL     1      34.743 -22.662 -17.684  0.00  0.00    -0.303 OA
ATOM     32  H   UNL     1      34.893 -23.617 -17.597  0.00  0.00    +0.222 HD
ENDBRANCH  29  31
BRANCH  29  33
ATOM     33  O   UNL     1      34.066 -23.789 -19.854  0.00  0.00    -0.303 OA
ATOM     34  H   UNL     1      34.916 -24.223 -19.678  0.00  0.00    +0.222 HD
ENDBRANCH  29  33
ENDBRANCH  28  29
ENDBRANCH  27  28
ENDBRANCH  26  27
ENDBRANCH   6  26
TORSDOF 8
ENDMDL
MODEL 3
REMARK VINA RESULT:      -8.5     13.526     16.278
REMARK  Name = 72078
REMARK  8 active torsions:
REMARK  status: ('A' for Active; 'I' for Inactive)
REMARK    1  A    between atoms: C_6  and  O_21
REMARK    2  A    between atoms: C_6  and  C_26
REMARK    3  A    between atoms: C_9  and  O_23
REMARK    4  A    between atoms: C_26  and  C_27
REMARK    5  A    between atoms: C_27  and  O_28
REMARK    6  A    between atoms: O_28  and  P_29
REMARK    7  A    between atoms: P_29  and  O_31
REMARK    8  A    between atoms: P_29  and  O_33
REMARK                            x       y       z     vdW  Elec       q    Type
REMARK                         _______ _______ _______ _____ _____    ______ ____
ROOT
ATOM      1  O   UNL     1      30.603  -4.692 -24.081  0.00  0.00    -0.287 OA
ATOM      2  C   UNL     1      33.338 -12.414 -23.338  0.00  0.00    +0.031 C 
ATOM      3  C   UNL     1      32.306 -11.670 -22.459  0.00  0.00    +0.003 C 
ATOM      4  C   UNL     1      32.709 -10.227 -22.125  0.00  0.00    +0.003 C 
ATOM      5  C   UNL     1      32.859  -9.422 -23.464  0.00  0.00    +0.034 C 
ATOM      6  C   UNL     1      32.652 -13.806 -23.412  0.00  0.00    +0.141 C 
ATOM      7  C   UNL     1      33.453 -11.642 -24.669  0.00  0.00    +0.032 C 
ATOM      8  C   UNL     1      32.046 -12.648 -21.316  0.00  0.00    +0.003 C 
ATOM      9  C   UNL     1      33.798 -10.149 -24.479  0.00  0.00    +0.111 C 
ATOM     10  C   UNL     1      33.165  -7.892 -23.210  0.00  0.00    +0.036 C 
ATOM     11  C   UNL     1      32.108 -14.038 -21.984  0.00  0.00    +0.034 C 
ATOM     12  C   UNL     1      31.667  -9.578 -21.199  0.00  0.00    +0.004 C 
ATOM     13  C   UNL     1      34.730 -12.556 -22.662  0.00  0.00    +0.003 C 
ATOM     14  C   UNL     1      31.955  -8.104 -20.943  0.00  0.00    +0.022 C 
ATOM     15  C   UNL     1      32.091  -7.366 -22.251  0.00  0.00    -0.038 C 
ATOM     16  C   UNL     1      34.549  -7.624 -22.579  0.00  0.00    +0.009 C 
ATOM     17  C   UNL     1      33.144  -7.131 -24.528  0.00  0.00    -0.020 C 
ATOM     18  C   UNL     1      31.272  -6.342 -22.536  0.00  0.00    +0.034 C 
ATOM     19  C   UNL     1      32.329  -6.113 -24.820  0.00  0.00    +0.038 C 
ATOM     20  C   UNL     1      31.343  -5.637 -23.832  0.00  0.00    +0.195 C 
ENDROOT
BRANCH   6  21
ATOM     21  O   UNL     1      31.567 -13.799 -24.335  0.00  0.00    -0.380 OA
ATOM     22  H   UNL     1      31.264 -14.709 -24.484  0.00  0.00    +0.211 HD
ENDBRANCH   6  21
BRANCH   9  23
ATOM     23  O   UNL     1      35.162 -10.020 -24.102  0.00  0.00    -0.384 OA
ATOM     24  H   UNL     1      35.393 -10.724 -23.477  0.00  0.00    +0.210 HD
ENDBRANCH   9  23
BRANCH   6  26
ATOM     25  O   UNL     1      33.647 -15.179 -25.085  0.00  0.00    -0.291 OA
ATOM     26  C   UNL     1      33.540 -14.915 -23.889  0.00  0.00    +0.205 C 
BRANCH  26  27
ATOM     27  C   UNL     1      34.289 -15.680 -22.817  0.00  0.00    +0.220 C 
BRANCH  27  28
ATOM     28  O   UNL     1      34.524 -17.011 -23.228  0.00  0.00    -0.265 OA
BRANCH  28  29
ATOM     29  P   UNL     1      35.236 -18.031 -22.189  0.00  0.00    +0.473 P 
ATOM     30  O   UNL     1      35.225 -17.582 -20.757  0.00  0.00    -0.227 OA
BRANCH  29  31
ATOM     31  O   UNL     1      36.702 -18.267 -22.828  0.00  0.00    -0.303 OA
ATOM     32  H   UNL     1      36.677 -18.065 -23.777  0.00  0.00    +0.222 HD
ENDBRANCH  29  31
BRANCH  29  33
ATOM     33  O   UNL     1      34.476 -19.431 -22.471  0.00  0.00    -0.303 OA
ATOM     34  H   UNL     1      34.796 -20.103 -21.848  0.00  0.00    +0.222 HD
ENDBRANCH  29  33
ENDBRANCH  28  29
ENDBRANCH  27  28
ENDBRANCH  26  27
ENDBRANCH   6  26
TORSDOF 8
ENDMDL
MODEL 4
REMARK VINA RESULT:      -8.1      2.962      8.409
REMARK  Name = 72078
REMARK  8 active torsions:
REMARK  status: ('A' for Active; 'I' for Inactive)
REMARK    1  A    between atoms: C_6  and  O_21
REMARK    2  A    between atoms: C_6  and  C_26
REMARK    3  A    between atoms: C_9  and  O_23
REMARK    4  A    between atoms: C_26  and  C_27
REMARK    5  A    between atoms: C_27  and  O_28
REMARK    6  A    between atoms: O_28  and  P_29
REMARK    7  A    between atoms: P_29  and  O_31
REMARK    8  A    between atoms: P_29  and  O_33
REMARK                            x       y       z     vdW  Elec       q    Type
REMARK                         _______ _______ _______ _____ _____    ______ ____
ROOT
ATOM      1  O   UNL     1      27.629 -21.652 -15.721  0.00  0.00    -0.287 OA
ATOM      2  C   UNL     1      35.225 -24.241 -13.917  0.00  0.00    +0.031 C 
ATOM      3  C   UNL     1      34.784 -23.249 -15.017  0.00  0.00    +0.003 C 
ATOM      4  C   UNL     1      33.524 -23.691 -15.775  0.00  0.00    +0.003 C 
ATOM      5  C   UNL     1      32.340 -23.823 -14.751  0.00  0.00    +0.034 C 
ATOM      6  C   UNL     1      36.515 -23.525 -13.432  0.00  0.00    +0.141 C 
ATOM      7  C   UNL     1      34.077 -24.338 -12.893  0.00  0.00    +0.032 C 
ATOM      8  C   UNL     1      36.068 -22.998 -15.803  0.00  0.00    +0.003 C 
ATOM      9  C   UNL     1      32.723 -24.720 -13.531  0.00  0.00    +0.111 C 
ATOM     10  C   UNL     1      30.971 -24.167 -15.463  0.00  0.00    +0.036 C 
ATOM     11  C   UNL     1      37.178 -23.013 -14.732  0.00  0.00    +0.034 C 
ATOM     12  C   UNL     1      33.186 -22.687 -16.890  0.00  0.00    +0.004 C 
ATOM     13  C   UNL     1      35.589 -25.647 -14.471  0.00  0.00    +0.003 C 
ATOM     14  C   UNL     1      31.871 -23.013 -17.586  0.00  0.00    +0.022 C 
ATOM     15  C   UNL     1      30.761 -23.131 -16.573  0.00  0.00    -0.038 C 
ATOM     16  C   UNL     1      30.932 -25.573 -16.103  0.00  0.00    +0.009 C 
ATOM     17  C   UNL     1      29.835 -24.129 -14.452  0.00  0.00    -0.020 C 
ATOM     18  C   UNL     1      29.689 -22.326 -16.649  0.00  0.00    +0.034 C 
ATOM     19  C   UNL     1      28.767 -23.329 -14.520  0.00  0.00    +0.038 C 
ATOM     20  C   UNL     1      28.614 -22.378 -15.638  0.00  0.00    +0.195 C 
ENDROOT
BRANCH   6  21
ATOM     21  O   UNL     1      36.207 -22.416 -12.592  0.00  0.00    -0.380 OA
ATOM     22  H   UNL     1      35.527 -21.869 -13.016  0.00  0.00    +0.211 HD
ENDBRANCH   6  21
BRANCH   9  23
ATOM     23  O   UNL     1      32.735 -26.096 -13.887  0.00  0.00    -0.384 OA
ATOM     24  H   UNL     1      32.599 -26.184 -14.842  0.00  0.00    +0.210 HD
ENDBRANCH   9  23
BRANCH   6  26
ATOM     25  O   UNL     1      37.021 -24.971 -11.607  0.00  0.00    -0.291 OA
ATOM     26  C   UNL     1      37.429 -24.377 -12.604  0.00  0.00    +0.205 C 
BRANCH  26  27
ATOM     27  C   UNL     1      38.869 -24.458 -13.065  0.00  0.00    +0.220 C 
BRANCH  27  28
ATOM     28  O   UNL     1      39.066 -25.592 -13.884  0.00  0.00    -0.265 OA
BRANCH  28  29
ATOM     29  P   UNL     1      40.513 -25.801 -14.586  0.00  0.00    +0.473 P 
ATOM     30  O   UNL     1      41.298 -26.974 -14.076  0.00  0.00    -0.227 OA
BRANCH  29  31
ATOM     31  O   UNL     1      41.231 -24.363 -14.419  0.00  0.00    -0.303 OA
ATOM     32  H   UNL     1      42.194 -24.483 -14.397  0.00  0.00    +0.222 HD
ENDBRANCH  29  31
BRANCH  29  33
ATOM     33  O   UNL     1      40.150 -25.856 -16.161  0.00  0.00    -0.303 OA
ATOM     34  H   UNL     1      40.967 -25.951 -16.677  0.00  0.00    +0.222 HD
ENDBRANCH  29  33
ENDBRANCH  28  29
ENDBRANCH  27  28
ENDBRANCH  26  27
ENDBRANCH   6  26
TORSDOF 8
ENDMDL
MODEL 5
REMARK VINA RESULT:      -8.0     14.689     16.900
REMARK  Name = 72078
REMARK  8 active torsions:
REMARK  status: ('A' for Active; 'I' for Inactive)
REMARK    1  A    between atoms: C_6  and  O_21
REMARK    2  A    between atoms: C_6  and  C_26
REMARK    3  A    between atoms: C_9  and  O_23
REMARK    4  A    between atoms: C_26  and  C_27
REMARK    5  A    between atoms: C_27  and  O_28
REMARK    6  A    between atoms: O_28  and  P_29
REMARK    7  A    between atoms: P_29  and  O_31
REMARK    8  A    between atoms: P_29  and  O_33
REMARK                            x       y       z     vdW  Elec       q    Type
REMARK                         _______ _______ _______ _____ _____    ______ ____
ROOT
ATOM      1  O   UNL     1      34.995 -16.307 -20.460  0.00  0.00    -0.287 OA
ATOM      2  C   UNL     1      33.127  -8.949 -23.626  0.00  0.00    +0.031 C 
ATOM      3  C   UNL     1      32.771  -9.514 -22.232  0.00  0.00    +0.003 C 
ATOM      4  C   UNL     1      32.304 -10.977 -22.262  0.00  0.00    +0.003 C 
ATOM      5  C   UNL     1      33.458 -11.862 -22.852  0.00  0.00    +0.034 C 
ATOM      6  C   UNL     1      33.478  -7.489 -23.226  0.00  0.00    +0.141 C 
ATOM      7  C   UNL     1      34.287  -9.796 -24.186  0.00  0.00    +0.032 C 
ATOM      8  C   UNL     1      31.841  -8.454 -21.647  0.00  0.00    +0.003 C 
ATOM      9  C   UNL     1      33.976 -11.309 -24.218  0.00  0.00    +0.111 C 
ATOM     10  C   UNL     1      33.106 -13.403 -22.817  0.00  0.00    +0.036 C 
ATOM     11  C   UNL     1      32.413  -7.119 -22.168  0.00  0.00    +0.034 C 
ATOM     12  C   UNL     1      31.910 -11.445 -20.851  0.00  0.00    +0.004 C 
ATOM     13  C   UNL     1      31.925  -8.943 -24.610  0.00  0.00    +0.003 C 
ATOM     14  C   UNL     1      31.563 -12.928 -20.806  0.00  0.00    +0.022 C 
ATOM     15  C   UNL     1      32.694 -13.743 -21.380  0.00  0.00    -0.038 C 
ATOM     16  C   UNL     1      31.949 -13.805 -23.759  0.00  0.00    +0.009 C 
ATOM     17  C   UNL     1      34.312 -14.223 -23.252  0.00  0.00    -0.020 C 
ATOM     18  C   UNL     1      33.304 -14.673 -20.629  0.00  0.00    +0.034 C 
ATOM     19  C   UNL     1      34.926 -15.148 -22.508  0.00  0.00    +0.038 C 
ATOM     20  C   UNL     1      34.451 -15.448 -21.145  0.00  0.00    +0.195 C 
ENDROOT
BRANCH   6  21
ATOM     21  O   UNL     1      34.773  -7.411 -22.639  0.00  0.00    -0.380 OA
ATOM     22  H   UNL     1      34.764  -7.851 -21.774  0.00  0.00    +0.211 HD
ENDBRANCH   6  21
BRANCH   9  23
ATOM     23  O   UNL     1      33.058 -11.584 -25.267  0.00  0.00    -0.384 OA
ATOM     24  H   UNL     1      33.334 -12.386 -25.737  0.00  0.00    +0.210 HD
ENDBRANCH   9  23
BRANCH   6  26
ATOM     25  O   UNL     1      34.561  -6.348 -25.014  0.00  0.00    -0.291 OA
ATOM     26  C   UNL     1      33.528  -6.523 -24.371  0.00  0.00    +0.205 C 
BRANCH  26  27
ATOM     27  C   UNL     1      32.243  -5.785 -24.680  0.00  0.00    +0.220 C 
BRANCH  27  28
ATOM     28  O   UNL     1      32.373  -4.411 -24.380  0.00  0.00    -0.265 OA
BRANCH  28  29
ATOM     29  P   UNL     1      31.171  -3.672 -23.581  0.00  0.00    +0.473 P 
ATOM     30  O   UNL     1      30.406  -4.553 -22.637  0.00  0.00    -0.227 OA
BRANCH  29  31
ATOM     31  O   UNL     1      30.295  -2.989 -24.754  0.00  0.00    -0.303 OA
ATOM     32  H   UNL     1      30.872  -2.450 -25.318  0.00  0.00    +0.222 HD
ENDBRANCH  29  31
BRANCH  29  33
ATOM     33  O   UNL     1      31.913  -2.413 -22.888  0.00  0.00    -0.303 OA
ATOM     34  H   UNL     1      32.849  -2.628 -22.744  0.00  0.00    +0.222 HD
ENDBRANCH  29  33
ENDBRANCH  28  29
ENDBRANCH  27  28
ENDBRANCH  26  27
ENDBRANCH   6  26
TORSDOF 8
ENDMDL
MODEL 6
REMARK VINA RESULT:      -8.0      3.184      6.385
REMARK  Name = 72078
REMARK  8 active torsions:
REMARK  status: ('A' for Active; 'I' for Inactive)
REMARK    1  A    between atoms: C_6  and  O_21
REMARK    2  A    between atoms: C_6  and  C_26
REMARK    3  A    between atoms: C_9  and  O_23
REMARK    4  A    between atoms: C_26  and  C_27
REMARK    5  A    between atoms: C_27  and  O_28
REMARK    6  A    between atoms: O_28  and  P_29
REMARK    7  A    between atoms: P_29  and  O_31
REMARK    8  A    between atoms: P_29  and  O_33
REMARK                            x       y       z     vdW  Elec       q    Type
REMARK                         _______ _______ _______ _____ _____    ______ ____
ROOT
ATOM      1  O   UNL     1      33.812 -18.128 -21.540  0.00  0.00    -0.287 OA
ATOM      2  C   UNL     1      35.017 -23.613 -15.530  0.00  0.00    +0.031 C 
ATOM      3  C   UNL     1      35.997 -22.545 -16.068  0.00  0.00    +0.003 C 
ATOM      4  C   UNL     1      36.007 -22.435 -17.600  0.00  0.00    +0.003 C 
ATOM      5  C   UNL     1      34.567 -22.045 -18.087  0.00  0.00    +0.034 C 
ATOM      6  C   UNL     1      35.317 -23.490 -14.011  0.00  0.00    +0.141 C 
ATOM      7  C   UNL     1      33.599 -23.205 -15.977  0.00  0.00    +0.032 C 
ATOM      8  C   UNL     1      37.301 -22.864 -15.342  0.00  0.00    +0.003 C 
ATOM      9  C   UNL     1      33.476 -23.000 -17.503  0.00  0.00    +0.111 C 
ATOM     10  C   UNL     1      34.510 -21.801 -19.648  0.00  0.00    +0.036 C 
ATOM     11  C   UNL     1      36.852 -23.322 -13.939  0.00  0.00    +0.034 C 
ATOM     12  C   UNL     1      37.049 -21.400 -18.058  0.00  0.00    +0.004 C 
ATOM     13  C   UNL     1      35.354 -25.051 -16.011  0.00  0.00    +0.003 C 
ATOM     14  C   UNL     1      37.007 -21.161 -19.562  0.00  0.00    +0.022 C 
ATOM     15  C   UNL     1      35.610 -20.789 -19.990  0.00  0.00    -0.038 C 
ATOM     16  C   UNL     1      34.746 -23.073 -20.492  0.00  0.00    +0.009 C 
ATOM     17  C   UNL     1      33.137 -21.276 -20.043  0.00  0.00    -0.020 C 
ATOM     18  C   UNL     1      35.380 -19.613 -20.595  0.00  0.00    +0.034 C 
ATOM     19  C   UNL     1      32.902 -20.105 -20.642  0.00  0.00    +0.038 C 
ATOM     20  C   UNL     1      34.014 -19.196 -20.974  0.00  0.00    +0.195 C 
ENDROOT
BRANCH   6  21
ATOM     21  O   UNL     1      34.690 -22.339 -13.451  0.00  0.00    -0.380 OA
ATOM     22  H   UNL     1      34.344 -22.556 -12.571  0.00  0.00    +0.211 HD
ENDBRANCH   6  21
BRANCH   9  23
ATOM     23  O   UNL     1      33.493 -24.261 -18.156  0.00  0.00    -0.384 OA
ATOM     24  H   UNL     1      34.294 -24.335 -18.697  0.00  0.00    +0.210 HD
ENDBRANCH   9  23
BRANCH   6  26
ATOM     25  O   UNL     1      35.520 -25.165 -12.329  0.00  0.00    -0.291 OA
ATOM     26  C   UNL     1      34.811 -24.631 -13.181  0.00  0.00    +0.205 C 
BRANCH  26  27
ATOM     27  C   UNL     1      33.391 -25.079 -13.454  0.00  0.00    +0.220 C 
BRANCH  27  28
ATOM     28  O   UNL     1      32.471 -24.075 -13.080  0.00  0.00    -0.265 OA
BRANCH  28  29
ATOM     29  P   UNL     1      30.932 -24.207 -13.574  0.00  0.00    +0.473 P 
ATOM     30  O   UNL     1      30.375 -22.983 -14.240  0.00  0.00    -0.227 OA
BRANCH  29  31
ATOM     31  O   UNL     1      30.145 -24.693 -12.249  0.00  0.00    -0.303 OA
ATOM     32  H   UNL     1      30.465 -25.571 -11.986  0.00  0.00    +0.222 HD
ENDBRANCH  29  31
BRANCH  29  33
ATOM     33  O   UNL     1      30.958 -25.534 -14.499  0.00  0.00    -0.303 OA
ATOM     34  H   UNL     1      31.774 -26.032 -14.327  0.00  0.00    +0.222 HD
ENDBRANCH  29  33
ENDBRANCH  28  29
ENDBRANCH  27  28
ENDBRANCH  26  27
ENDBRANCH   6  26
TORSDOF 8
ENDMDL
