MODEL 1
REMARK VINA RESULT:     -12.2      0.000      0.000
REMARK  Name = 51039095
REMARK  7 active torsions:
REMARK  status: ('A' for Active; 'I' for Inactive)
REMARK    1  A    between atoms: C_5  and  C_16
REMARK    2  A    between atoms: C_6  and  C_27
REMARK    3  A    between atoms: C_11  and  N_17
REMARK    4  A    between atoms: C_27  and  C_28
REMARK    5  A    between atoms: C_28  and  C_29
REMARK    6  A    between atoms: C_32  and  O_35
REMARK    7  A    between atoms: C_33  and  O_37
REMARK                            x       y       z     vdW  Elec       q    Type
REMARK                         _______ _______ _______ _____ _____    ______ ____
ROOT
ATOM      1  O   UNL     1      33.584 -14.206 -24.211  0.00  0.00    -0.270 OA
ATOM      2  N   UNL     1      34.069 -13.955 -21.929  0.00  0.00    -0.265 N 
ATOM      3  N   UNL     1      35.139 -16.879 -20.391  0.00  0.00    -0.239 N 
ATOM      4  N   UNL     1      34.845 -15.570 -20.304  0.00  0.00    -0.166 NA
ATOM      5  C   UNL     1      33.659 -13.503 -23.190  0.00  0.00    +0.251 C 
ATOM      6  C   UNL     1      34.966 -17.400 -21.641  0.00  0.00    +0.046 C 
ATOM      7  C   UNL     1      34.473 -15.259 -21.548  0.00  0.00    +0.153 C 
ATOM      8  C   UNL     1      34.529 -16.360 -22.424  0.00  0.00    +0.048 C 
ATOM      9  H   UNL     1      34.077 -13.280 -21.213  0.00  0.00    +0.157 HD
ATOM     10  H   UNL     1      35.451 -17.412 -19.625  0.00  0.00    +0.174 HD
ENDROOT
BRANCH   5  16
ATOM     11  C   UNL     1      32.531  -9.417 -23.417  0.00  0.00    +0.048 C 
ATOM     12  C   UNL     1      31.822 -10.292 -22.593  0.00  0.00    +0.015 C 
ATOM     13  C   UNL     1      33.611  -9.884 -24.165  0.00  0.00    +0.015 C 
ATOM     14  C   UNL     1      32.193 -11.634 -22.519  0.00  0.00    +0.006 C 
ATOM     15  C   UNL     1      33.982 -11.227 -24.090  0.00  0.00    +0.006 C 
ATOM     16  C   UNL     1      33.274 -12.102 -23.267  0.00  0.00    +0.054 C 
BRANCH  11  17
ATOM     17  N   UNL     1      32.160  -8.070 -23.492  0.00  0.00    -0.312 N 
ATOM     18  N   UNL     1      31.618  -5.273 -23.568  0.00  0.00    +0.389 N 
ATOM     19  C   UNL     1      30.812  -6.156 -22.718  0.00  0.00    -0.042 C 
ATOM     20  C   UNL     1      32.041  -5.973 -24.785  0.00  0.00    -0.042 C 
ATOM     21  C   UNL     1      31.615  -7.399 -22.306  0.00  0.00    +0.069 C 
ATOM     22  C   UNL     1      32.884  -7.208 -24.436  0.00  0.00    +0.069 C 
ATOM     23  C   UNL     1      32.837  -5.010 -25.664  0.00  0.00    -0.022 C 
ATOM     24  C   UNL     1      30.354  -5.381 -21.483  0.00  0.00    -0.022 C 
ATOM     25  H   UNL     1      32.445  -4.973 -23.049  0.00  0.00    -0.084 HD
ATOM     26  H   UNL     1      31.054  -4.466 -23.831  0.00  0.00    -0.084 HD
ENDBRANCH  11  17
ENDBRANCH   5  16
BRANCH   6  27
ATOM     27  C   UNL     1      35.234 -18.815 -21.944  0.00  0.00    +0.047 C 
BRANCH  27  28
ATOM     28  C   UNL     1      34.043 -19.771 -21.682  0.00  0.00    +0.033 C 
BRANCH  28  29
ATOM     29  C   UNL     1      34.247 -20.647 -20.469  0.00  0.00    -0.016 C 
ATOM     30  C   UNL     1      35.531 -20.853 -19.965  0.00  0.00    +0.033 C 
ATOM     31  C   UNL     1      33.151 -21.247 -19.852  0.00  0.00    +0.033 C 
ATOM     32  C   UNL     1      33.338 -22.056 -18.731  0.00  0.00    +0.141 C 
ATOM     33  C   UNL     1      35.719 -21.661 -18.844  0.00  0.00    +0.141 C 
ATOM     34  C   UNL     1      34.623 -22.264 -18.227  0.00  0.00    +0.074 C 
BRANCH  32  35
ATOM     35  O   UNL     1      32.268 -22.643 -18.127  0.00  0.00    -0.471 OA
ATOM     36  C   UNL     1      32.486 -23.217 -16.839  0.00  0.00    +0.252 C 
ENDBRANCH  32  35
BRANCH  33  37
ATOM     37  O   UNL     1      36.972 -21.863 -18.352  0.00  0.00    -0.471 OA
ATOM     38  C   UNL     1      37.146 -21.720 -16.942  0.00  0.00    +0.252 C 
ENDBRANCH  33  37
ENDBRANCH  28  29
ENDBRANCH  27  28
ENDBRANCH   6  27
TORSDOF 7
ENDMDL
MODEL 2
REMARK VINA RESULT:     -12.2      0.179      1.858
REMARK  Name = 51039095
REMARK  7 active torsions:
REMARK  status: ('A' for Active; 'I' for Inactive)
REMARK    1  A    between atoms: C_5  and  C_16
REMARK    2  A    between atoms: C_6  and  C_27
REMARK    3  A    between atoms: C_11  and  N_17
REMARK    4  A    between atoms: C_27  and  C_28
REMARK    5  A    between atoms: C_28  and  C_29
REMARK    6  A    between atoms: C_32  and  O_35
REMARK    7  A    between atoms: C_33  and  O_37
REMARK                            x       y       z     vdW  Elec       q    Type
REMARK                         _______ _______ _______ _____ _____    ______ ____
ROOT
ATOM      1  O   UNL     1      33.210 -14.259 -24.096  0.00  0.00    -0.270 OA
ATOM      2  N   UNL     1      33.982 -13.952 -21.902  0.00  0.00    -0.265 N 
ATOM      3  N   UNL     1      35.127 -16.865 -20.397  0.00  0.00    -0.239 N 
ATOM      4  N   UNL     1      34.894 -15.543 -20.324  0.00  0.00    -0.166 NA
ATOM      5  C   UNL     1      33.436 -13.526 -23.120  0.00  0.00    +0.251 C 
ATOM      6  C   UNL     1      34.782 -17.419 -21.595  0.00  0.00    +0.046 C 
ATOM      7  C   UNL     1      34.383 -15.258 -21.524  0.00  0.00    +0.153 C 
ATOM      8  C   UNL     1      34.289 -16.388 -22.357  0.00  0.00    +0.048 C 
ATOM      9  H   UNL     1      34.103 -13.254 -21.219  0.00  0.00    +0.157 HD
ATOM     10  H   UNL     1      35.511 -17.384 -19.655  0.00  0.00    +0.174 HD
ENDROOT
BRANCH   5  16
ATOM     11  C   UNL     1      32.439  -9.407 -23.362  0.00  0.00    +0.048 C 
ATOM     12  C   UNL     1      31.716 -10.252 -22.519  0.00  0.00    +0.015 C 
ATOM     13  C   UNL     1      33.490  -9.915 -24.125  0.00  0.00    +0.015 C 
ATOM     14  C   UNL     1      32.044 -11.604 -22.440  0.00  0.00    +0.006 C 
ATOM     15  C   UNL     1      33.818 -11.269 -24.045  0.00  0.00    +0.006 C 
ATOM     16  C   UNL     1      33.096 -12.114 -23.203  0.00  0.00    +0.054 C 
BRANCH  11  17
ATOM     17  N   UNL     1      32.111  -8.049 -23.443  0.00  0.00    -0.312 N 
ATOM     18  N   UNL     1      31.660  -5.236 -23.532  0.00  0.00    +0.389 N 
ATOM     19  C   UNL     1      30.834  -6.087 -22.668  0.00  0.00    -0.042 C 
ATOM     20  C   UNL     1      32.047  -5.957 -24.749  0.00  0.00    -0.042 C 
ATOM     21  C   UNL     1      31.600  -7.353 -22.257  0.00  0.00    +0.069 C 
ATOM     22  C   UNL     1      32.853  -7.217 -24.400  0.00  0.00    +0.069 C 
ATOM     23  C   UNL     1      32.865  -5.026 -25.642  0.00  0.00    -0.022 C 
ATOM     24  C   UNL     1      30.414  -5.290 -21.434  0.00  0.00    -0.022 C 
ATOM     25  H   UNL     1      32.501  -4.960 -23.024  0.00  0.00    -0.084 HD
ATOM     26  H   UNL     1      31.120  -4.413 -23.795  0.00  0.00    -0.084 HD
ENDBRANCH  11  17
ENDBRANCH   5  16
BRANCH   6  27
ATOM     27  C   UNL     1      34.958 -18.853 -21.875  0.00  0.00    +0.047 C 
BRANCH  27  28
ATOM     28  C   UNL     1      33.756 -19.744 -21.474  0.00  0.00    +0.033 C 
BRANCH  28  29
ATOM     29  C   UNL     1      34.066 -20.669 -20.321  0.00  0.00    -0.016 C 
ATOM     30  C   UNL     1      33.037 -21.366 -19.688  0.00  0.00    +0.033 C 
ATOM     31  C   UNL     1      35.383 -20.827 -19.891  0.00  0.00    +0.033 C 
ATOM     32  C   UNL     1      35.672 -21.680 -18.826  0.00  0.00    +0.141 C 
ATOM     33  C   UNL     1      33.326 -22.220 -18.624  0.00  0.00    +0.141 C 
ATOM     34  C   UNL     1      34.643 -22.377 -18.192  0.00  0.00    +0.074 C 
BRANCH  32  35
ATOM     35  O   UNL     1      36.958 -21.835 -18.406  0.00  0.00    -0.471 OA
ATOM     36  C   UNL     1      37.173 -21.912 -16.997  0.00  0.00    +0.252 C 
ENDBRANCH  32  35
BRANCH  33  37
ATOM     37  O   UNL     1      32.322 -22.901 -18.006  0.00  0.00    -0.471 OA
ATOM     38  C   UNL     1      32.495 -23.195 -16.620  0.00  0.00    +0.252 C 
ENDBRANCH  33  37
ENDBRANCH  28  29
ENDBRANCH  27  28
ENDBRANCH   6  27
TORSDOF 7
ENDMDL
MODEL 3
REMARK VINA RESULT:     -11.9      0.339      2.370
REMARK  Name = 51039095
REMARK  7 active torsions:
REMARK  status: ('A' for Active; 'I' for Inactive)
REMARK    1  A    between atoms: C_5  and  C_16
REMARK    2  A    between atoms: C_6  and  C_27
REMARK    3  A    between atoms: C_11  and  N_17
REMARK    4  A    between atoms: C_27  and  C_28
REMARK    5  A    between atoms: C_28  and  C_29
REMARK    6  A    between atoms: C_32  and  O_35
REMARK    7  A    between atoms: C_33  and  O_37
REMARK                            x       y       z     vdW  Elec       q    Type
REMARK                         _______ _______ _______ _____ _____    ______ ____
ROOT
ATOM      1  O   UNL     1      33.585 -13.951 -24.349  0.00  0.00    -0.270 OA
ATOM      2  N   UNL     1      34.051 -13.760 -22.057  0.00  0.00    -0.265 N 
ATOM      3  N   UNL     1      35.029 -16.740 -20.569  0.00  0.00    -0.239 N 
ATOM      4  N   UNL     1      34.767 -15.427 -20.458  0.00  0.00    -0.166 NA
ATOM      5  C   UNL     1      33.667 -13.271 -23.314  0.00  0.00    +0.251 C 
ATOM      6  C   UNL     1      34.857 -17.231 -21.831  0.00  0.00    +0.046 C 
ATOM      7  C   UNL     1      34.418 -15.080 -21.699  0.00  0.00    +0.153 C 
ATOM      8  C   UNL     1      34.455 -16.164 -22.597  0.00  0.00    +0.048 C 
ATOM      9  H   UNL     1      34.068 -13.099 -21.328  0.00  0.00    +0.157 HD
ATOM     10  H   UNL     1      35.318 -17.297 -19.811  0.00  0.00    +0.174 HD
ENDROOT
BRANCH   5  16
ATOM     11  C   UNL     1      32.645  -9.154 -23.467  0.00  0.00    +0.048 C 
ATOM     12  C   UNL     1      31.916 -10.024 -22.656  0.00  0.00    +0.015 C 
ATOM     13  C   UNL     1      33.711  -9.636 -24.227  0.00  0.00    +0.015 C 
ATOM     14  C   UNL     1      32.252 -11.376 -22.605  0.00  0.00    +0.006 C 
ATOM     15  C   UNL     1      34.046 -10.990 -24.176  0.00  0.00    +0.006 C 
ATOM     16  C   UNL     1      33.318 -11.860 -23.366  0.00  0.00    +0.054 C 
BRANCH  11  17
ATOM     17  N   UNL     1      32.310  -7.797 -23.518  0.00  0.00    -0.312 N 
ATOM     18  N   UNL     1      31.412  -5.097 -23.688  0.00  0.00    +0.389 N 
ATOM     19  C   UNL     1      32.520  -5.558 -24.530  0.00  0.00    -0.042 C 
ATOM     20  C   UNL     1      31.425  -5.787 -22.394  0.00  0.00    -0.042 C 
ATOM     21  C   UNL     1      32.418  -7.068 -24.788  0.00  0.00    +0.069 C 
ATOM     22  C   UNL     1      31.286  -7.304 -22.586  0.00  0.00    +0.069 C 
ATOM     23  C   UNL     1      30.287  -5.249 -21.529  0.00  0.00    -0.022 C 
ATOM     24  C   UNL     1      32.500  -4.787 -25.850  0.00  0.00    -0.022 C 
ATOM     25  H   UNL     1      30.529  -5.290 -24.161  0.00  0.00    -0.084 HD
ATOM     26  H   UNL     1      31.515  -4.095 -23.527  0.00  0.00    -0.084 HD
ENDBRANCH  11  17
ENDBRANCH   5  16
BRANCH   6  27
ATOM     27  C   UNL     1      35.092 -18.646 -22.161  0.00  0.00    +0.047 C 
BRANCH  27  28
ATOM     28  C   UNL     1      33.904 -19.590 -21.850  0.00  0.00    +0.033 C 
BRANCH  28  29
ATOM     29  C   UNL     1      34.151 -20.470 -20.648  0.00  0.00    -0.016 C 
ATOM     30  C   UNL     1      33.080 -21.086 -20.001  0.00  0.00    +0.033 C 
ATOM     31  C   UNL     1      35.452 -20.669 -20.185  0.00  0.00    +0.033 C 
ATOM     32  C   UNL     1      35.682 -21.482 -19.076  0.00  0.00    +0.141 C 
ATOM     33  C   UNL     1      33.309 -21.900 -18.892  0.00  0.00    +0.141 C 
ATOM     34  C   UNL     1      34.610 -22.098 -18.429  0.00  0.00    +0.074 C 
BRANCH  32  35
ATOM     35  O   UNL     1      36.951 -21.676 -18.624  0.00  0.00    -0.471 OA
ATOM     36  C   UNL     1      37.121 -21.824 -17.215  0.00  0.00    +0.252 C 
ENDBRANCH  32  35
BRANCH  33  37
ATOM     37  O   UNL     1      32.264 -22.502 -18.261  0.00  0.00    -0.471 OA
ATOM     38  C   UNL     1      32.546 -23.171 -17.033  0.00  0.00    +0.252 C 
ENDBRANCH  33  37
ENDBRANCH  28  29
ENDBRANCH  27  28
ENDBRANCH   6  27
TORSDOF 7
ENDMDL
MODEL 4
REMARK VINA RESULT:     -11.7      4.945     13.545
REMARK  Name = 51039095
REMARK  7 active torsions:
REMARK  status: ('A' for Active; 'I' for Inactive)
REMARK    1  A    between atoms: C_5  and  C_16
REMARK    2  A    between atoms: C_6  and  C_27
REMARK    3  A    between atoms: C_11  and  N_17
REMARK    4  A    between atoms: C_27  and  C_28
REMARK    5  A    between atoms: C_28  and  C_29
REMARK    6  A    between atoms: C_32  and  O_35
REMARK    7  A    between atoms: C_33  and  O_37
REMARK                            x       y       z     vdW  Elec       q    Type
REMARK                         _______ _______ _______ _____ _____    ______ ____
ROOT
ATOM      1  O   UNL     1      34.018 -21.687 -19.879  0.00  0.00    -0.270 OA
ATOM      2  N   UNL     1      35.960 -20.372 -19.954  0.00  0.00    -0.265 N 
ATOM      3  N   UNL     1      36.168 -18.335 -22.758  0.00  0.00    -0.239 N 
ATOM      4  N   UNL     1      36.705 -18.768 -21.604  0.00  0.00    -0.166 NA
ATOM      5  C   UNL     1      35.097 -21.319 -19.386  0.00  0.00    +0.251 C 
ATOM      6  C   UNL     1      34.968 -18.911 -23.058  0.00  0.00    +0.046 C 
ATOM      7  C   UNL     1      35.806 -19.652 -21.164  0.00  0.00    +0.153 C 
ATOM      8  C   UNL     1      34.703 -19.782 -22.029  0.00  0.00    +0.048 C 
ATOM      9  H   UNL     1      36.781 -20.182 -19.446  0.00  0.00    +0.157 HD
ATOM     10  H   UNL     1      36.601 -17.663 -23.332  0.00  0.00    +0.174 HD
ENDROOT
BRANCH   5  16
ATOM     11  C   UNL     1      36.402 -23.061 -15.742  0.00  0.00    +0.048 C 
ATOM     12  C   UNL     1      37.269 -22.255 -16.480  0.00  0.00    +0.015 C 
ATOM     13  C   UNL     1      35.106 -23.294 -16.201  0.00  0.00    +0.015 C 
ATOM     14  C   UNL     1      36.840 -21.683 -17.677  0.00  0.00    +0.006 C 
ATOM     15  C   UNL     1      34.677 -22.721 -17.398  0.00  0.00    +0.006 C 
ATOM     16  C   UNL     1      35.543 -21.915 -18.136  0.00  0.00    +0.054 C 
BRANCH  11  17
ATOM     17  N   UNL     1      36.832 -23.636 -14.541  0.00  0.00    -0.312 N 
ATOM     18  N   UNL     1      37.623 -25.010 -12.172  0.00  0.00    +0.389 N 
ATOM     19  C   UNL     1      36.670 -23.898 -12.094  0.00  0.00    -0.042 C 
ATOM     20  C   UNL     1      38.592 -24.785 -13.250  0.00  0.00    -0.042 C 
ATOM     21  C   UNL     1      35.899 -23.747 -13.414  0.00  0.00    +0.069 C 
ATOM     22  C   UNL     1      37.879 -24.664 -14.604  0.00  0.00    +0.069 C 
ATOM     23  C   UNL     1      39.592 -25.939 -13.270  0.00  0.00    -0.022 C 
ATOM     24  C   UNL     1      35.705 -24.146 -10.935  0.00  0.00    -0.022 C 
ATOM     25  H   UNL     1      37.113 -25.875 -12.355  0.00  0.00    -0.084 HD
ATOM     26  H   UNL     1      38.124 -25.076 -11.287  0.00  0.00    -0.084 HD
ENDBRANCH  11  17
ENDBRANCH   5  16
BRANCH   6  27
ATOM     27  C   UNL     1      34.219 -18.572 -24.278  0.00  0.00    +0.047 C 
BRANCH  27  28
ATOM     28  C   UNL     1      34.786 -17.369 -25.073  0.00  0.00    +0.033 C 
BRANCH  28  29
ATOM     29  C   UNL     1      34.166 -16.052 -24.669  0.00  0.00    -0.016 C 
ATOM     30  C   UNL     1      33.680 -15.181 -25.645  0.00  0.00    +0.033 C 
ATOM     31  C   UNL     1      34.077 -15.708 -23.321  0.00  0.00    +0.033 C 
ATOM     32  C   UNL     1      33.505 -14.493 -22.946  0.00  0.00    +0.141 C 
ATOM     33  C   UNL     1      33.107 -13.966 -25.271  0.00  0.00    +0.141 C 
ATOM     34  C   UNL     1      33.020 -13.621 -23.922  0.00  0.00    +0.074 C 
BRANCH  32  35
ATOM     35  O   UNL     1      33.418 -14.156 -21.630  0.00  0.00    -0.471 OA
ATOM     36  C   UNL     1      34.224 -14.900 -20.717  0.00  0.00    +0.252 C 
ENDBRANCH  32  35
BRANCH  33  37
ATOM     37  O   UNL     1      32.633 -13.115 -26.222  0.00  0.00    -0.471 OA
ATOM     38  C   UNL     1      33.333 -13.075 -27.464  0.00  0.00    +0.252 C 
ENDBRANCH  33  37
ENDBRANCH  28  29
ENDBRANCH  27  28
ENDBRANCH   6  27
TORSDOF 7
ENDMDL
MODEL 5
REMARK VINA RESULT:     -11.7      4.939     13.535
REMARK  Name = 51039095
REMARK  7 active torsions:
REMARK  status: ('A' for Active; 'I' for Inactive)
REMARK    1  A    between atoms: C_5  and  C_16
REMARK    2  A    between atoms: C_6  and  C_27
REMARK    3  A    between atoms: C_11  and  N_17
REMARK    4  A    between atoms: C_27  and  C_28
REMARK    5  A    between atoms: C_28  and  C_29
REMARK    6  A    between atoms: C_32  and  O_35
REMARK    7  A    between atoms: C_33  and  O_37
REMARK                            x       y       z     vdW  Elec       q    Type
REMARK                         _______ _______ _______ _____ _____    ______ ____
ROOT
ATOM      1  O   UNL     1      34.015 -21.685 -19.882  0.00  0.00    -0.270 OA
ATOM      2  N   UNL     1      35.957 -20.370 -19.955  0.00  0.00    -0.265 N 
ATOM      3  N   UNL     1      36.165 -18.328 -22.756  0.00  0.00    -0.239 N 
ATOM      4  N   UNL     1      36.701 -18.763 -21.603  0.00  0.00    -0.166 NA
ATOM      5  C   UNL     1      35.094 -21.318 -19.389  0.00  0.00    +0.251 C 
ATOM      6  C   UNL     1      34.965 -18.904 -23.057  0.00  0.00    +0.046 C 
ATOM      7  C   UNL     1      35.802 -19.648 -21.164  0.00  0.00    +0.153 C 
ATOM      8  C   UNL     1      34.699 -19.777 -22.030  0.00  0.00    +0.048 C 
ATOM      9  H   UNL     1      36.779 -20.182 -19.447  0.00  0.00    +0.157 HD
ATOM     10  H   UNL     1      36.597 -17.656 -23.330  0.00  0.00    +0.174 HD
ENDROOT
BRANCH   5  16
ATOM     11  C   UNL     1      36.400 -23.066 -15.748  0.00  0.00    +0.048 C 
ATOM     12  C   UNL     1      37.269 -22.263 -16.488  0.00  0.00    +0.015 C 
ATOM     13  C   UNL     1      35.102 -23.294 -16.204  0.00  0.00    +0.015 C 
ATOM     14  C   UNL     1      36.839 -21.689 -17.684  0.00  0.00    +0.006 C 
ATOM     15  C   UNL     1      34.673 -22.719 -17.401  0.00  0.00    +0.006 C 
ATOM     16  C   UNL     1      35.540 -21.916 -18.140  0.00  0.00    +0.054 C 
BRANCH  11  17
ATOM     17  N   UNL     1      36.830 -23.643 -14.548  0.00  0.00    -0.312 N 
ATOM     18  N   UNL     1      37.622 -25.021 -12.182  0.00  0.00    +0.389 N 
ATOM     19  C   UNL     1      36.668 -23.909 -12.102  0.00  0.00    -0.042 C 
ATOM     20  C   UNL     1      38.591 -24.793 -13.259  0.00  0.00    -0.042 C 
ATOM     21  C   UNL     1      35.897 -23.756 -13.421  0.00  0.00    +0.069 C 
ATOM     22  C   UNL     1      37.878 -24.670 -14.613  0.00  0.00    +0.069 C 
ATOM     23  C   UNL     1      39.592 -25.946 -13.281  0.00  0.00    -0.022 C 
ATOM     24  C   UNL     1      35.704 -24.160 -10.943  0.00  0.00    -0.022 C 
ATOM     25  H   UNL     1      37.113 -25.886 -12.367  0.00  0.00    -0.084 HD
ATOM     26  H   UNL     1      38.123 -25.088 -11.297  0.00  0.00    -0.084 HD
ENDBRANCH  11  17
ENDBRANCH   5  16
BRANCH   6  27
ATOM     27  C   UNL     1      34.215 -18.563 -24.276  0.00  0.00    +0.047 C 
BRANCH  27  28
ATOM     28  C   UNL     1      34.782 -17.360 -25.071  0.00  0.00    +0.033 C 
BRANCH  28  29
ATOM     29  C   UNL     1      34.178 -16.040 -24.653  0.00  0.00    -0.016 C 
ATOM     30  C   UNL     1      34.100 -15.704 -23.301  0.00  0.00    +0.033 C 
ATOM     31  C   UNL     1      33.699 -15.157 -25.620  0.00  0.00    +0.033 C 
ATOM     32  C   UNL     1      33.141 -13.937 -25.236  0.00  0.00    +0.141 C 
ATOM     33  C   UNL     1      33.543 -14.485 -22.917  0.00  0.00    +0.141 C 
ATOM     34  C   UNL     1      33.062 -13.602 -23.884  0.00  0.00    +0.074 C 
BRANCH  32  35
ATOM     35  O   UNL     1      32.673 -13.074 -26.179  0.00  0.00    -0.471 OA
ATOM     36  C   UNL     1      33.317 -13.096 -27.452  0.00  0.00    +0.252 C 
ENDBRANCH  32  35
BRANCH  33  37
ATOM     37  O   UNL     1      33.467 -14.157 -21.598  0.00  0.00    -0.471 OA
ATOM     38  C   UNL     1      34.170 -14.992 -20.680  0.00  0.00    +0.252 C 
ENDBRANCH  33  37
ENDBRANCH  28  29
ENDBRANCH  27  28
ENDBRANCH   6  27
TORSDOF 7
ENDMDL
MODEL 6
REMARK VINA RESULT:     -11.7      4.213     13.488
REMARK  Name = 51039095
REMARK  7 active torsions:
REMARK  status: ('A' for Active; 'I' for Inactive)
REMARK    1  A    between atoms: C_5  and  C_16
REMARK    2  A    between atoms: C_6  and  C_27
REMARK    3  A    between atoms: C_11  and  N_17
REMARK    4  A    between atoms: C_27  and  C_28
REMARK    5  A    between atoms: C_28  and  C_29
REMARK    6  A    between atoms: C_32  and  O_35
REMARK    7  A    between atoms: C_33  and  O_37
REMARK                            x       y       z     vdW  Elec       q    Type
REMARK                         _______ _______ _______ _____ _____    ______ ____
ROOT
ATOM      1  O   UNL     1      33.844 -21.307 -20.022  0.00  0.00    -0.270 OA
ATOM      2  N   UNL     1      35.913 -20.210 -20.150  0.00  0.00    -0.265 N 
ATOM      3  N   UNL     1      36.207 -18.081 -22.878  0.00  0.00    -0.239 N 
ATOM      4  N   UNL     1      36.749 -18.623 -21.773  0.00  0.00    -0.166 NA
ATOM      5  C   UNL     1      34.979 -21.082 -19.574  0.00  0.00    +0.251 C 
ATOM      6  C   UNL     1      34.937 -18.509 -23.135  0.00  0.00    +0.046 C 
ATOM      7  C   UNL     1      35.780 -19.422 -21.320  0.00  0.00    +0.153 C 
ATOM      8  C   UNL     1      34.628 -19.392 -22.129  0.00  0.00    +0.048 C 
ATOM      9  H   UNL     1      36.775 -20.134 -19.681  0.00  0.00    +0.157 HD
ATOM     10  H   UNL     1      36.682 -17.435 -23.447  0.00  0.00    +0.174 HD
ENDROOT
BRANCH   5  16
ATOM     11  C   UNL     1      36.258 -23.115 -16.075  0.00  0.00    +0.048 C 
ATOM     12  C   UNL     1      34.949 -23.270 -16.532  0.00  0.00    +0.015 C 
ATOM     13  C   UNL     1      37.147 -22.293 -16.767  0.00  0.00    +0.015 C 
ATOM     14  C   UNL     1      34.529 -22.601 -17.682  0.00  0.00    +0.006 C 
ATOM     15  C   UNL     1      36.726 -21.626 -17.918  0.00  0.00    +0.006 C 
ATOM     16  C   UNL     1      35.418 -21.780 -18.376  0.00  0.00    +0.054 C 
BRANCH  11  17
ATOM     17  N   UNL     1      36.680 -23.785 -14.921  0.00  0.00    -0.312 N 
ATOM     18  N   UNL     1      37.615 -24.944 -12.491  0.00  0.00    +0.389 N 
ATOM     19  C   UNL     1      38.172 -25.380 -13.775  0.00  0.00    -0.042 C 
ATOM     20  C   UNL     1      36.201 -24.583 -12.637  0.00  0.00    -0.042 C 
ATOM     21  C   UNL     1      38.064 -24.262 -14.824  0.00  0.00    +0.069 C 
ATOM     22  C   UNL     1      36.034 -23.439 -13.648  0.00  0.00    +0.069 C 
ATOM     23  C   UNL     1      35.645 -24.179 -11.272  0.00  0.00    -0.022 C 
ATOM     24  C   UNL     1      39.631 -25.788 -13.575  0.00  0.00    -0.022 C 
ATOM     25  H   UNL     1      38.135 -24.131 -12.159  0.00  0.00    -0.084 HD
ATOM     26  H   UNL     1      37.692 -25.710 -11.822  0.00  0.00    -0.084 HD
ENDBRANCH  11  17
ENDBRANCH   5  16
BRANCH   6  27
ATOM     27  C   UNL     1      34.170 -18.035 -24.297  0.00  0.00    +0.047 C 
BRANCH  27  28
ATOM     28  C   UNL     1      34.683 -16.709 -24.915  0.00  0.00    +0.033 C 
BRANCH  28  29
ATOM     29  C   UNL     1      34.073 -15.486 -24.274  0.00  0.00    -0.016 C 
ATOM     30  C   UNL     1      33.523 -15.569 -22.994  0.00  0.00    +0.033 C 
ATOM     31  C   UNL     1      34.061 -14.272 -24.960  0.00  0.00    +0.033 C 
ATOM     32  C   UNL     1      33.499 -13.141 -24.369  0.00  0.00    +0.141 C 
ATOM     33  C   UNL     1      32.961 -14.439 -22.402  0.00  0.00    +0.141 C 
ATOM     34  C   UNL     1      32.948 -13.225 -23.089  0.00  0.00    +0.074 C 
BRANCH  32  35
ATOM     35  O   UNL     1      33.487 -11.956 -25.038  0.00  0.00    -0.471 OA
ATOM     36  C   UNL     1      33.990 -10.815 -24.343  0.00  0.00    +0.252 C 
ENDBRANCH  32  35
BRANCH  33  37
ATOM     37  O   UNL     1      32.425 -14.519 -21.154  0.00  0.00    -0.471 OA
ATOM     38  C   UNL     1      32.306 -15.820 -20.581  0.00  0.00    +0.252 C 
ENDBRANCH  33  37
ENDBRANCH  28  29
ENDBRANCH  27  28
ENDBRANCH   6  27
TORSDOF 7
ENDMDL
MODEL 7
REMARK VINA RESULT:     -11.4      1.410      1.881
REMARK  Name = 51039095
REMARK  7 active torsions:
REMARK  status: ('A' for Active; 'I' for Inactive)
REMARK    1  A    between atoms: C_5  and  C_16
REMARK    2  A    between atoms: C_6  and  C_27
REMARK    3  A    between atoms: C_11  and  N_17
REMARK    4  A    between atoms: C_27  and  C_28
REMARK    5  A    between atoms: C_28  and  C_29
REMARK    6  A    between atoms: C_32  and  O_35
REMARK    7  A    between atoms: C_33  and  O_37
REMARK                            x       y       z     vdW  Elec       q    Type
REMARK                         _______ _______ _______ _____ _____    ______ ____
ROOT
ATOM      1  O   UNL     1      31.943 -15.122 -21.404  0.00  0.00    -0.270 OA
ATOM      2  N   UNL     1      34.062 -15.182 -22.412  0.00  0.00    -0.265 N 
ATOM      3  N   UNL     1      35.573 -18.307 -22.318  0.00  0.00    -0.239 N 
ATOM      4  N   UNL     1      35.619 -17.013 -22.681  0.00  0.00    -0.166 NA
ATOM      5  C   UNL     1      32.874 -14.559 -22.003  0.00  0.00    +0.251 C 
ATOM      6  C   UNL     1      34.423 -18.657 -21.671  0.00  0.00    +0.046 C 
ATOM      7  C   UNL     1      34.452 -16.534 -22.244  0.00  0.00    +0.153 C 
ATOM      8  C   UNL     1      33.666 -17.512 -21.606  0.00  0.00    +0.048 C 
ATOM      9  H   UNL     1      34.710 -14.605 -22.876  0.00  0.00    +0.157 HD
ATOM     10  H   UNL     1      36.301 -18.943 -22.502  0.00  0.00    +0.174 HD
ENDROOT
BRANCH   5  16
ATOM     11  C   UNL     1      32.577 -10.412 -22.853  0.00  0.00    +0.048 C 
ATOM     12  C   UNL     1      33.365 -11.234 -23.658  0.00  0.00    +0.015 C 
ATOM     13  C   UNL     1      31.885 -10.952 -21.768  0.00  0.00    +0.015 C 
ATOM     14  C   UNL     1      33.462 -12.597 -23.379  0.00  0.00    +0.006 C 
ATOM     15  C   UNL     1      31.983 -12.315 -21.490  0.00  0.00    +0.006 C 
ATOM     16  C   UNL     1      32.771 -13.138 -22.294  0.00  0.00    +0.054 C 
BRANCH  11  17
ATOM     17  N   UNL     1      32.478  -9.044 -23.132  0.00  0.00    -0.312 N 
ATOM     18  N   UNL     1      32.454  -6.225 -23.555  0.00  0.00    +0.389 N 
ATOM     19  C   UNL     1      31.272  -6.897 -23.006  0.00  0.00    -0.042 C 
ATOM     20  C   UNL     1      33.156  -7.104 -24.497  0.00  0.00    -0.042 C 
ATOM     21  C   UNL     1      31.670  -8.181 -22.263  0.00  0.00    +0.069 C 
ATOM     22  C   UNL     1      33.614  -8.393 -23.799  0.00  0.00    +0.069 C 
ATOM     23  C   UNL     1      34.353  -6.355 -25.081  0.00  0.00    -0.022 C 
ATOM     24  C   UNL     1      30.544  -5.938 -22.065  0.00  0.00    -0.022 C 
ATOM     25  H   UNL     1      33.085  -5.981 -22.791  0.00  0.00    -0.084 HD
ATOM     26  H   UNL     1      32.155  -5.385 -24.049  0.00  0.00    -0.084 HD
ENDBRANCH  11  17
ENDBRANCH   5  16
BRANCH   6  27
ATOM     27  C   UNL     1      34.179 -20.026 -21.192  0.00  0.00    +0.047 C 
BRANCH  27  28
ATOM     28  C   UNL     1      35.378 -20.682 -20.462  0.00  0.00    +0.033 C 
BRANCH  28  29
ATOM     29  C   UNL     1      34.962 -21.498 -19.262  0.00  0.00    -0.016 C 
ATOM     30  C   UNL     1      35.916 -21.908 -18.331  0.00  0.00    +0.033 C 
ATOM     31  C   UNL     1      33.622 -21.839 -19.083  0.00  0.00    +0.033 C 
ATOM     32  C   UNL     1      33.235 -22.592 -17.974  0.00  0.00    +0.141 C 
ATOM     33  C   UNL     1      35.530 -22.660 -17.222  0.00  0.00    +0.141 C 
ATOM     34  C   UNL     1      34.190 -23.003 -17.043  0.00  0.00    +0.074 C 
BRANCH  32  35
ATOM     35  O   UNL     1      31.927 -22.926 -17.799  0.00  0.00    -0.471 OA
ATOM     36  C   UNL     1      31.506 -23.214 -16.466  0.00  0.00    +0.252 C 
ENDBRANCH  32  35
BRANCH  33  37
ATOM     37  O   UNL     1      36.461 -23.060 -16.313  0.00  0.00    -0.471 OA
ATOM     38  C   UNL     1      36.102 -22.974 -14.935  0.00  0.00    +0.252 C 
ENDBRANCH  33  37
ENDBRANCH  28  29
ENDBRANCH  27  28
ENDBRANCH   6  27
TORSDOF 7
ENDMDL
MODEL 8
REMARK VINA RESULT:     -11.4      3.353      6.138
REMARK  Name = 51039095
REMARK  7 active torsions:
REMARK  status: ('A' for Active; 'I' for Inactive)
REMARK    1  A    between atoms: C_5  and  C_16
REMARK    2  A    between atoms: C_6  and  C_27
REMARK    3  A    between atoms: C_11  and  N_17
REMARK    4  A    between atoms: C_27  and  C_28
REMARK    5  A    between atoms: C_28  and  C_29
REMARK    6  A    between atoms: C_32  and  O_35
REMARK    7  A    between atoms: C_33  and  O_37
REMARK                            x       y       z     vdW  Elec       q    Type
REMARK                         _______ _______ _______ _____ _____    ______ ____
ROOT
ATOM      1  O   UNL     1      35.939 -18.514 -20.413  0.00  0.00    -0.270 OA
ATOM      2  N   UNL     1      33.776 -19.289 -20.890  0.00  0.00    -0.265 N 
ATOM      3  N   UNL     1      32.990 -22.297 -19.344  0.00  0.00    -0.239 N 
ATOM      4  N   UNL     1      32.625 -21.283 -20.147  0.00  0.00    -0.166 NA
ATOM      5  C   UNL     1      34.844 -18.385 -20.983  0.00  0.00    +0.251 C 
ATOM      6  C   UNL     1      34.257 -22.181 -18.850  0.00  0.00    +0.046 C 
ATOM      7  C   UNL     1      33.707 -20.500 -20.157  0.00  0.00    +0.153 C 
ATOM      8  C   UNL     1      34.755 -21.010 -19.367  0.00  0.00    +0.048 C 
ATOM      9  H   UNL     1      32.969 -19.052 -21.400  0.00  0.00    +0.157 HD
ATOM     10  H   UNL     1      32.397 -23.053 -19.131  0.00  0.00    +0.174 HD
ENDROOT
BRANCH   5  16
ATOM     11  C   UNL     1      34.203 -15.023 -23.492  0.00  0.00    +0.048 C 
ATOM     12  C   UNL     1      34.135 -14.882 -22.106  0.00  0.00    +0.015 C 
ATOM     13  C   UNL     1      34.483 -16.268 -24.054  0.00  0.00    +0.015 C 
ATOM     14  C   UNL     1      34.346 -15.987 -21.281  0.00  0.00    +0.006 C 
ATOM     15  C   UNL     1      34.693 -17.373 -23.229  0.00  0.00    +0.006 C 
ATOM     16  C   UNL     1      34.626 -17.233 -21.843  0.00  0.00    +0.054 C 
BRANCH  11  17
ATOM     17  N   UNL     1      33.992 -13.915 -24.320  0.00  0.00    -0.312 N 
ATOM     18  N   UNL     1      33.368 -11.617 -25.886  0.00  0.00    +0.389 N 
ATOM     19  C   UNL     1      33.477 -12.934 -26.523  0.00  0.00    -0.042 C 
ATOM     20  C   UNL     1      34.303 -11.508 -24.762  0.00  0.00    -0.042 C 
ATOM     21  C   UNL     1      33.159 -14.052 -25.520  0.00  0.00    +0.069 C 
ATOM     22  C   UNL     1      34.007 -12.581 -23.704  0.00  0.00    +0.069 C 
ATOM     23  C   UNL     1      34.192 -10.110 -24.155  0.00  0.00    -0.022 C 
ATOM     24  C   UNL     1      32.522 -12.994 -27.714  0.00  0.00    -0.022 C 
ATOM     25  H   UNL     1      32.415 -11.489 -25.544  0.00  0.00    -0.084 HD
ATOM     26  H   UNL     1      33.595 -10.899 -26.574  0.00  0.00    -0.084 HD
ENDBRANCH  11  17
ENDBRANCH   5  16
BRANCH   6  27
ATOM     27  C   UNL     1      34.844 -23.188 -17.953  0.00  0.00    +0.047 C 
BRANCH  27  28
ATOM     28  C   UNL     1      34.086 -23.385 -16.615  0.00  0.00    +0.033 C 
BRANCH  28  29
ATOM     29  C   UNL     1      35.007 -23.684 -15.456  0.00  0.00    -0.016 C 
ATOM     30  C   UNL     1      36.390 -23.638 -15.632  0.00  0.00    +0.033 C 
ATOM     31  C   UNL     1      34.473 -24.003 -14.208  0.00  0.00    +0.033 C 
ATOM     32  C   UNL     1      35.321 -24.278 -13.135  0.00  0.00    +0.141 C 
ATOM     33  C   UNL     1      37.238 -23.912 -14.561  0.00  0.00    +0.141 C 
ATOM     34  C   UNL     1      36.705 -24.233 -13.312  0.00  0.00    +0.074 C 
BRANCH  32  35
ATOM     35  O   UNL     1      34.801 -24.590 -11.917  0.00  0.00    -0.471 OA
ATOM     36  C   UNL     1      35.607 -24.298 -10.776  0.00  0.00    +0.252 C 
ENDBRANCH  32  35
BRANCH  33  37
ATOM     37  O   UNL     1      38.588 -23.868 -14.732  0.00  0.00    -0.471 OA
ATOM     38  C   UNL     1      39.259 -25.111 -14.932  0.00  0.00    +0.252 C 
ENDBRANCH  33  37
ENDBRANCH  28  29
ENDBRANCH  27  28
ENDBRANCH   6  27
TORSDOF 7
ENDMDL
MODEL 9
REMARK VINA RESULT:     -11.4      3.196      6.223
REMARK  Name = 51039095
REMARK  7 active torsions:
REMARK  status: ('A' for Active; 'I' for Inactive)
REMARK    1  A    between atoms: C_5  and  C_16
REMARK    2  A    between atoms: C_6  and  C_27
REMARK    3  A    between atoms: C_11  and  N_17
REMARK    4  A    between atoms: C_27  and  C_28
REMARK    5  A    between atoms: C_28  and  C_29
REMARK    6  A    between atoms: C_32  and  O_35
REMARK    7  A    between atoms: C_33  and  O_37
REMARK                            x       y       z     vdW  Elec       q    Type
REMARK                         _______ _______ _______ _____ _____    ______ ____
ROOT
ATOM      1  O   UNL     1      36.015 -18.552 -20.587  0.00  0.00    -0.270 OA
ATOM      2  N   UNL     1      33.803 -19.248 -20.942  0.00  0.00    -0.265 N 
ATOM      3  N   UNL     1      33.006 -22.243 -19.378  0.00  0.00    -0.239 N 
ATOM      4  N   UNL     1      32.630 -21.209 -20.149  0.00  0.00    -0.166 NA
ATOM      5  C   UNL     1      34.894 -18.380 -21.090  0.00  0.00    +0.251 C 
ATOM      6  C   UNL     1      34.303 -22.176 -18.959  0.00  0.00    +0.046 C 
ATOM      7  C   UNL     1      33.735 -20.463 -20.217  0.00  0.00    +0.153 C 
ATOM      8  C   UNL     1      34.809 -21.017 -19.494  0.00  0.00    +0.048 C 
ATOM      9  H   UNL     1      32.976 -18.979 -21.402  0.00  0.00    +0.157 HD
ATOM     10  H   UNL     1      32.401 -22.981 -19.136  0.00  0.00    +0.174 HD
ENDROOT
BRANCH   5  16
ATOM     11  C   UNL     1      34.223 -14.972 -23.529  0.00  0.00    +0.048 C 
ATOM     12  C   UNL     1      34.252 -14.841 -22.141  0.00  0.00    +0.015 C 
ATOM     13  C   UNL     1      34.416 -16.222 -24.117  0.00  0.00    +0.015 C 
ATOM     14  C   UNL     1      34.472 -15.961 -21.340  0.00  0.00    +0.006 C 
ATOM     15  C   UNL     1      34.637 -17.342 -23.315  0.00  0.00    +0.006 C 
ATOM     16  C   UNL     1      34.665 -17.212 -21.927  0.00  0.00    +0.054 C 
BRANCH  11  17
ATOM     17  N   UNL     1      34.002 -13.849 -24.334  0.00  0.00    -0.312 N 
ATOM     18  N   UNL     1      33.357 -11.525 -25.854  0.00  0.00    +0.389 N 
ATOM     19  C   UNL     1      33.486 -12.826 -26.518  0.00  0.00    -0.042 C 
ATOM     20  C   UNL     1      34.285 -11.429 -24.722  0.00  0.00    -0.042 C 
ATOM     21  C   UNL     1      33.177 -13.971 -25.542  0.00  0.00    +0.069 C 
ATOM     22  C   UNL     1      33.997 -12.529 -23.690  0.00  0.00    +0.069 C 
ATOM     23  C   UNL     1      34.154 -10.047 -24.085  0.00  0.00    -0.022 C 
ATOM     24  C   UNL     1      32.538 -12.873 -27.715  0.00  0.00    -0.022 C 
ATOM     25  H   UNL     1      32.401 -11.417 -25.513  0.00  0.00    -0.084 HD
ATOM     26  H   UNL     1      33.578 -10.790 -26.525  0.00  0.00    -0.084 HD
ENDBRANCH  11  17
ENDBRANCH   5  16
BRANCH   6  27
ATOM     27  C   UNL     1      34.906 -23.211 -18.106  0.00  0.00    +0.047 C 
BRANCH  27  28
ATOM     28  C   UNL     1      35.247 -22.748 -16.667  0.00  0.00    +0.033 C 
BRANCH  28  29
ATOM     29  C   UNL     1      34.289 -23.290 -15.632  0.00  0.00    -0.016 C 
ATOM     30  C   UNL     1      32.930 -23.396 -15.927  0.00  0.00    +0.033 C 
ATOM     31  C   UNL     1      34.765 -23.686 -14.383  0.00  0.00    +0.033 C 
ATOM     32  C   UNL     1      33.882 -24.187 -13.426  0.00  0.00    +0.141 C 
ATOM     33  C   UNL     1      32.046 -23.898 -14.971  0.00  0.00    +0.141 C 
ATOM     34  C   UNL     1      32.521 -24.293 -13.721  0.00  0.00    +0.074 C 
BRANCH  32  35
ATOM     35  O   UNL     1      34.345 -24.574 -12.206  0.00  0.00    -0.471 OA
ATOM     36  C   UNL     1      35.655 -24.140 -11.844  0.00  0.00    +0.252 C 
ENDBRANCH  32  35
BRANCH  33  37
ATOM     37  O   UNL     1      30.720 -24.002 -15.258  0.00  0.00    -0.471 OA
ATOM     38  C   UNL     1      30.048 -25.177 -14.804  0.00  0.00    +0.252 C 
ENDBRANCH  33  37
ENDBRANCH  28  29
ENDBRANCH  27  28
ENDBRANCH   6  27
TORSDOF 7
ENDMDL
