MODEL 1
REMARK VINA RESULT:      -3.2      0.000      0.000
REMARK  Name = 12228
REMARK  0 active torsions:
REMARK  status: ('A' for Active; 'I' for Inactive)
REMARK                            x       y       z     vdW  Elec       q    Type
REMARK                         _______ _______ _______ _____ _____    ______ ____
ROOT
ATOM      1  O   UNL     1      27.771 -23.912 -17.455  0.00  0.00    -0.210 OA
ATOM      2  N   UNL     1      27.315 -21.625 -17.168  0.00  0.00    -0.191 NA
ATOM      3  C   UNL     1      26.045 -21.183 -17.746  0.00  0.00    +0.166 C 
ATOM      4  C   UNL     1      27.542 -22.767 -17.312  0.00  0.00    +0.235 C 
ENDROOT
TORSDOF 0
ENDMDL
MODEL 2
REMARK VINA RESULT:      -3.2      1.975      2.437
REMARK  Name = 12228
REMARK  0 active torsions:
REMARK  status: ('A' for Active; 'I' for Inactive)
REMARK                            x       y       z     vdW  Elec       q    Type
REMARK                         _______ _______ _______ _____ _____    ______ ____
ROOT
ATOM      1  O   UNL     1      25.570 -22.033 -15.788  0.00  0.00    -0.210 OA
ATOM      2  N   UNL     1      27.709 -21.964 -16.758  0.00  0.00    -0.191 NA
ATOM      3  C   UNL     1      28.256 -23.276 -17.111  0.00  0.00    +0.166 C 
ATOM      4  C   UNL     1      26.641 -22.000 -16.273  0.00  0.00    +0.235 C 
ENDROOT
TORSDOF 0
ENDMDL
MODEL 3
REMARK VINA RESULT:      -3.2     12.972     13.434
REMARK  Name = 12228
REMARK  0 active torsions:
REMARK  status: ('A' for Active; 'I' for Inactive)
REMARK                            x       y       z     vdW  Elec       q    Type
REMARK                         _______ _______ _______ _____ _____    ______ ____
ROOT
ATOM      1  O   UNL     1      41.090 -24.867 -14.602  0.00  0.00    -0.210 OA
ATOM      2  N   UNL     1      39.473 -26.571 -14.669  0.00  0.00    -0.191 NA
ATOM      3  C   UNL     1      38.089 -26.095 -14.652  0.00  0.00    +0.166 C 
ATOM      4  C   UNL     1      40.279 -25.719 -14.635  0.00  0.00    +0.235 C 
ENDROOT
TORSDOF 0
ENDMDL
MODEL 4
REMARK VINA RESULT:      -3.1      1.845      2.609
REMARK  Name = 12228
REMARK  0 active torsions:
REMARK  status: ('A' for Active; 'I' for Inactive)
REMARK                            x       y       z     vdW  Elec       q    Type
REMARK                         _______ _______ _______ _____ _____    ______ ____
ROOT
ATOM      1  O   UNL     1      27.471 -24.016 -17.610  0.00  0.00    -0.210 OA
ATOM      2  N   UNL     1      29.025 -22.398 -16.911  0.00  0.00    -0.191 NA
ATOM      3  C   UNL     1      30.251 -22.947 -16.327  0.00  0.00    +0.166 C 
ATOM      4  C   UNL     1      28.250 -23.207 -17.260  0.00  0.00    +0.235 C 
ENDROOT
TORSDOF 0
ENDMDL
MODEL 5
REMARK VINA RESULT:      -3.0     11.215     11.620
REMARK  Name = 12228
REMARK  0 active torsions:
REMARK  status: ('A' for Active; 'I' for Inactive)
REMARK                            x       y       z     vdW  Elec       q    Type
REMARK                         _______ _______ _______ _____ _____    ______ ____
ROOT
ATOM      1  O   UNL     1      36.083 -26.564 -15.731  0.00  0.00    -0.210 OA
ATOM      2  N   UNL     1      38.129 -26.974 -14.650  0.00  0.00    -0.191 NA
ATOM      3  C   UNL     1      38.838 -25.767 -14.217  0.00  0.00    +0.166 C 
ATOM      4  C   UNL     1      37.108 -26.767 -15.190  0.00  0.00    +0.235 C 
ENDROOT
TORSDOF 0
ENDMDL
MODEL 6
REMARK VINA RESULT:      -2.9     16.001     16.027
REMARK  Name = 12228
REMARK  0 active torsions:
REMARK  status: ('A' for Active; 'I' for Inactive)
REMARK                            x       y       z     vdW  Elec       q    Type
REMARK                         _______ _______ _______ _____ _____    ______ ____
ROOT
ATOM      1  O   UNL     1      42.425 -16.611 -15.794  0.00  0.00    -0.210 OA
ATOM      2  N   UNL     1      40.913 -15.014 -16.623  0.00  0.00    -0.191 NA
ATOM      3  C   UNL     1      41.302 -14.418 -17.903  0.00  0.00    +0.166 C 
ATOM      4  C   UNL     1      41.669 -15.811 -16.211  0.00  0.00    +0.235 C 
ENDROOT
TORSDOF 0
ENDMDL
MODEL 7
REMARK VINA RESULT:      -2.9     10.364     10.756
REMARK  Name = 12228
REMARK  0 active torsions:
REMARK  status: ('A' for Active; 'I' for Inactive)
REMARK                            x       y       z     vdW  Elec       q    Type
REMARK                         _______ _______ _______ _____ _____    ______ ____
ROOT
ATOM      1  O   UNL     1      36.430 -23.960  -9.864  0.00  0.00    -0.210 OA
ATOM      2  N   UNL     1      35.009 -24.797 -11.539  0.00  0.00    -0.191 NA
ATOM      3  C   UNL     1      35.167 -24.153 -12.845  0.00  0.00    +0.166 C 
ATOM      4  C   UNL     1      35.719 -24.378 -10.704  0.00  0.00    +0.235 C 
ENDROOT
TORSDOF 0
ENDMDL
MODEL 8
REMARK VINA RESULT:      -2.8     11.306     11.572
REMARK  Name = 12228
REMARK  0 active torsions:
REMARK  status: ('A' for Active; 'I' for Inactive)
REMARK                            x       y       z     vdW  Elec       q    Type
REMARK                         _______ _______ _______ _____ _____    ______ ____
ROOT
ATOM      1  O   UNL     1      35.274 -25.031 -10.648  0.00  0.00    -0.210 OA
ATOM      2  N   UNL     1      36.923 -23.410 -11.070  0.00  0.00    -0.191 NA
ATOM      3  C   UNL     1      37.966 -23.836 -12.006  0.00  0.00    +0.166 C 
ATOM      4  C   UNL     1      36.100 -24.221 -10.860  0.00  0.00    +0.235 C 
ENDROOT
TORSDOF 0
ENDMDL
MODEL 9
REMARK VINA RESULT:      -2.8     11.447     11.655
REMARK  Name = 12228
REMARK  0 active torsions:
REMARK  status: ('A' for Active; 'I' for Inactive)
REMARK                            x       y       z     vdW  Elec       q    Type
REMARK                         _______ _______ _______ _____ _____    ______ ____
ROOT
ATOM      1  O   UNL     1      36.762 -26.059 -11.931  0.00  0.00    -0.210 OA
ATOM      2  N   UNL     1      37.792 -26.684 -13.949  0.00  0.00    -0.191 NA
ATOM      3  C   UNL     1      36.908 -26.650 -15.117  0.00  0.00    +0.166 C 
ATOM      4  C   UNL     1      37.276 -26.372 -12.942  0.00  0.00    +0.235 C 
ENDROOT
TORSDOF 0
ENDMDL
