MODEL 1
REMARK VINA RESULT:      -9.1      0.000      0.000
REMARK  Name = 272833
REMARK  6 active torsions:
REMARK  status: ('A' for Active; 'I' for Inactive)
REMARK    1  A    between atoms: CA_6  and  C_25
REMARK    2  A    between atoms: CA_7  and  N_12
REMARK    3  A    between atoms: C_13  and  C_15
REMARK    4  A    between atoms: C_15  and  O_17
REMARK    5  A    between atoms: O_17  and  C_18
REMARK    6  A    between atoms: C_25  and  O_26
REMARK                            x       y       z     vdW  Elec       q    Type
REMARK                         _______ _______ _______ _____ _____    ______ ____
ROOT
ATOM      1  S   UNL     1      37.613 -24.231 -14.363  0.00  0.00    -0.118 S 
ATOM      2  O   UNL     1      33.465 -23.124 -13.376  0.00  0.00    -0.273 OA
ATOM      3  N   UNL     1      35.357 -24.512 -13.116  0.00  0.00    -0.260 N 
ATOM      4  C   UNL     1      35.975 -25.045 -14.334  0.00  0.00    +0.151 C 
ATOM      5  C   UNL     1      37.668 -24.187 -12.501  0.00  0.00    +0.068 C 
ATOM      6  CA  UNL     1      36.202 -23.918 -12.100  0.00  0.00    +0.184 C 
ATOM      7  CA  UNL     1      34.850 -24.363 -15.126  0.00  0.00    +0.178 C 
ATOM      8  C   UNL     1      34.332 -23.877 -13.757  0.00  0.00    +0.247 C 
ATOM      9  C   UNL     1      38.225 -25.532 -12.013  0.00  0.00    +0.013 C 
ATOM     10  C   UNL     1      38.586 -23.048 -12.056  0.00  0.00    +0.013 C 
ENDROOT
BRANCH   7  12
ATOM     11  O   UNL     1      33.771 -23.837 -17.761  0.00  0.00    -0.271 OA
ATOM     12  N   UNL     1      35.227 -23.277 -16.042  0.00  0.00    -0.293 N 
ATOM     13  C   UNL     1      34.645 -23.107 -17.299  0.00  0.00    +0.263 C 
ATOM     14  H   UNL     1      35.921 -22.641 -15.756  0.00  0.00    +0.150 HD
BRANCH  13  15
ATOM     15  C   UNL     1      35.189 -21.900 -18.050  0.00  0.00    +0.241 C 
ATOM     16  C   UNL     1      36.696 -21.788 -17.885  0.00  0.00    +0.057 C 
BRANCH  15  17
ATOM     17  O   UNL     1      34.903 -22.045 -19.432  0.00  0.00    -0.470 OA
BRANCH  17  18
ATOM     18  C   UNL     1      34.550 -20.910 -20.115  0.00  0.00    +0.139 C 
ATOM     19  C   UNL     1      33.213 -20.536 -20.182  0.00  0.00    +0.037 C 
ATOM     20  C   UNL     1      35.533 -20.147 -20.734  0.00  0.00    +0.037 C 
ATOM     21  C   UNL     1      32.854 -19.382 -20.877  0.00  0.00    +0.003 C 
ATOM     22  C   UNL     1      35.174 -18.992 -21.430  0.00  0.00    +0.003 C 
ATOM     23  C   UNL     1      33.835 -18.610 -21.502  0.00  0.00    +0.000 C 
ENDBRANCH  17  18
ENDBRANCH  15  17
ENDBRANCH  13  15
ENDBRANCH   7  12
BRANCH   6  25
ATOM     24  OXT UNL     1      35.024 -25.441 -10.643  0.00  0.00    -0.248 OA
ATOM     25  C   UNL     1      35.782 -24.494 -10.785  0.00  0.00    +0.333 C 
BRANCH  25  26
ATOM     26  O   UNL     1      36.358 -23.818  -9.761  0.00  0.00    -0.479 OA
ATOM     27  H   UNL     1      36.610 -22.922  -9.874  0.00  0.00    +0.295 HD
ENDBRANCH  25  26
ENDBRANCH   6  25
TORSDOF 6
ENDMDL
MODEL 2
REMARK VINA RESULT:      -8.4      6.498     11.313
REMARK  Name = 272833
REMARK  6 active torsions:
REMARK  status: ('A' for Active; 'I' for Inactive)
REMARK    1  A    between atoms: CA_6  and  C_25
REMARK    2  A    between atoms: CA_7  and  N_12
REMARK    3  A    between atoms: C_13  and  C_15
REMARK    4  A    between atoms: C_15  and  O_17
REMARK    5  A    between atoms: O_17  and  C_18
REMARK    6  A    between atoms: C_25  and  O_26
REMARK                            x       y       z     vdW  Elec       q    Type
REMARK                         _______ _______ _______ _____ _____    ______ ____
ROOT
ATOM      1  S   UNL     1      34.375 -14.993 -23.512  0.00  0.00    -0.118 S 
ATOM      2  O   UNL     1      31.925 -15.328 -19.866  0.00  0.00    -0.273 OA
ATOM      3  N   UNL     1      33.254 -14.075 -21.361  0.00  0.00    -0.260 N 
ATOM      4  C   UNL     1      34.561 -14.629 -21.729  0.00  0.00    +0.151 C 
ATOM      5  C   UNL     1      33.194 -13.567 -23.719  0.00  0.00    +0.068 C 
ATOM      6  CA  UNL     1      32.386 -13.568 -22.404  0.00  0.00    +0.184 C 
ATOM      7  CA  UNL     1      34.274 -15.781 -20.755  0.00  0.00    +0.178 C 
ATOM      8  C   UNL     1      32.933 -15.070 -20.483  0.00  0.00    +0.247 C 
ATOM      9  C   UNL     1      34.024 -12.297 -23.955  0.00  0.00    +0.013 C 
ATOM     10  C   UNL     1      32.294 -13.836 -24.927  0.00  0.00    +0.013 C 
ENDROOT
BRANCH   7  12
ATOM     11  O   UNL     1      36.063 -18.030 -20.404  0.00  0.00    -0.271 OA
ATOM     12  N   UNL     1      34.132 -17.129 -21.322  0.00  0.00    -0.293 N 
ATOM     13  C   UNL     1      35.053 -18.153 -21.092  0.00  0.00    +0.263 C 
ATOM     14  H   UNL     1      33.350 -17.321 -21.889  0.00  0.00    +0.150 HD
BRANCH  13  15
ATOM     15  C   UNL     1      34.675 -19.461 -21.771  0.00  0.00    +0.241 C 
ATOM     16  C   UNL     1      34.820 -19.355 -23.281  0.00  0.00    +0.057 C 
BRANCH  15  17
ATOM     17  O   UNL     1      35.538 -20.489 -21.313  0.00  0.00    -0.470 OA
BRANCH  17  18
ATOM     18  C   UNL     1      35.169 -21.144 -20.167  0.00  0.00    +0.139 C 
ATOM     19  C   UNL     1      36.130 -21.454 -19.212  0.00  0.00    +0.037 C 
ATOM     20  C   UNL     1      33.838 -21.493 -19.974  0.00  0.00    +0.037 C 
ATOM     21  C   UNL     1      35.754 -22.121 -18.046  0.00  0.00    +0.003 C 
ATOM     22  C   UNL     1      33.461 -22.161 -18.808  0.00  0.00    +0.003 C 
ATOM     23  C   UNL     1      34.420 -22.475 -17.845  0.00  0.00    +0.000 C 
ENDBRANCH  17  18
ENDBRANCH  15  17
ENDBRANCH  13  15
ENDBRANCH   7  12
BRANCH   6  25
ATOM     24  OXT UNL     1      31.544 -11.326 -22.698  0.00  0.00    -0.248 OA
ATOM     25  C   UNL     1      31.891 -12.231 -21.955  0.00  0.00    +0.333 C 
BRANCH  25  26
ATOM     26  O   UNL     1      31.879 -12.155 -20.602  0.00  0.00    -0.479 OA
ATOM     27  H   UNL     1      31.106 -11.870 -20.155  0.00  0.00    +0.295 HD
ENDBRANCH  25  26
ENDBRANCH   6  25
TORSDOF 6
ENDMDL
MODEL 3
REMARK VINA RESULT:      -8.0      9.948     14.970
REMARK  Name = 272833
REMARK  6 active torsions:
REMARK  status: ('A' for Active; 'I' for Inactive)
REMARK    1  A    between atoms: CA_6  and  C_25
REMARK    2  A    between atoms: CA_7  and  N_12
REMARK    3  A    between atoms: C_13  and  C_15
REMARK    4  A    between atoms: C_15  and  O_17
REMARK    5  A    between atoms: O_17  and  C_18
REMARK    6  A    between atoms: C_25  and  O_26
REMARK                            x       y       z     vdW  Elec       q    Type
REMARK                         _______ _______ _______ _____ _____    ______ ____
ROOT
ATOM      1  S   UNL     1      31.979 -10.299 -22.170  0.00  0.00    -0.118 S 
ATOM      2  O   UNL     1      35.733  -9.933 -24.447  0.00  0.00    -0.273 OA
ATOM      3  N   UNL     1      33.518  -9.263 -23.983  0.00  0.00    -0.260 N 
ATOM      4  C   UNL     1      32.494 -10.311 -23.926  0.00  0.00    +0.151 C 
ATOM      5  C   UNL     1      32.321  -8.472 -22.042  0.00  0.00    +0.068 C 
ATOM      6  CA  UNL     1      33.569  -8.272 -22.928  0.00  0.00    +0.184 C 
ATOM      7  CA  UNL     1      33.589 -11.313 -24.318  0.00  0.00    +0.178 C 
ATOM      8  C   UNL     1      34.540 -10.099 -24.329  0.00  0.00    +0.247 C 
ATOM      9  C   UNL     1      31.071  -7.723 -22.525  0.00  0.00    +0.013 C 
ATOM     10  C   UNL     1      32.611  -8.120 -20.582  0.00  0.00    +0.013 C 
ENDROOT
BRANCH   7  12
ATOM     11  O   UNL     1      33.485 -14.184 -24.673  0.00  0.00    -0.271 OA
ATOM     12  N   UNL     1      33.949 -12.345 -23.336  0.00  0.00    -0.293 N 
ATOM     13  C   UNL     1      33.864 -13.712 -23.604  0.00  0.00    +0.263 C 
ATOM     14  H   UNL     1      34.264 -12.060 -22.449  0.00  0.00    +0.150 HD
BRANCH  13  15
ATOM     15  C   UNL     1      34.310 -14.578 -22.435  0.00  0.00    +0.241 C 
ATOM     16  C   UNL     1      33.157 -15.416 -21.904  0.00  0.00    +0.057 C 
BRANCH  15  17
ATOM     17  O   UNL     1      35.333 -15.458 -22.872  0.00  0.00    -0.470 OA
BRANCH  17  18
ATOM     18  C   UNL     1      35.133 -16.798 -22.657  0.00  0.00    +0.139 C 
ATOM     19  C   UNL     1      35.266 -17.315 -21.374  0.00  0.00    +0.037 C 
ATOM     20  C   UNL     1      34.801 -17.623 -23.725  0.00  0.00    +0.037 C 
ATOM     21  C   UNL     1      35.062 -18.678 -21.156  0.00  0.00    +0.003 C 
ATOM     22  C   UNL     1      34.598 -18.986 -23.507  0.00  0.00    +0.003 C 
ATOM     23  C   UNL     1      34.729 -19.513 -22.223  0.00  0.00    +0.000 C 
ENDBRANCH  17  18
ENDBRANCH  15  17
ENDBRANCH  13  15
ENDBRANCH   7  12
BRANCH   6  25
ATOM     24  OXT UNL     1      32.848  -6.043 -23.509  0.00  0.00    -0.248 OA
ATOM     25  C   UNL     1      33.680  -6.933 -23.585  0.00  0.00    +0.333 C 
BRANCH  25  26
ATOM     26  O   UNL     1      34.837  -6.839 -24.285  0.00  0.00    -0.479 OA
ATOM     27  H   UNL     1      35.641  -7.134 -23.905  0.00  0.00    +0.295 HD
ENDBRANCH  25  26
ENDBRANCH   6  25
TORSDOF 6
ENDMDL
MODEL 4
REMARK VINA RESULT:      -7.7      8.631     13.230
REMARK  Name = 272833
REMARK  6 active torsions:
REMARK  status: ('A' for Active; 'I' for Inactive)
REMARK    1  A    between atoms: CA_6  and  C_25
REMARK    2  A    between atoms: CA_7  and  N_12
REMARK    3  A    between atoms: C_13  and  C_15
REMARK    4  A    between atoms: C_15  and  O_17
REMARK    5  A    between atoms: O_17  and  C_18
REMARK    6  A    between atoms: C_25  and  O_26
REMARK                            x       y       z     vdW  Elec       q    Type
REMARK                         _______ _______ _______ _____ _____    ______ ____
ROOT
ATOM      1  S   UNL     1      31.977 -13.082 -21.495  0.00  0.00    -0.118 S 
ATOM      2  O   UNL     1      34.843 -11.045 -24.150  0.00  0.00    -0.273 OA
ATOM      3  N   UNL     1      32.668 -11.330 -23.278  0.00  0.00    -0.260 N 
ATOM      4  C   UNL     1      32.114 -12.688 -23.277  0.00  0.00    +0.151 C 
ATOM      5  C   UNL     1      31.666 -11.293 -21.083  0.00  0.00    +0.068 C 
ATOM      6  CA  UNL     1      32.566 -10.528 -22.077  0.00  0.00    +0.184 C 
ATOM      7  CA  UNL     1      33.396 -13.142 -23.989  0.00  0.00    +0.178 C 
ATOM      8  C   UNL     1      33.833 -11.666 -23.905  0.00  0.00    +0.247 C 
ATOM      9  C   UNL     1      30.164 -11.024 -21.249  0.00  0.00    +0.013 C 
ATOM     10  C   UNL     1      32.087 -11.034 -19.635  0.00  0.00    +0.013 C 
ENDROOT
BRANCH   7  12
ATOM     11  O   UNL     1      33.630 -16.002 -24.377  0.00  0.00    -0.271 OA
ATOM     12  N   UNL     1      34.280 -14.069 -23.269  0.00  0.00    -0.293 N 
ATOM     13  C   UNL     1      34.321 -15.439 -23.530  0.00  0.00    +0.263 C 
ATOM     14  H   UNL     1      34.872 -13.707 -22.571  0.00  0.00    +0.150 HD
BRANCH  13  15
ATOM     15  C   UNL     1      35.331 -16.182 -22.668  0.00  0.00    +0.241 C 
ATOM     16  C   UNL     1      34.904 -16.188 -21.209  0.00  0.00    +0.057 C 
BRANCH  15  17
ATOM     17  O   UNL     1      35.419 -17.527 -23.110  0.00  0.00    -0.470 OA
BRANCH  17  18
ATOM     18  C   UNL     1      35.415 -18.500 -22.143  0.00  0.00    +0.139 C 
ATOM     19  C   UNL     1      34.233 -19.164 -21.840  0.00  0.00    +0.037 C 
ATOM     20  C   UNL     1      36.594 -18.808 -21.476  0.00  0.00    +0.037 C 
ATOM     21  C   UNL     1      34.230 -20.152 -20.856  0.00  0.00    +0.003 C 
ATOM     22  C   UNL     1      36.592 -19.797 -20.491  0.00  0.00    +0.003 C 
ATOM     23  C   UNL     1      35.410 -20.468 -20.181  0.00  0.00    +0.000 C 
ENDBRANCH  17  18
ENDBRANCH  15  17
ENDBRANCH  13  15
ENDBRANCH   7  12
BRANCH   6  25
ATOM     24  OXT UNL     1      31.528  -8.925 -23.554  0.00  0.00    -0.248 OA
ATOM     25  C   UNL     1      32.066  -9.180 -22.487  0.00  0.00    +0.333 C 
BRANCH  25  26
ATOM     26  O   UNL     1      32.292  -8.268 -21.510  0.00  0.00    -0.479 OA
ATOM     27  H   UNL     1      33.030  -7.693 -21.567  0.00  0.00    +0.295 HD
ENDBRANCH  25  26
ENDBRANCH   6  25
TORSDOF 6
ENDMDL
MODEL 5
REMARK VINA RESULT:      -7.7      1.582      2.056
REMARK  Name = 272833
REMARK  6 active torsions:
REMARK  status: ('A' for Active; 'I' for Inactive)
REMARK    1  A    between atoms: CA_6  and  C_25
REMARK    2  A    between atoms: CA_7  and  N_12
REMARK    3  A    between atoms: C_13  and  C_15
REMARK    4  A    between atoms: C_15  and  O_17
REMARK    5  A    between atoms: O_17  and  C_18
REMARK    6  A    between atoms: C_25  and  O_26
REMARK                            x       y       z     vdW  Elec       q    Type
REMARK                         _______ _______ _______ _____ _____    ______ ____
ROOT
ATOM      1  S   UNL     1      36.629 -23.618 -15.719  0.00  0.00    -0.118 S 
ATOM      2  O   UNL     1      32.384 -22.668 -15.021  0.00  0.00    -0.273 OA
ATOM      3  N   UNL     1      34.275 -24.047 -14.718  0.00  0.00    -0.260 N 
ATOM      4  C   UNL     1      35.013 -24.454 -15.918  0.00  0.00    +0.151 C 
ATOM      5  C   UNL     1      36.513 -23.750 -13.865  0.00  0.00    +0.068 C 
ATOM      6  CA  UNL     1      35.011 -23.541 -13.577  0.00  0.00    +0.184 C 
ATOM      7  CA  UNL     1      33.949 -23.716 -16.743  0.00  0.00    +0.178 C 
ATOM      8  C   UNL     1      33.299 -23.369 -15.389  0.00  0.00    +0.247 C 
ATOM      9  C   UNL     1      37.054 -25.127 -13.454  0.00  0.00    +0.013 C 
ATOM     10  C   UNL     1      37.361 -22.645 -13.232  0.00  0.00    +0.013 C 
ENDROOT
BRANCH   7  12
ATOM     11  O   UNL     1      33.927 -23.405 -19.622  0.00  0.00    -0.271 OA
ATOM     12  N   UNL     1      34.383 -22.543 -17.516  0.00  0.00    -0.293 N 
ATOM     13  C   UNL     1      34.333 -22.489 -18.910  0.00  0.00    +0.263 C 
ATOM     14  H   UNL     1      34.724 -21.759 -17.028  0.00  0.00    +0.150 HD
BRANCH  13  15
ATOM     15  C   UNL     1      34.818 -21.162 -19.474  0.00  0.00    +0.241 C 
ATOM     16  C   UNL     1      36.335 -21.126 -19.559  0.00  0.00    +0.057 C 
BRANCH  15  17
ATOM     17  O   UNL     1      34.296 -20.995 -20.782  0.00  0.00    -0.470 OA
BRANCH  17  18
ATOM     18  C   UNL     1      34.469 -19.767 -21.367  0.00  0.00    +0.139 C 
ATOM     19  C   UNL     1      34.004 -18.627 -20.723  0.00  0.00    +0.037 C 
ATOM     20  C   UNL     1      35.107 -19.677 -22.598  0.00  0.00    +0.037 C 
ATOM     21  C   UNL     1      34.180 -17.378 -21.318  0.00  0.00    +0.003 C 
ATOM     22  C   UNL     1      35.283 -18.428 -23.195  0.00  0.00    +0.003 C 
ATOM     23  C   UNL     1      34.820 -17.279 -22.555  0.00  0.00    +0.000 C 
ENDBRANCH  17  18
ENDBRANCH  15  17
ENDBRANCH  13  15
ENDBRANCH   7  12
BRANCH   6  25
ATOM     24  OXT UNL     1      34.919 -24.106 -11.232  0.00  0.00    -0.248 OA
ATOM     25  C   UNL     1      34.487 -24.244 -12.366  0.00  0.00    +0.333 C 
BRANCH  25  26
ATOM     26  O   UNL     1      33.459 -25.064 -12.697  0.00  0.00    -0.479 OA
ATOM     27  H   UNL     1      33.086 -25.026 -13.555  0.00  0.00    +0.295 HD
ENDBRANCH  25  26
ENDBRANCH   6  25
TORSDOF 6
ENDMDL
MODEL 6
REMARK VINA RESULT:      -7.7      9.671     13.549
REMARK  Name = 272833
REMARK  6 active torsions:
REMARK  status: ('A' for Active; 'I' for Inactive)
REMARK    1  A    between atoms: CA_6  and  C_25
REMARK    2  A    between atoms: CA_7  and  N_12
REMARK    3  A    between atoms: C_13  and  C_15
REMARK    4  A    between atoms: C_15  and  O_17
REMARK    5  A    between atoms: O_17  and  C_18
REMARK    6  A    between atoms: C_25  and  O_26
REMARK                            x       y       z     vdW  Elec       q    Type
REMARK                         _______ _______ _______ _____ _____    ______ ____
ROOT
ATOM      1  S   UNL     1      34.264 -15.002 -21.533  0.00  0.00    -0.118 S 
ATOM      2  O   UNL     1      32.649 -14.760 -25.624  0.00  0.00    -0.273 OA
ATOM      3  N   UNL     1      34.267 -15.508 -24.076  0.00  0.00    -0.260 N 
ATOM      4  C   UNL     1      34.864 -14.506 -23.188  0.00  0.00    +0.151 C 
ATOM      5  C   UNL     1      34.241 -16.796 -22.035  0.00  0.00    +0.068 C 
ATOM      6  CA  UNL     1      33.792 -16.755 -23.511  0.00  0.00    +0.184 C 
ATOM      7  CA  UNL     1      34.040 -13.447 -23.934  0.00  0.00    +0.178 C 
ATOM      8  C   UNL     1      33.502 -14.621 -24.778  0.00  0.00    +0.247 C 
ATOM      9  C   UNL     1      35.649 -17.366 -21.814  0.00  0.00    +0.013 C 
ATOM     10  C   UNL     1      33.230 -17.544 -21.165  0.00  0.00    +0.013 C 
ENDROOT
BRANCH   7  12
ATOM     11  O   UNL     1      33.680 -10.583 -23.720  0.00  0.00    -0.271 OA
ATOM     12  N   UNL     1      33.004 -12.734 -23.174  0.00  0.00    -0.293 N 
ATOM     13  C   UNL     1      32.913 -11.342 -23.133  0.00  0.00    +0.263 C 
ATOM     14  H   UNL     1      32.343 -13.262 -22.670  0.00  0.00    +0.150 HD
BRANCH  13  15
ATOM     15  C   UNL     1      31.745 -10.844 -22.295  0.00  0.00    +0.241 C 
ATOM     16  C   UNL     1      31.258 -11.923 -21.340  0.00  0.00    +0.057 C 
BRANCH  15  17
ATOM     17  O   UNL     1      32.166  -9.729 -21.526  0.00  0.00    -0.470 OA
BRANCH  17  18
ATOM     18  C   UNL     1      31.824  -8.487 -21.995  0.00  0.00    +0.139 C 
ATOM     19  C   UNL     1      31.194  -8.367 -23.227  0.00  0.00    +0.037 C 
ATOM     20  C   UNL     1      32.112  -7.362 -21.232  0.00  0.00    +0.037 C 
ATOM     21  C   UNL     1      30.846  -7.103 -23.704  0.00  0.00    +0.003 C 
ATOM     22  C   UNL     1      31.765  -6.097 -21.709  0.00  0.00    +0.003 C 
ATOM     23  C   UNL     1      31.132  -5.968 -22.945  0.00  0.00    +0.000 C 
ENDBRANCH  17  18
ENDBRANCH  15  17
ENDBRANCH  13  15
ENDBRANCH   7  12
BRANCH   6  25
ATOM     24  OXT UNL     1      34.431 -19.025 -24.028  0.00  0.00    -0.248 OA
ATOM     25  C   UNL     1      34.320 -17.858 -24.372  0.00  0.00    +0.333 C 
BRANCH  25  26
ATOM     26  O   UNL     1      34.663 -17.388 -25.596  0.00  0.00    -0.479 OA
ATOM     27  H   UNL     1      35.416 -16.838 -25.692  0.00  0.00    +0.295 HD
ENDBRANCH  25  26
ENDBRANCH   6  25
TORSDOF 6
ENDMDL
MODEL 7
REMARK VINA RESULT:      -7.6      2.680      3.506
REMARK  Name = 272833
REMARK  6 active torsions:
REMARK  status: ('A' for Active; 'I' for Inactive)
REMARK    1  A    between atoms: CA_6  and  C_25
REMARK    2  A    between atoms: CA_7  and  N_12
REMARK    3  A    between atoms: C_13  and  C_15
REMARK    4  A    between atoms: C_15  and  O_17
REMARK    5  A    between atoms: O_17  and  C_18
REMARK    6  A    between atoms: C_25  and  O_26
REMARK                            x       y       z     vdW  Elec       q    Type
REMARK                         _______ _______ _______ _____ _____    ______ ____
ROOT
ATOM      1  S   UNL     1      35.407 -24.925 -15.111  0.00  0.00    -0.118 S 
ATOM      2  O   UNL     1      38.862 -22.595 -16.541  0.00  0.00    -0.273 OA
ATOM      3  N   UNL     1      37.716 -23.773 -14.847  0.00  0.00    -0.260 N 
ATOM      4  C   UNL     1      36.314 -23.417 -14.608  0.00  0.00    +0.151 C 
ATOM      5  C   UNL     1      36.832 -26.004 -14.587  0.00  0.00    +0.068 C 
ATOM      6  CA  UNL     1      38.077 -25.171 -14.962  0.00  0.00    +0.184 C 
ATOM      7  CA  UNL     1      36.478 -22.322 -15.671  0.00  0.00    +0.178 C 
ATOM      8  C   UNL     1      37.930 -22.823 -15.805  0.00  0.00    +0.247 C 
ATOM      9  C   UNL     1      36.684 -26.286 -13.086  0.00  0.00    +0.013 C 
ATOM     10  C   UNL     1      36.780 -27.315 -15.374  0.00  0.00    +0.013 C 
ENDROOT
BRANCH   7  12
ATOM     11  O   UNL     1      36.817 -20.837 -18.133  0.00  0.00    -0.271 OA
ATOM     12  N   UNL     1      35.687 -22.447 -16.903  0.00  0.00    -0.293 N 
ATOM     13  C   UNL     1      35.929 -21.682 -18.045  0.00  0.00    +0.263 C 
ATOM     14  H   UNL     1      34.952 -23.102 -16.924  0.00  0.00    +0.150 HD
BRANCH  13  15
ATOM     15  C   UNL     1      34.989 -22.010 -19.195  0.00  0.00    +0.241 C 
ATOM     16  C   UNL     1      34.011 -23.107 -18.805  0.00  0.00    +0.057 C 
BRANCH  15  17
ATOM     17  O   UNL     1      34.244 -20.851 -19.531  0.00  0.00    -0.470 OA
BRANCH  17  18
ATOM     18  C   UNL     1      34.712 -20.093 -20.574  0.00  0.00    +0.139 C 
ATOM     19  C   UNL     1      36.041 -19.688 -20.586  0.00  0.00    +0.037 C 
ATOM     20  C   UNL     1      33.852 -19.738 -21.605  0.00  0.00    +0.037 C 
ATOM     21  C   UNL     1      36.517 -18.917 -21.646  0.00  0.00    +0.003 C 
ATOM     22  C   UNL     1      34.327 -18.967 -22.666  0.00  0.00    +0.003 C 
ATOM     23  C   UNL     1      35.660 -18.556 -22.686  0.00  0.00    +0.000 C 
ENDBRANCH  17  18
ENDBRANCH  15  17
ENDBRANCH  13  15
ENDBRANCH   7  12
BRANCH   6  25
ATOM     24  OXT UNL     1      39.625 -24.660 -13.182  0.00  0.00    -0.248 OA
ATOM     25  C   UNL     1      39.277 -25.390 -14.098  0.00  0.00    +0.333 C 
BRANCH  25  26
ATOM     26  O   UNL     1      39.937 -26.514 -14.470  0.00  0.00    -0.479 OA
ATOM     27  H   UNL     1      39.942 -26.778 -15.369  0.00  0.00    +0.295 HD
ENDBRANCH  25  26
ENDBRANCH   6  25
TORSDOF 6
ENDMDL
MODEL 8
REMARK VINA RESULT:      -7.6      4.160      5.499
REMARK  Name = 272833
REMARK  6 active torsions:
REMARK  status: ('A' for Active; 'I' for Inactive)
REMARK    1  A    between atoms: CA_6  and  C_25
REMARK    2  A    between atoms: CA_7  and  N_12
REMARK    3  A    between atoms: C_13  and  C_15
REMARK    4  A    between atoms: C_15  and  O_17
REMARK    5  A    between atoms: O_17  and  C_18
REMARK    6  A    between atoms: C_25  and  O_26
REMARK                            x       y       z     vdW  Elec       q    Type
REMARK                         _______ _______ _______ _____ _____    ______ ____
ROOT
ATOM      1  S   UNL     1      35.758 -24.296 -12.375  0.00  0.00    -0.118 S 
ATOM      2  O   UNL     1      35.443 -24.061 -16.763  0.00  0.00    -0.273 OA
ATOM      3  N   UNL     1      36.624 -23.712 -14.750  0.00  0.00    -0.260 N 
ATOM      4  C   UNL     1      35.922 -23.012 -13.669  0.00  0.00    +0.151 C 
ATOM      5  C   UNL     1      37.353 -25.095 -12.911  0.00  0.00    +0.068 C 
ATOM      6  CA  UNL     1      37.346 -24.930 -14.446  0.00  0.00    +0.184 C 
ATOM      7  CA  UNL     1      34.739 -22.845 -14.632  0.00  0.00    +0.178 C 
ATOM      8  C   UNL     1      35.608 -23.604 -15.656  0.00  0.00    +0.247 C 
ATOM      9  C   UNL     1      38.506 -24.373 -12.199  0.00  0.00    +0.013 C 
ATOM     10  C   UNL     1      37.331 -26.570 -12.508  0.00  0.00    +0.013 C 
ENDROOT
BRANCH   7  12
ATOM     11  O   UNL     1      32.369 -23.089 -16.277  0.00  0.00    -0.271 OA
ATOM     12  N   UNL     1      33.484 -23.530 -14.291  0.00  0.00    -0.293 N 
ATOM     13  C   UNL     1      32.391 -23.593 -15.157  0.00  0.00    +0.263 C 
ATOM     14  H   UNL     1      33.410 -23.964 -13.411  0.00  0.00    +0.150 HD
BRANCH  13  15
ATOM     15  C   UNL     1      31.218 -24.373 -14.583  0.00  0.00    +0.241 C 
ATOM     16  C   UNL     1      31.600 -25.053 -13.277  0.00  0.00    +0.057 C 
BRANCH  15  17
ATOM     17  O   UNL     1      30.149 -23.479 -14.321  0.00  0.00    -0.470 OA
BRANCH  17  18
ATOM     18  C   UNL     1      29.214 -23.323 -15.312  0.00  0.00    +0.139 C 
ATOM     19  C   UNL     1      29.012 -24.343 -16.233  0.00  0.00    +0.037 C 
ATOM     20  C   UNL     1      28.480 -22.145 -15.383  0.00  0.00    +0.037 C 
ATOM     21  C   UNL     1      28.061 -24.183 -17.241  0.00  0.00    +0.003 C 
ATOM     22  C   UNL     1      27.529 -21.984 -16.391  0.00  0.00    +0.003 C 
ATOM     23  C   UNL     1      27.320 -23.003 -17.320  0.00  0.00    +0.000 C 
ENDBRANCH  17  18
ENDBRANCH  15  17
ENDBRANCH  13  15
ENDBRANCH   7  12
BRANCH   6  25
ATOM     24  OXT UNL     1      39.533 -25.702 -15.114  0.00  0.00    -0.248 OA
ATOM     25  C   UNL     1      38.693 -24.816 -15.084  0.00  0.00    +0.333 C 
BRANCH  25  26
ATOM     26  O   UNL     1      38.862 -23.586 -15.628  0.00  0.00    -0.479 OA
ATOM     27  H   UNL     1      38.726 -23.457 -16.546  0.00  0.00    +0.295 HD
ENDBRANCH  25  26
ENDBRANCH   6  25
TORSDOF 6
ENDMDL
MODEL 9
REMARK VINA RESULT:      -7.5      9.064     12.515
REMARK  Name = 272833
REMARK  6 active torsions:
REMARK  status: ('A' for Active; 'I' for Inactive)
REMARK    1  A    between atoms: CA_6  and  C_25
REMARK    2  A    between atoms: CA_7  and  N_12
REMARK    3  A    between atoms: C_13  and  C_15
REMARK    4  A    between atoms: C_15  and  O_17
REMARK    5  A    between atoms: O_17  and  C_18
REMARK    6  A    between atoms: C_25  and  O_26
REMARK                            x       y       z     vdW  Elec       q    Type
REMARK                         _______ _______ _______ _____ _____    ______ ____
ROOT
ATOM      1  S   UNL     1      34.501 -16.308 -21.173  0.00  0.00    -0.118 S 
ATOM      2  O   UNL     1      33.017 -15.470 -25.236  0.00  0.00    -0.273 OA
ATOM      3  N   UNL     1      34.602 -16.413 -23.763  0.00  0.00    -0.260 N 
ATOM      4  C   UNL     1      35.142 -15.548 -22.709  0.00  0.00    +0.151 C 
ATOM      5  C   UNL     1      34.544 -18.002 -21.947  0.00  0.00    +0.068 C 
ATOM      6  CA  UNL     1      34.144 -17.742 -23.415  0.00  0.00    +0.184 C 
ATOM      7  CA  UNL     1      34.314 -14.405 -23.313  0.00  0.00    +0.178 C 
ATOM      8  C   UNL     1      33.837 -15.444 -24.347  0.00  0.00    +0.247 C 
ATOM      9  C   UNL     1      35.959 -18.569 -21.764  0.00  0.00    +0.013 C 
ATOM     10  C   UNL     1      33.526 -18.898 -21.241  0.00  0.00    +0.013 C 
ENDROOT
BRANCH   7  12
ATOM     11  O   UNL     1      32.948 -11.881 -23.699  0.00  0.00    -0.271 OA
ATOM     12  N   UNL     1      33.234 -13.841 -22.491  0.00  0.00    -0.293 N 
ATOM     13  C   UNL     1      32.636 -12.609 -22.761  0.00  0.00    +0.263 C 
ATOM     14  H   UNL     1      32.917 -14.356 -21.714  0.00  0.00    +0.150 HD
BRANCH  13  15
ATOM     15  C   UNL     1      31.530 -12.254 -21.778  0.00  0.00    +0.241 C 
ATOM     16  C   UNL     1      32.062 -12.190 -20.355  0.00  0.00    +0.057 C 
BRANCH  15  17
ATOM     17  O   UNL     1      31.002 -10.981 -22.112  0.00  0.00    -0.470 OA
BRANCH  17  18
ATOM     18  C   UNL     1      31.615  -9.889 -21.553  0.00  0.00    +0.139 C 
ATOM     19  C   UNL     1      31.504  -9.664 -20.186  0.00  0.00    +0.037 C 
ATOM     20  C   UNL     1      32.339  -9.020 -22.360  0.00  0.00    +0.037 C 
ATOM     21  C   UNL     1      32.127  -8.553 -19.618  0.00  0.00    +0.003 C 
ATOM     22  C   UNL     1      32.962  -7.908 -21.791  0.00  0.00    +0.003 C 
ATOM     23  C   UNL     1      32.856  -7.675 -20.421  0.00  0.00    +0.000 C 
ENDBRANCH  17  18
ENDBRANCH  15  17
ENDBRANCH  13  15
ENDBRANCH   7  12
BRANCH   6  25
ATOM     24  OXT UNL     1      35.074 -19.835 -24.179  0.00  0.00    -0.248 OA
ATOM     25  C   UNL     1      34.730 -18.687 -24.415  0.00  0.00    +0.333 C 
BRANCH  25  26
ATOM     26  O   UNL     1      34.832 -18.094 -25.630  0.00  0.00    -0.479 OA
ATOM     27  H   UNL     1      34.395 -17.282 -25.793  0.00  0.00    +0.295 HD
ENDBRANCH  25  26
ENDBRANCH   6  25
TORSDOF 6
ENDMDL
