MODEL 1
REMARK VINA RESULT:      -9.6      0.000      0.000
REMARK  Name = 5876
REMARK  5 active torsions:
REMARK  status: ('A' for Active; 'I' for Inactive)
REMARK    1  A    between atoms: C_7  and  O_22
REMARK    2  A    between atoms: C_7  and  C_27
REMARK    3  A    between atoms: C_9  and  O_24
REMARK    4  A    between atoms: C_27  and  C_28
REMARK    5  A    between atoms: C_28  and  O_29
REMARK                            x       y       z     vdW  Elec       q    Type
REMARK                         _______ _______ _______ _____ _____    ______ ____
ROOT
ATOM      1  F   UNL     1      37.634 -22.696 -16.952  0.00  0.00    -0.233 F 
ATOM      2  O   UNL     1      39.553 -26.585 -14.661  0.00  0.00    -0.287 OA
ATOM      3  C   UNL     1      31.854 -23.700 -14.854  0.00  0.00    +0.031 C 
ATOM      4  C   UNL     1      32.975 -23.535 -15.905  0.00  0.00    +0.003 C 
ATOM      5  C   UNL     1      34.348 -23.199 -15.302  0.00  0.00    +0.006 C 
ATOM      6  C   UNL     1      34.777 -24.365 -14.344  0.00  0.00    +0.034 C 
ATOM      7  C   UNL     1      30.652 -23.964 -15.806  0.00  0.00    +0.141 C 
ATOM      8  C   UNL     1      32.261 -24.860 -13.922  0.00  0.00    +0.032 C 
ATOM      9  C   UNL     1      33.665 -24.701 -13.299  0.00  0.00    +0.111 C 
ATOM     10  C   UNL     1      32.363 -22.577 -16.925  0.00  0.00    +0.003 C 
ATOM     11  C   UNL     1      36.240 -24.176 -13.777  0.00  0.00    +0.039 C 
ATOM     12  C   UNL     1      30.878 -22.986 -16.983  0.00  0.00    +0.034 C 
ATOM     13  C   UNL     1      35.385 -22.990 -16.418  0.00  0.00    +0.040 C 
ATOM     14  C   UNL     1      31.596 -22.408 -14.031  0.00  0.00    +0.003 C 
ATOM     15  C   UNL     1      36.796 -22.800 -15.879  0.00  0.00    +0.180 C 
ATOM     16  C   UNL     1      37.170 -23.948 -14.976  0.00  0.00    -0.006 C 
ATOM     17  C   UNL     1      36.393 -22.973 -12.820  0.00  0.00    +0.009 C 
ATOM     18  C   UNL     1      36.652 -25.410 -12.985  0.00  0.00    -0.020 C 
ATOM     19  C   UNL     1      38.228 -24.726 -15.253  0.00  0.00    +0.036 C 
ATOM     20  C   UNL     1      37.703 -26.189 -13.260  0.00  0.00    +0.038 C 
ATOM     21  C   UNL     1      38.575 -25.889 -14.409  0.00  0.00    +0.195 C 
ENDROOT
BRANCH   7  22
ATOM     22  O   UNL     1      30.663 -25.302 -16.293  0.00  0.00    -0.380 OA
ATOM     23  H   UNL     1      31.538 -25.506 -16.657  0.00  0.00    +0.211 HD
ENDBRANCH   7  22
BRANCH   9  24
ATOM     24  O   UNL     1      33.589 -23.719 -12.275  0.00  0.00    -0.384 OA
ATOM     25  H   UNL     1      34.289 -23.060 -12.405  0.00  0.00    +0.210 HD
ENDBRANCH   9  24
BRANCH   7  27
ATOM     26  O   UNL     1      28.869 -24.656 -14.384  0.00  0.00    -0.291 OA
ATOM     27  C   UNL     1      29.305 -23.811 -15.165  0.00  0.00    +0.204 C 
BRANCH  27  28
ATOM     28  C   UNL     1      28.523 -22.569 -15.535  0.00  0.00    +0.204 C 
BRANCH  28  29
ATOM     29  O   UNL     1      27.201 -22.902 -15.901  0.00  0.00    -0.375 OA
ATOM     30  H   UNL     1      27.215 -23.445 -16.705  0.00  0.00    +0.211 HD
ENDBRANCH  28  29
ENDBRANCH  27  28
ENDBRANCH   7  27
TORSDOF 5
ENDMDL
MODEL 2
REMARK VINA RESULT:      -8.6     10.934     13.345
REMARK  Name = 5876
REMARK  5 active torsions:
REMARK  status: ('A' for Active; 'I' for Inactive)
REMARK    1  A    between atoms: C_7  and  O_22
REMARK    2  A    between atoms: C_7  and  C_27
REMARK    3  A    between atoms: C_9  and  O_24
REMARK    4  A    between atoms: C_27  and  C_28
REMARK    5  A    between atoms: C_28  and  O_29
REMARK                            x       y       z     vdW  Elec       q    Type
REMARK                         _______ _______ _______ _____ _____    ______ ____
ROOT
ATOM      1  F   UNL     1      33.040 -14.239 -27.486  0.00  0.00    -0.233 F 
ATOM      2  O   UNL     1      35.026  -9.970 -26.110  0.00  0.00    -0.287 OA
ATOM      3  C   UNL     1      34.651 -17.231 -22.264  0.00  0.00    +0.031 C 
ATOM      4  C   UNL     1      34.620 -16.938 -23.781  0.00  0.00    +0.003 C 
ATOM      5  C   UNL     1      33.715 -15.756 -24.168  0.00  0.00    +0.006 C 
ATOM      6  C   UNL     1      34.242 -14.463 -23.455  0.00  0.00    +0.034 C 
ATOM      7  C   UNL     1      35.585 -18.475 -22.266  0.00  0.00    +0.141 C 
ATOM      8  C   UNL     1      35.190 -15.968 -21.560  0.00  0.00    +0.032 C 
ATOM      9  C   UNL     1      34.424 -14.675 -21.917  0.00  0.00    +0.111 C 
ATOM     10  C   UNL     1      34.349 -18.307 -24.399  0.00  0.00    +0.003 C 
ATOM     11  C   UNL     1      33.457 -13.164 -23.897  0.00  0.00    +0.039 C 
ATOM     12  C   UNL     1      35.132 -19.287 -23.503  0.00  0.00    +0.034 C 
ATOM     13  C   UNL     1      33.694 -15.577 -25.695  0.00  0.00    +0.040 C 
ATOM     14  C   UNL     1      33.261 -17.619 -21.690  0.00  0.00    +0.003 C 
ATOM     15  C   UNL     1      32.932 -14.333 -26.128  0.00  0.00    +0.180 C 
ATOM     16  C   UNL     1      33.481 -13.114 -25.430  0.00  0.00    -0.006 C 
ATOM     17  C   UNL     1      31.981 -13.138 -23.442  0.00  0.00    +0.009 C 
ATOM     18  C   UNL     1      34.115 -11.931 -23.294  0.00  0.00    -0.020 C 
ATOM     19  C   UNL     1      33.987 -12.088 -26.132  0.00  0.00    +0.036 C 
ATOM     20  C   UNL     1      34.624 -10.908 -23.989  0.00  0.00    +0.038 C 
ATOM     21  C   UNL     1      34.580 -10.911 -25.462  0.00  0.00    +0.195 C 
ENDROOT
BRANCH   7  22
ATOM     22  O   UNL     1      36.949 -18.097 -22.422  0.00  0.00    -0.380 OA
ATOM     23  H   UNL     1      37.429 -18.270 -21.597  0.00  0.00    +0.211 HD
ENDBRANCH   7  22
BRANCH   9  24
ATOM     24  O   UNL     1      33.178 -14.694 -21.236  0.00  0.00    -0.384 OA
ATOM     25  H   UNL     1      33.215 -15.338 -20.511  0.00  0.00    +0.210 HD
ENDBRANCH   9  24
BRANCH   7  27
ATOM     26  O   UNL     1      36.423 -19.126 -20.132  0.00  0.00    -0.291 OA
ATOM     27  C   UNL     1      35.561 -19.274 -20.998  0.00  0.00    +0.204 C 
BRANCH  27  28
ATOM     28  C   UNL     1      34.424 -20.263 -20.849  0.00  0.00    +0.204 C 
BRANCH  28  29
ATOM     29  O   UNL     1      34.648 -21.118 -19.748  0.00  0.00    -0.375 OA
ATOM     30  H   UNL     1      33.798 -21.451 -19.420  0.00  0.00    +0.211 HD
ENDBRANCH  28  29
ENDBRANCH  27  28
ENDBRANCH   7  27
TORSDOF 5
ENDMDL
MODEL 3
REMARK VINA RESULT:      -7.8      3.182      6.756
REMARK  Name = 5876
REMARK  5 active torsions:
REMARK  status: ('A' for Active; 'I' for Inactive)
REMARK    1  A    between atoms: C_7  and  O_22
REMARK    2  A    between atoms: C_7  and  C_27
REMARK    3  A    between atoms: C_9  and  O_24
REMARK    4  A    between atoms: C_27  and  C_28
REMARK    5  A    between atoms: C_28  and  O_29
REMARK                            x       y       z     vdW  Elec       q    Type
REMARK                         _______ _______ _______ _____ _____    ______ ____
ROOT
ATOM      1  F   UNL     1      37.668 -20.671 -20.195  0.00  0.00    -0.233 F 
ATOM      2  O   UNL     1      33.428 -18.398 -21.152  0.00  0.00    -0.287 OA
ATOM      3  C   UNL     1      35.471 -23.727 -15.230  0.00  0.00    +0.031 C 
ATOM      4  C   UNL     1      36.382 -22.751 -16.009  0.00  0.00    +0.003 C 
ATOM      5  C   UNL     1      36.104 -22.713 -17.520  0.00  0.00    +0.006 C 
ATOM      6  C   UNL     1      34.623 -22.250 -17.749  0.00  0.00    +0.034 C 
ATOM      7  C   UNL     1      36.064 -23.542 -13.803  0.00  0.00    +0.141 C 
ATOM      8  C   UNL     1      34.015 -23.262 -15.434  0.00  0.00    +0.032 C 
ATOM      9  C   UNL     1      33.610 -23.099 -16.916  0.00  0.00    +0.111 C 
ATOM     10  C   UNL     1      37.783 -23.116 -15.526  0.00  0.00    +0.003 C 
ATOM     11  C   UNL     1      34.280 -22.048 -19.279  0.00  0.00    +0.039 C 
ATOM     12  C   UNL     1      37.591 -23.460 -14.035  0.00  0.00    +0.034 C 
ATOM     13  C   UNL     1      37.094 -21.768 -18.222  0.00  0.00    +0.040 C 
ATOM     14  C   UNL     1      35.637 -25.204 -15.680  0.00  0.00    +0.003 C 
ATOM     15  C   UNL     1      36.775 -21.576 -19.697  0.00  0.00    +0.180 C 
ATOM     16  C   UNL     1      35.348 -21.118 -19.868  0.00  0.00    -0.006 C 
ATOM     17  C   UNL     1      34.282 -23.357 -20.100  0.00  0.00    +0.009 C 
ATOM     18  C   UNL     1      32.887 -21.451 -19.423  0.00  0.00    -0.020 C 
ATOM     19  C   UNL     1      35.067 -19.949 -20.466  0.00  0.00    +0.036 C 
ATOM     20  C   UNL     1      32.603 -20.286 -20.014  0.00  0.00    +0.038 C 
ATOM     21  C   UNL     1      33.678 -19.460 -20.591  0.00  0.00    +0.195 C 
ENDROOT
BRANCH   7  22
ATOM     22  O   UNL     1      35.610 -22.331 -13.208  0.00  0.00    -0.380 OA
ATOM     23  H   UNL     1      34.741 -22.099 -13.570  0.00  0.00    +0.211 HD
ENDBRANCH   7  22
BRANCH   9  24
ATOM     24  O   UNL     1      33.423 -24.393 -17.472  0.00  0.00    -0.384 OA
ATOM     25  H   UNL     1      34.267 -24.720 -17.821  0.00  0.00    +0.210 HD
ENDBRANCH   9  24
BRANCH   7  27
ATOM     26  O   UNL     1      34.504 -24.763 -12.478  0.00  0.00    -0.291 OA
ATOM     27  C   UNL     1      35.675 -24.609 -12.825  0.00  0.00    +0.204 C 
BRANCH  27  28
ATOM     28  C   UNL     1      36.798 -25.476 -12.295  0.00  0.00    +0.204 C 
BRANCH  28  29
ATOM     29  O   UNL     1      36.763 -26.756 -12.889  0.00  0.00    -0.375 OA
ATOM     30  H   UNL     1      36.090 -27.298 -12.448  0.00  0.00    +0.211 HD
ENDBRANCH  28  29
ENDBRANCH  27  28
ENDBRANCH   7  27
TORSDOF 5
ENDMDL
MODEL 4
REMARK VINA RESULT:      -7.1     14.422     16.930
REMARK  Name = 5876
REMARK  5 active torsions:
REMARK  status: ('A' for Active; 'I' for Inactive)
REMARK    1  A    between atoms: C_7  and  O_22
REMARK    2  A    between atoms: C_7  and  C_27
REMARK    3  A    between atoms: C_9  and  O_24
REMARK    4  A    between atoms: C_27  and  C_28
REMARK    5  A    between atoms: C_28  and  O_29
REMARK                            x       y       z     vdW  Elec       q    Type
REMARK                         _______ _______ _______ _____ _____    ______ ____
ROOT
ATOM      1  F   UNL     1      31.220  -7.949 -19.819  0.00  0.00    -0.233 F 
ATOM      2  O   UNL     1      30.510  -4.801 -23.512  0.00  0.00    -0.287 OA
ATOM      3  C   UNL     1      33.356 -12.518 -23.477  0.00  0.00    +0.031 C 
ATOM      4  C   UNL     1      32.408 -11.832 -22.468  0.00  0.00    +0.003 C 
ATOM      5  C   UNL     1      32.841 -10.411 -22.074  0.00  0.00    +0.006 C 
ATOM      6  C   UNL     1      32.872  -9.518 -23.363  0.00  0.00    +0.034 C 
ATOM      7  C   UNL     1      32.654 -13.902 -23.586  0.00  0.00    +0.141 C 
ATOM      8  C   UNL     1      33.374 -11.654 -24.755  0.00  0.00    +0.032 C 
ATOM      9  C   UNL     1      33.717 -10.169 -24.505  0.00  0.00    +0.111 C 
ATOM     10  C   UNL     1      32.241 -12.882 -21.373  0.00  0.00    +0.003 C 
ATOM     11  C   UNL     1      33.176  -8.000 -23.042  0.00  0.00    +0.039 C 
ATOM     12  C   UNL     1      32.224 -14.223 -22.134  0.00  0.00    +0.034 C 
ATOM     13  C   UNL     1      31.879  -9.832 -21.022  0.00  0.00    +0.040 C 
ATOM     14  C   UNL     1      34.798 -12.703 -22.929  0.00  0.00    +0.003 C 
ATOM     15  C   UNL     1      32.171  -8.373 -20.702  0.00  0.00    +0.180 C 
ATOM     16  C   UNL     1      32.178  -7.551 -21.966  0.00  0.00    -0.006 C 
ATOM     17  C   UNL     1      34.602  -7.745 -22.504  0.00  0.00    +0.009 C 
ATOM     18  C   UNL     1      33.037  -7.165 -24.307  0.00  0.00    -0.020 C 
ATOM     19  C   UNL     1      31.325  -6.526 -22.126  0.00  0.00    +0.036 C 
ATOM     20  C   UNL     1      32.188  -6.146 -24.471  0.00  0.00    +0.038 C 
ATOM     21  C   UNL     1      31.281  -5.746 -23.381  0.00  0.00    +0.195 C 
ENDROOT
BRANCH   7  22
ATOM     22  O   UNL     1      31.500 -13.832 -24.416  0.00  0.00    -0.380 OA
ATOM     23  H   UNL     1      30.703 -13.846 -23.865  0.00  0.00    +0.211 HD
ENDBRANCH   7  22
BRANCH   9  24
ATOM     24  O   UNL     1      35.111 -10.071 -24.251  0.00  0.00    -0.384 OA
ATOM     25  H   UNL     1      35.603 -10.458 -24.993  0.00  0.00    +0.210 HD
ENDBRANCH   9  24
BRANCH   7  27
ATOM     26  O   UNL     1      33.600 -15.087 -25.423  0.00  0.00    -0.291 OA
ATOM     27  C   UNL     1      33.494 -14.980 -24.202  0.00  0.00    +0.204 C 
BRANCH  27  28
ATOM     28  C   UNL     1      34.194 -15.917 -23.241  0.00  0.00    +0.204 C 
BRANCH  28  29
ATOM     29  O   UNL     1      35.551 -16.076 -23.598  0.00  0.00    -0.375 OA
ATOM     30  H   UNL     1      35.612 -16.600 -24.412  0.00  0.00    +0.211 HD
ENDBRANCH  28  29
ENDBRANCH  27  28
ENDBRANCH   7  27
TORSDOF 5
ENDMDL
MODEL 5
REMARK VINA RESULT:      -6.7     14.391     16.407
REMARK  Name = 5876
REMARK  5 active torsions:
REMARK  status: ('A' for Active; 'I' for Inactive)
REMARK    1  A    between atoms: C_7  and  O_22
REMARK    2  A    between atoms: C_7  and  C_27
REMARK    3  A    between atoms: C_9  and  O_24
REMARK    4  A    between atoms: C_27  and  C_28
REMARK    5  A    between atoms: C_28  and  O_29
REMARK                            x       y       z     vdW  Elec       q    Type
REMARK                         _______ _______ _______ _____ _____    ______ ____
ROOT
ATOM      1  F   UNL     1      31.504 -12.973 -19.557  0.00  0.00    -0.233 F 
ATOM      2  O   UNL     1      35.017 -16.241 -20.575  0.00  0.00    -0.287 OA
ATOM      3  C   UNL     1      33.389  -8.876 -23.856  0.00  0.00    +0.031 C 
ATOM      4  C   UNL     1      33.059  -9.398 -22.439  0.00  0.00    +0.003 C 
ATOM      5  C   UNL     1      32.504 -10.831 -22.418  0.00  0.00    +0.006 C 
ATOM      6  C   UNL     1      33.578 -11.797 -23.031  0.00  0.00    +0.034 C 
ATOM      7  C   UNL     1      33.850  -7.435 -23.495  0.00  0.00    +0.141 C 
ATOM      8  C   UNL     1      34.461  -9.811 -24.455  0.00  0.00    +0.032 C 
ATOM      9  C   UNL     1      34.075 -11.306 -24.428  0.00  0.00    +0.111 C 
ATOM     10  C   UNL     1      32.220  -8.274 -21.837  0.00  0.00    +0.003 C 
ATOM     11  C   UNL     1      33.154 -13.316 -22.929  0.00  0.00    +0.039 C 
ATOM     12  C   UNL     1      32.860  -6.986 -22.394  0.00  0.00    +0.034 C 
ATOM     13  C   UNL     1      32.145 -11.244 -20.981  0.00  0.00    +0.040 C 
ATOM     14  C   UNL     1      32.146  -8.812 -24.786  0.00  0.00    +0.003 C 
ATOM     15  C   UNL     1      31.728 -12.704 -20.877  0.00  0.00    +0.180 C 
ATOM     16  C   UNL     1      32.794 -13.595 -21.464  0.00  0.00    -0.006 C 
ATOM     17  C   UNL     1      31.933 -13.688 -23.799  0.00  0.00    +0.009 C 
ATOM     18  C   UNL     1      34.300 -14.205 -23.395  0.00  0.00    -0.020 C 
ATOM     19  C   UNL     1      33.397 -14.532 -20.716  0.00  0.00    +0.036 C 
ATOM     20  C   UNL     1      34.905 -15.137 -22.652  0.00  0.00    +0.038 C 
ATOM     21  C   UNL     1      34.482 -15.375 -21.261  0.00  0.00    +0.195 C 
ENDROOT
BRANCH   7  22
ATOM     22  O   UNL     1      35.174  -7.432 -22.970  0.00  0.00    -0.380 OA
ATOM     23  H   UNL     1      35.176  -7.005 -22.100  0.00  0.00    +0.211 HD
ENDBRANCH   7  22
BRANCH   9  24
ATOM     24  O   UNL     1      33.109 -11.535 -25.443  0.00  0.00    -0.384 OA
ATOM     25  H   UNL     1      32.227 -11.597 -25.043  0.00  0.00    +0.210 HD
ENDBRANCH   9  24
BRANCH   7  27
ATOM     26  O   UNL     1      34.872  -6.468 -25.417  0.00  0.00    -0.291 OA
ATOM     27  C   UNL     1      33.906  -6.489 -24.656  0.00  0.00    +0.204 C 
BRANCH  27  28
ATOM     28  C   UNL     1      32.714  -5.572 -24.833  0.00  0.00    +0.204 C 
BRANCH  28  29
ATOM     29  O   UNL     1      32.724  -4.982 -26.116  0.00  0.00    -0.375 OA
ATOM     30  H   UNL     1      32.782  -5.676 -26.790  0.00  0.00    +0.211 HD
ENDBRANCH  28  29
ENDBRANCH  27  28
ENDBRANCH   7  27
TORSDOF 5
ENDMDL
