MODEL 1
REMARK VINA RESULT:      -8.8      0.000      0.000
REMARK  Name = 9571062
REMARK  6 active torsions:
REMARK  status: ('A' for Active; 'I' for Inactive)
REMARK    1  A    between atoms: N_3  and  C_18
REMARK    2  A    between atoms: N_4  and  N_8
REMARK    3  A    between atoms: N_8  and  C_9
REMARK    4  A    between atoms: C_9  and  C_11
REMARK    5  A    between atoms: C_13  and  N_17
REMARK    6  A    between atoms: C_18  and  O_19
REMARK                            x       y       z     vdW  Elec       q    Type
REMARK                         _______ _______ _______ _____ _____    ______ ____
ROOT
ATOM      1  O   UNL     1      37.572 -22.978 -14.603  0.00  0.00    -0.272 OA
ATOM      2  O   UNL     1      34.995 -24.906 -11.305  0.00  0.00    -0.250 OA
ATOM      3  N   UNL     1      36.611 -23.984 -12.724  0.00  0.00    -0.184 N 
ATOM      4  N   UNL     1      34.511 -24.039 -13.426  0.00  0.00    -0.181 N 
ATOM      5  C   UNL     1      35.196 -23.426 -14.525  0.00  0.00    +0.200 C 
ATOM      6  C   UNL     1      36.614 -23.422 -13.985  0.00  0.00    +0.256 C 
ATOM      7  C   UNL     1      35.336 -24.377 -12.355  0.00  0.00    +0.330 C 
ENDROOT
BRANCH   4   8
ATOM      8  N   UNL     1      33.188 -24.268 -13.433  0.00  0.00    -0.118 NA
BRANCH   8   9
ATOM      9  C   UNL     1      32.580 -23.765 -14.458  0.00  0.00    +0.176 C 
BRANCH   9  11
ATOM     10  O   UNL     1      30.614 -23.392 -15.755  0.00  0.00    -0.436 OA
ATOM     11  C   UNL     1      31.206 -24.110 -14.784  0.00  0.00    +0.144 C 
ATOM     12  C   UNL     1      30.390 -25.059 -14.263  0.00  0.00    +0.040 C 
ATOM     13  C   UNL     1      29.359 -23.900 -15.867  0.00  0.00    +0.289 C 
ATOM     14  C   UNL     1      29.172 -24.927 -14.971  0.00  0.00    +0.066 C 
BRANCH  13  17
ATOM     15  O   UNL     1      27.768 -24.006 -17.532  0.00  0.00    -0.123 OA
ATOM     16  O   UNL     1      28.600 -22.044 -17.005  0.00  0.00    -0.123 OA
ATOM     17  N   UNL     1      28.550 -23.298 -16.833  0.00  0.00    +0.093 N 
ENDBRANCH  13  17
ENDBRANCH   9  11
ENDBRANCH   8   9
ENDBRANCH   4   8
BRANCH   3  18
ATOM     18  C   UNL     1      37.791 -24.140 -11.897  0.00  0.00    +0.246 C 
BRANCH  18  19
ATOM     19  O   UNL     1      38.348 -22.865 -11.642  0.00  0.00    -0.364 OA
ATOM     20  H   UNL     1      37.640 -22.202 -11.614  0.00  0.00    +0.212 HD
ENDBRANCH  18  19
ENDBRANCH   3  18
TORSDOF 6
ENDMDL
MODEL 2
REMARK VINA RESULT:      -8.8      9.730     11.617
REMARK  Name = 9571062
REMARK  6 active torsions:
REMARK  status: ('A' for Active; 'I' for Inactive)
REMARK    1  A    between atoms: N_3  and  C_18
REMARK    2  A    between atoms: N_4  and  N_8
REMARK    3  A    between atoms: N_8  and  C_9
REMARK    4  A    between atoms: C_9  and  C_11
REMARK    5  A    between atoms: C_13  and  N_17
REMARK    6  A    between atoms: C_18  and  O_19
REMARK                            x       y       z     vdW  Elec       q    Type
REMARK                         _______ _______ _______ _____ _____    ______ ____
ROOT
ATOM      1  O   UNL     1      33.820 -13.983 -22.733  0.00  0.00    -0.272 OA
ATOM      2  O   UNL     1      34.352 -17.565 -25.582  0.00  0.00    -0.250 OA
ATOM      3  N   UNL     1      33.893 -15.571 -24.446  0.00  0.00    -0.184 N 
ATOM      4  N   UNL     1      34.996 -17.161 -23.367  0.00  0.00    -0.181 N 
ATOM      5  C   UNL     1      34.899 -16.120 -22.386  0.00  0.00    +0.200 C 
ATOM      6  C   UNL     1      34.139 -15.076 -23.182  0.00  0.00    +0.256 C 
ATOM      7  C   UNL     1      34.403 -16.851 -24.589  0.00  0.00    +0.330 C 
ENDROOT
BRANCH   4   8
ATOM      8  N   UNL     1      35.605 -18.331 -23.124  0.00  0.00    -0.118 NA
BRANCH   8   9
ATOM      9  C   UNL     1      35.753 -18.588 -21.864  0.00  0.00    +0.176 C 
BRANCH   9  11
ATOM     10  O   UNL     1      35.379 -20.505 -20.497  0.00  0.00    -0.436 OA
ATOM     11  C   UNL     1      34.838 -19.456 -21.142  0.00  0.00    +0.144 C 
ATOM     12  C   UNL     1      33.491 -19.394 -21.002  0.00  0.00    +0.040 C 
ATOM     13  C   UNL     1      34.335 -21.148 -19.913  0.00  0.00    +0.289 C 
ATOM     14  C   UNL     1      33.152 -20.505 -20.194  0.00  0.00    +0.066 C 
BRANCH  13  17
ATOM     15  O   UNL     1      35.641 -22.255 -18.368  0.00  0.00    -0.123 OA
ATOM     16  O   UNL     1      33.989 -23.348 -19.314  0.00  0.00    -0.123 OA
ATOM     17  N   UNL     1      34.666 -22.287 -19.175  0.00  0.00    +0.093 N 
ENDBRANCH  13  17
ENDBRANCH   9  11
ENDBRANCH   8   9
ENDBRANCH   4   8
BRANCH   3  18
ATOM     18  C   UNL     1      33.193 -14.844 -25.487  0.00  0.00    +0.246 C 
BRANCH  18  19
ATOM     19  O   UNL     1      33.732 -15.206 -26.744  0.00  0.00    -0.364 OA
ATOM     20  H   UNL     1      34.686 -15.354 -26.656  0.00  0.00    +0.212 HD
ENDBRANCH  18  19
ENDBRANCH   3  18
TORSDOF 6
ENDMDL
MODEL 3
REMARK VINA RESULT:      -8.7      4.972      6.239
REMARK  Name = 9571062
REMARK  6 active torsions:
REMARK  status: ('A' for Active; 'I' for Inactive)
REMARK    1  A    between atoms: N_3  and  C_18
REMARK    2  A    between atoms: N_4  and  N_8
REMARK    3  A    between atoms: N_8  and  C_9
REMARK    4  A    between atoms: C_9  and  C_11
REMARK    5  A    between atoms: C_13  and  N_17
REMARK    6  A    between atoms: C_18  and  O_19
REMARK                            x       y       z     vdW  Elec       q    Type
REMARK                         _______ _______ _______ _____ _____    ______ ____
ROOT
ATOM      1  O   UNL     1      36.973 -20.125 -20.090  0.00  0.00    -0.272 OA
ATOM      2  O   UNL     1      32.398 -20.400 -20.565  0.00  0.00    -0.250 OA
ATOM      3  N   UNL     1      34.690 -19.929 -20.553  0.00  0.00    -0.184 N 
ATOM      4  N   UNL     1      33.984 -21.721 -19.459  0.00  0.00    -0.181 N 
ATOM      5  C   UNL     1      35.399 -21.752 -19.236  0.00  0.00    +0.200 C 
ATOM      6  C   UNL     1      35.815 -20.509 -20.001  0.00  0.00    +0.256 C 
ATOM      7  C   UNL     1      33.550 -20.647 -20.234  0.00  0.00    +0.330 C 
ENDROOT
BRANCH   4   8
ATOM      8  N   UNL     1      33.151 -22.649 -18.961  0.00  0.00    -0.118 NA
BRANCH   8   9
ATOM      9  C   UNL     1      33.269 -22.819 -17.684  0.00  0.00    +0.176 C 
BRANCH   9  11
ATOM     10  O   UNL     1      30.915 -22.663 -17.334  0.00  0.00    -0.436 OA
ATOM     11  C   UNL     1      32.112 -23.000 -16.822  0.00  0.00    +0.144 C 
ATOM     12  C   UNL     1      32.026 -23.462 -15.550  0.00  0.00    +0.040 C 
ATOM     13  C   UNL     1      30.015 -22.920 -16.349  0.00  0.00    +0.289 C 
ATOM     14  C   UNL     1      30.648 -23.413 -15.232  0.00  0.00    +0.066 C 
BRANCH  13  17
ATOM     15  O   UNL     1      28.154 -23.165 -17.690  0.00  0.00    -0.123 OA
ATOM     16  O   UNL     1      28.007 -21.871 -15.922  0.00  0.00    -0.123 OA
ATOM     17  N   UNL     1      28.683 -22.643 -16.664  0.00  0.00    +0.093 N 
ENDBRANCH  13  17
ENDBRANCH   9  11
ENDBRANCH   8   9
ENDBRANCH   4   8
BRANCH   3  18
ATOM     18  C   UNL     1      34.704 -18.725 -21.361  0.00  0.00    +0.246 C 
BRANCH  18  19
ATOM     19  O   UNL     1      35.406 -17.712 -20.666  0.00  0.00    -0.364 OA
ATOM     20  H   UNL     1      35.421 -17.921 -19.719  0.00  0.00    +0.212 HD
ENDBRANCH  18  19
ENDBRANCH   3  18
TORSDOF 6
ENDMDL
MODEL 4
REMARK VINA RESULT:      -8.6      9.499     11.144
REMARK  Name = 9571062
REMARK  6 active torsions:
REMARK  status: ('A' for Active; 'I' for Inactive)
REMARK    1  A    between atoms: N_3  and  C_18
REMARK    2  A    between atoms: N_4  and  N_8
REMARK    3  A    between atoms: N_8  and  C_9
REMARK    4  A    between atoms: C_9  and  C_11
REMARK    5  A    between atoms: C_13  and  N_17
REMARK    6  A    between atoms: C_18  and  O_19
REMARK                            x       y       z     vdW  Elec       q    Type
REMARK                         _______ _______ _______ _____ _____    ______ ____
ROOT
ATOM      1  O   UNL     1      34.452 -16.514 -25.849  0.00  0.00    -0.272 OA
ATOM      2  O   UNL     1      34.193 -14.828 -21.568  0.00  0.00    -0.250 OA
ATOM      3  N   UNL     1      34.148 -15.338 -23.852  0.00  0.00    -0.184 N 
ATOM      4  N   UNL     1      35.007 -16.834 -22.462  0.00  0.00    -0.181 N 
ATOM      5  C   UNL     1      35.146 -17.471 -23.738  0.00  0.00    +0.200 C 
ATOM      6  C   UNL     1      34.547 -16.403 -24.634  0.00  0.00    +0.256 C 
ATOM      7  C   UNL     1      34.421 -15.571 -22.514  0.00  0.00    +0.330 C 
ENDROOT
BRANCH   4   8
ATOM      8  N   UNL     1      35.411 -17.407 -21.318  0.00  0.00    -0.118 NA
BRANCH   8   9
ATOM      9  C   UNL     1      35.579 -18.687 -21.410  0.00  0.00    +0.176 C 
BRANCH   9  11
ATOM     10  O   UNL     1      35.206 -20.632 -20.083  0.00  0.00    -0.436 OA
ATOM     11  C   UNL     1      34.660 -19.631 -20.795  0.00  0.00    +0.144 C 
ATOM     12  C   UNL     1      33.306 -19.682 -20.816  0.00  0.00    +0.040 C 
ATOM     13  C   UNL     1      34.157 -21.362 -19.622  0.00  0.00    +0.289 C 
ATOM     14  C   UNL     1      32.967 -20.819 -20.046  0.00  0.00    +0.066 C 
BRANCH  13  17
ATOM     15  O   UNL     1      35.487 -22.416 -18.060  0.00  0.00    -0.123 OA
ATOM     16  O   UNL     1      33.799 -23.528 -18.916  0.00  0.00    -0.123 OA
ATOM     17  N   UNL     1      34.492 -22.471 -18.841  0.00  0.00    +0.093 N 
ENDBRANCH  13  17
ENDBRANCH   9  11
ENDBRANCH   8   9
ENDBRANCH   4   8
BRANCH   3  18
ATOM     18  C   UNL     1      33.523 -14.135 -24.366  0.00  0.00    +0.246 C 
BRANCH  18  19
ATOM     19  O   UNL     1      34.232 -13.008 -23.888  0.00  0.00    -0.364 OA
ATOM     20  H   UNL     1      33.880 -12.205 -24.303  0.00  0.00    +0.212 HD
ENDBRANCH  18  19
ENDBRANCH   3  18
TORSDOF 6
ENDMDL
MODEL 5
REMARK VINA RESULT:      -8.5      9.716     11.442
REMARK  Name = 9571062
REMARK  6 active torsions:
REMARK  status: ('A' for Active; 'I' for Inactive)
REMARK    1  A    between atoms: N_3  and  C_18
REMARK    2  A    between atoms: N_4  and  N_8
REMARK    3  A    between atoms: N_8  and  C_9
REMARK    4  A    between atoms: C_9  and  C_11
REMARK    5  A    between atoms: C_13  and  N_17
REMARK    6  A    between atoms: C_18  and  O_19
REMARK                            x       y       z     vdW  Elec       q    Type
REMARK                         _______ _______ _______ _____ _____    ______ ____
ROOT
ATOM      1  O   UNL     1      33.733 -15.941 -26.249  0.00  0.00    -0.272 OA
ATOM      2  O   UNL     1      34.408 -14.799 -21.837  0.00  0.00    -0.250 OA
ATOM      3  N   UNL     1      33.919 -15.004 -24.116  0.00  0.00    -0.184 N 
ATOM      4  N   UNL     1      34.793 -16.752 -23.071  0.00  0.00    -0.181 N 
ATOM      5  C   UNL     1      34.633 -17.232 -24.412  0.00  0.00    +0.200 C 
ATOM      6  C   UNL     1      34.041 -15.998 -25.067  0.00  0.00    +0.256 C 
ATOM      7  C   UNL     1      34.377 -15.435 -22.882  0.00  0.00    +0.330 C 
ENDROOT
BRANCH   4   8
ATOM      8  N   UNL     1      35.300 -17.508 -22.086  0.00  0.00    -0.118 NA
BRANCH   8   9
ATOM      9  C   UNL     1      34.446 -18.332 -21.572  0.00  0.00    +0.176 C 
BRANCH   9  11
ATOM     10  O   UNL     1      33.887 -20.350 -20.430  0.00  0.00    -0.436 OA
ATOM     11  C   UNL     1      34.862 -19.531 -20.863  0.00  0.00    +0.144 C 
ATOM     12  C   UNL     1      36.102 -19.982 -20.549  0.00  0.00    +0.040 C 
ATOM     13  C   UNL     1      34.525 -21.377 -19.810  0.00  0.00    +0.289 C 
ATOM     14  C   UNL     1      35.888 -21.197 -19.856  0.00  0.00    +0.066 C 
BRANCH  13  17
ATOM     15  O   UNL     1      34.023 -23.584 -19.372  0.00  0.00    -0.123 OA
ATOM     16  O   UNL     1      32.619 -22.039 -18.694  0.00  0.00    -0.123 OA
ATOM     17  N   UNL     1      33.696 -22.365 -19.276  0.00  0.00    +0.093 N 
ENDBRANCH  13  17
ENDBRANCH   9  11
ENDBRANCH   8   9
ENDBRANCH   4   8
BRANCH   3  18
ATOM     18  C   UNL     1      33.382 -13.684 -24.378  0.00  0.00    +0.246 C 
BRANCH  18  19
ATOM     19  O   UNL     1      34.206 -12.719 -23.754  0.00  0.00    -0.364 OA
ATOM     20  H   UNL     1      33.659 -11.987 -23.430  0.00  0.00    +0.212 HD
ENDBRANCH  18  19
ENDBRANCH   3  18
TORSDOF 6
ENDMDL
MODEL 6
REMARK VINA RESULT:      -8.4      4.143      5.178
REMARK  Name = 9571062
REMARK  6 active torsions:
REMARK  status: ('A' for Active; 'I' for Inactive)
REMARK    1  A    between atoms: N_3  and  C_18
REMARK    2  A    between atoms: N_4  and  N_8
REMARK    3  A    between atoms: N_8  and  C_9
REMARK    4  A    between atoms: C_9  and  C_11
REMARK    5  A    between atoms: C_13  and  N_17
REMARK    6  A    between atoms: C_18  and  O_19
REMARK                            x       y       z     vdW  Elec       q    Type
REMARK                         _______ _______ _______ _____ _____    ______ ____
ROOT
ATOM      1  O   UNL     1      38.014 -27.438 -14.932  0.00  0.00    -0.272 OA
ATOM      2  O   UNL     1      37.969 -22.833 -14.778  0.00  0.00    -0.250 OA
ATOM      3  N   UNL     1      38.394 -25.132 -14.873  0.00  0.00    -0.184 N 
ATOM      4  N   UNL     1      36.285 -24.460 -14.770  0.00  0.00    -0.181 N 
ATOM      5  C   UNL     1      36.161 -25.887 -14.814  0.00  0.00    +0.200 C 
ATOM      6  C   UNL     1      37.625 -26.279 -14.880  0.00  0.00    +0.256 C 
ATOM      7  C   UNL     1      37.600 -24.000 -14.802  0.00  0.00    +0.330 C 
ENDROOT
BRANCH   4   8
ATOM      8  N   UNL     1      35.224 -23.642 -14.703  0.00  0.00    -0.118 NA
BRANCH   8   9
ATOM      9  C   UNL     1      34.294 -23.926 -15.557  0.00  0.00    +0.176 C 
BRANCH   9  11
ATOM     10  O   UNL     1      35.305 -22.614 -17.273  0.00  0.00    -0.436 OA
ATOM     11  C   UNL     1      34.207 -23.264 -16.849  0.00  0.00    +0.144 C 
ATOM     12  C   UNL     1      33.179 -23.183 -17.729  0.00  0.00    +0.040 C 
ATOM     13  C   UNL     1      34.972 -22.090 -18.481  0.00  0.00    +0.289 C 
ATOM     14  C   UNL     1      33.674 -22.412 -18.806  0.00  0.00    +0.066 C 
BRANCH  13  17
ATOM     15  O   UNL     1      36.013 -21.308 -20.384  0.00  0.00    -0.123 OA
ATOM     16  O   UNL     1      36.852 -20.757 -18.432  0.00  0.00    -0.123 OA
ATOM     17  N   UNL     1      35.978 -21.362 -19.120  0.00  0.00    +0.093 N 
ENDBRANCH  13  17
ENDBRANCH   9  11
ENDBRANCH   8   9
ENDBRANCH   4   8
BRANCH   3  18
ATOM     18  C   UNL     1      39.842 -25.118 -14.935  0.00  0.00    +0.246 C 
BRANCH  18  19
ATOM     19  O   UNL     1      40.264 -25.909 -16.028  0.00  0.00    -0.364 OA
ATOM     20  H   UNL     1      40.820 -26.636 -15.707  0.00  0.00    +0.212 HD
ENDBRANCH  18  19
ENDBRANCH   3  18
TORSDOF 6
ENDMDL
MODEL 7
REMARK VINA RESULT:      -8.3      4.767      7.425
REMARK  Name = 9571062
REMARK  6 active torsions:
REMARK  status: ('A' for Active; 'I' for Inactive)
REMARK    1  A    between atoms: N_3  and  C_18
REMARK    2  A    between atoms: N_4  and  N_8
REMARK    3  A    between atoms: N_8  and  C_9
REMARK    4  A    between atoms: C_9  and  C_11
REMARK    5  A    between atoms: C_13  and  N_17
REMARK    6  A    between atoms: C_18  and  O_19
REMARK                            x       y       z     vdW  Elec       q    Type
REMARK                         _______ _______ _______ _____ _____    ______ ____
ROOT
ATOM      1  O   UNL     1      36.995 -20.114 -19.725  0.00  0.00    -0.272 OA
ATOM      2  O   UNL     1      32.748 -21.900 -19.693  0.00  0.00    -0.250 OA
ATOM      3  N   UNL     1      34.764 -20.752 -20.001  0.00  0.00    -0.184 N 
ATOM      4  N   UNL     1      34.698 -22.364 -18.482  0.00  0.00    -0.181 N 
ATOM      5  C   UNL     1      36.051 -21.900 -18.394  0.00  0.00    +0.200 C 
ATOM      6  C   UNL     1      36.026 -20.807 -19.446  0.00  0.00    +0.256 C 
ATOM      7  C   UNL     1      33.925 -21.692 -19.427  0.00  0.00    +0.330 C 
ENDROOT
BRANCH   4   8
ATOM      8  N   UNL     1      34.222 -23.358 -17.718  0.00  0.00    -0.118 NA
BRANCH   8   9
ATOM      9  C   UNL     1      34.201 -23.078 -16.455  0.00  0.00    +0.176 C 
BRANCH   9  11
ATOM     10  O   UNL     1      35.555 -24.964 -15.908  0.00  0.00    -0.436 OA
ATOM     11  C   UNL     1      35.013 -23.805 -15.493  0.00  0.00    +0.144 C 
ATOM     12  C   UNL     1      35.327 -23.512 -14.207  0.00  0.00    +0.040 C 
ATOM     13  C   UNL     1      36.252 -25.440 -14.844  0.00  0.00    +0.289 C 
ATOM     14  C   UNL     1      36.143 -24.583 -13.772  0.00  0.00    +0.066 C 
BRANCH  13  17
ATOM     15  O   UNL     1      36.733 -27.294 -16.127  0.00  0.00    -0.123 OA
ATOM     16  O   UNL     1      37.687 -27.109 -14.159  0.00  0.00    -0.123 OA
ATOM     17  N   UNL     1      36.911 -26.653 -15.050  0.00  0.00    +0.093 N 
ENDBRANCH  13  17
ENDBRANCH   9  11
ENDBRANCH   8   9
ENDBRANCH   4   8
BRANCH   3  18
ATOM     18  C   UNL     1      34.371 -19.830 -21.048  0.00  0.00    +0.246 C 
BRANCH  18  19
ATOM     19  O   UNL     1      34.957 -18.568 -20.795  0.00  0.00    -0.364 OA
ATOM     20  H   UNL     1      34.703 -18.265 -19.910  0.00  0.00    +0.212 HD
ENDBRANCH  18  19
ENDBRANCH   3  18
TORSDOF 6
ENDMDL
MODEL 8
REMARK VINA RESULT:      -8.2      9.558     10.688
REMARK  Name = 9571062
REMARK  6 active torsions:
REMARK  status: ('A' for Active; 'I' for Inactive)
REMARK    1  A    between atoms: N_3  and  C_18
REMARK    2  A    between atoms: N_4  and  N_8
REMARK    3  A    between atoms: N_8  and  C_9
REMARK    4  A    between atoms: C_9  and  C_11
REMARK    5  A    between atoms: C_13  and  N_17
REMARK    6  A    between atoms: C_18  and  O_19
REMARK                            x       y       z     vdW  Elec       q    Type
REMARK                         _______ _______ _______ _____ _____    ______ ____
ROOT
ATOM      1  O   UNL     1      32.600 -21.285 -20.011  0.00  0.00    -0.272 OA
ATOM      2  O   UNL     1      36.985 -19.875 -20.114  0.00  0.00    -0.250 OA
ATOM      3  N   UNL     1      34.896 -20.890 -19.828  0.00  0.00    -0.184 N 
ATOM      4  N   UNL     1      35.011 -19.068 -21.082  0.00  0.00    -0.181 N 
ATOM      5  C   UNL     1      33.618 -19.399 -21.133  0.00  0.00    +0.200 C 
ATOM      6  C   UNL     1      33.609 -20.641 -20.261  0.00  0.00    +0.256 C 
ATOM      7  C   UNL     1      35.779 -19.939 -20.313  0.00  0.00    +0.330 C 
ENDROOT
BRANCH   4   8
ATOM      8  N   UNL     1      35.528 -18.007 -21.722  0.00  0.00    -0.118 NA
BRANCH   8   9
ATOM      9  C   UNL     1      35.064 -16.873 -21.305  0.00  0.00    +0.176 C 
BRANCH   9  11
ATOM     10  O   UNL     1      34.283 -16.269 -23.475  0.00  0.00    -0.436 OA
ATOM     11  C   UNL     1      34.551 -15.867 -22.221  0.00  0.00    +0.144 C 
ATOM     12  C   UNL     1      34.290 -14.551 -22.026  0.00  0.00    +0.040 C 
ATOM     13  C   UNL     1      33.827 -15.164 -24.120  0.00  0.00    +0.289 C 
ATOM     14  C   UNL     1      33.812 -14.081 -23.272  0.00  0.00    +0.066 C 
BRANCH  13  17
ATOM     15  O   UNL     1      32.687 -14.539 -26.025  0.00  0.00    -0.123 OA
ATOM     16  O   UNL     1      33.958 -16.328 -26.107  0.00  0.00    -0.123 OA
ATOM     17  N   UNL     1      33.479 -15.350 -25.460  0.00  0.00    +0.093 N 
ENDBRANCH  13  17
ENDBRANCH   9  11
ENDBRANCH   8   9
ENDBRANCH   4   8
BRANCH   3  18
ATOM     18  C   UNL     1      35.272 -22.004 -18.980  0.00  0.00    +0.246 C 
BRANCH  18  19
ATOM     19  O   UNL     1      34.626 -23.174 -19.442  0.00  0.00    -0.364 OA
ATOM     20  H   UNL     1      34.172 -22.985 -20.278  0.00  0.00    +0.212 HD
ENDBRANCH  18  19
ENDBRANCH   3  18
TORSDOF 6
ENDMDL
MODEL 9
REMARK VINA RESULT:      -8.2      2.346      7.570
REMARK  Name = 9571062
REMARK  6 active torsions:
REMARK  status: ('A' for Active; 'I' for Inactive)
REMARK    1  A    between atoms: N_3  and  C_18
REMARK    2  A    between atoms: N_4  and  N_8
REMARK    3  A    between atoms: N_8  and  C_9
REMARK    4  A    between atoms: C_9  and  C_11
REMARK    5  A    between atoms: C_13  and  N_17
REMARK    6  A    between atoms: C_18  and  O_19
REMARK                            x       y       z     vdW  Elec       q    Type
REMARK                         _______ _______ _______ _____ _____    ______ ____
ROOT
ATOM      1  O   UNL     1      28.559 -25.109 -14.610  0.00  0.00    -0.272 OA
ATOM      2  O   UNL     1      31.172 -22.390 -17.259  0.00  0.00    -0.250 OA
ATOM      3  N   UNL     1      29.534 -23.612 -16.118  0.00  0.00    -0.184 N 
ATOM      4  N   UNL     1      31.654 -23.913 -15.546  0.00  0.00    -0.181 N 
ATOM      5  C   UNL     1      30.958 -24.800 -14.662  0.00  0.00    +0.200 C 
ATOM      6  C   UNL     1      29.529 -24.549 -15.104  0.00  0.00    +0.256 C 
ATOM      7  C   UNL     1      30.824 -23.205 -16.414  0.00  0.00    +0.330 C 
ENDROOT
BRANCH   4   8
ATOM      8  N   UNL     1      32.989 -23.779 -15.536  0.00  0.00    -0.118 NA
BRANCH   8   9
ATOM      9  C   UNL     1      33.502 -23.783 -14.348  0.00  0.00    +0.176 C 
BRANCH   9  11
ATOM     10  O   UNL     1      35.249 -25.310 -14.894  0.00  0.00    -0.436 OA
ATOM     11  C   UNL     1      34.823 -24.327 -14.082  0.00  0.00    +0.144 C 
ATOM     12  C   UNL     1      35.731 -24.007 -13.127  0.00  0.00    +0.040 C 
ATOM     13  C   UNL     1      36.488 -25.641 -14.445  0.00  0.00    +0.289 C 
ATOM     14  C   UNL     1      36.830 -24.868 -13.359  0.00  0.00    +0.066 C 
BRANCH  13  17
ATOM     15  O   UNL     1      38.272 -27.063 -14.776  0.00  0.00    -0.123 OA
ATOM     16  O   UNL     1      36.578 -27.171 -16.167  0.00  0.00    -0.123 OA
ATOM     17  N   UNL     1      37.134 -26.657 -15.152  0.00  0.00    +0.093 N 
ENDBRANCH  13  17
ENDBRANCH   9  11
ENDBRANCH   8   9
ENDBRANCH   4   8
BRANCH   3  18
ATOM     18  C   UNL     1      28.344 -23.119 -16.782  0.00  0.00    +0.246 C 
BRANCH  18  19
ATOM     19  O   UNL     1      27.762 -24.171 -17.526  0.00  0.00    -0.364 OA
ATOM     20  H   UNL     1      26.796 -24.103 -17.482  0.00  0.00    +0.212 HD
ENDBRANCH  18  19
ENDBRANCH   3  18
TORSDOF 6
ENDMDL
