MODEL 1
REMARK VINA RESULT:     -10.7      0.000      0.000
REMARK  Name = 24861080
REMARK  3 active torsions:
REMARK  status: ('A' for Active; 'I' for Inactive)
REMARK    1  A    between atoms: N_1  and  C_15
REMARK    2  A    between atoms: N_2  and  C_21
REMARK    3  A    between atoms: C_23  and  C_29
REMARK                            x       y       z     vdW  Elec       q    Type
REMARK                         _______ _______ _______ _____ _____    ______ ____
ROOT
ATOM      1  N   UNL     1      34.712 -23.647 -14.657  0.00  0.00    -0.284 N 
ATOM      2  N   UNL     1      32.764 -22.132 -18.684  0.00  0.00    -0.247 N 
ATOM      3  N   UNL     1      33.753 -22.879 -16.691  0.00  0.00    -0.322 NA
ATOM      4  N   UNL     1      31.386 -23.128 -17.067  0.00  0.00    -0.170 NA
ATOM      5  C   UNL     1      33.587 -23.465 -15.488  0.00  0.00    +0.198 C 
ATOM      6  C   UNL     1      32.628 -22.743 -17.418  0.00  0.00    +0.150 C 
ATOM      7  C   UNL     1      32.368 -23.904 -15.010  0.00  0.00    +0.070 C 
ATOM      8  C   UNL     1      31.292 -23.707 -15.852  0.00  0.00    +0.116 C 
ATOM      9  H   UNL     1      34.501 -23.627 -13.696  0.00  0.00    +0.155 HD
ATOM     10  H   UNL     1      31.917 -22.055 -19.179  0.00  0.00    +0.165 HD
ENDROOT
BRANCH   1  15
ATOM     11 CL   UNL     1      36.143 -21.443 -16.209  0.00  0.00    -0.081 Cl
ATOM     12  O   UNL     1      36.130 -26.021 -13.811  0.00  0.00    -0.433 OA
ATOM     13  O   UNL     1      38.464 -26.424 -14.254  0.00  0.00    -0.435 OA
ATOM     14  C   UNL     1      36.709 -25.003 -14.506  0.00  0.00    +0.191 C 
ATOM     15  C   UNL     1      36.077 -23.852 -14.931  0.00  0.00    +0.098 C 
ATOM     16  C   UNL     1      38.041 -25.234 -14.759  0.00  0.00    +0.178 C 
ATOM     17  C   UNL     1      36.840 -22.916 -15.633  0.00  0.00    +0.074 C 
ATOM     18  C   UNL     1      38.817 -24.326 -15.450  0.00  0.00    +0.041 C 
ATOM     19  C   UNL     1      37.249 -26.918 -13.655  0.00  0.00    +0.429 C 
ATOM     20  C   UNL     1      38.202 -23.153 -15.892  0.00  0.00    +0.016 C 
ENDBRANCH   1  15
BRANCH   2  21
ATOM     21  C   UNL     1      33.874 -21.613 -19.375  0.00  0.00    +0.058 C 
ATOM     22  C   UNL     1      33.760 -20.416 -20.082  0.00  0.00    +0.020 C 
ATOM     23  C   UNL     1      34.860 -19.903 -20.768  0.00  0.00    +0.054 C 
ATOM     24  C   UNL     1      35.090 -22.298 -19.355  0.00  0.00    +0.015 C 
ATOM     25  C   UNL     1      36.075 -20.587 -20.749  0.00  0.00    +0.005 C 
ATOM     26  C   UNL     1      36.191 -21.785 -20.042  0.00  0.00    +0.001 C 
BRANCH  23  29
ATOM     27  O   UNL     1      34.315 -18.633 -22.674  0.00  0.00    -0.270 OA
ATOM     28  N   UNL     1      35.105 -17.481 -20.856  0.00  0.00    -0.325 N 
ATOM     29  C   UNL     1      34.741 -18.656 -21.507  0.00  0.00    +0.243 C 
ATOM     30  H   UNL     1      35.039 -16.617 -21.324  0.00  0.00    +0.145 HD
ATOM     31  H   UNL     1      35.430 -17.512 -19.927  0.00  0.00    +0.145 HD
ENDBRANCH  23  29
ENDBRANCH   2  21
TORSDOF 3
ENDMDL
MODEL 2
REMARK VINA RESULT:     -10.1      2.660      6.486
REMARK  Name = 24861080
REMARK  3 active torsions:
REMARK  status: ('A' for Active; 'I' for Inactive)
REMARK    1  A    between atoms: N_1  and  C_15
REMARK    2  A    between atoms: N_2  and  C_21
REMARK    3  A    between atoms: C_23  and  C_29
REMARK                            x       y       z     vdW  Elec       q    Type
REMARK                         _______ _______ _______ _____ _____    ______ ____
ROOT
ATOM      1  N   UNL     1      33.340 -23.268 -17.339  0.00  0.00    -0.284 N 
ATOM      2  N   UNL     1      34.204 -24.394 -12.835  0.00  0.00    -0.247 N 
ATOM      3  N   UNL     1      33.798 -23.832 -15.076  0.00  0.00    -0.322 NA
ATOM      4  N   UNL     1      31.978 -24.304 -13.569  0.00  0.00    -0.170 NA
ATOM      5  C   UNL     1      32.889 -23.622 -16.050  0.00  0.00    +0.198 C 
ATOM      6  C   UNL     1      33.282 -24.165 -13.879  0.00  0.00    +0.150 C 
ATOM      7  C   UNL     1      31.525 -23.731 -15.863  0.00  0.00    +0.070 C 
ATOM      8  C   UNL     1      31.124 -24.079 -14.589  0.00  0.00    +0.116 C 
ATOM      9  H   UNL     1      32.747 -23.573 -18.063  0.00  0.00    +0.155 HD
ATOM     10  H   UNL     1      33.782 -24.635 -11.979  0.00  0.00    +0.165 HD
ENDROOT
BRANCH   1  15
ATOM     11 CL   UNL     1      32.983 -21.590 -19.863  0.00  0.00    -0.081 Cl
ATOM     12  O   UNL     1      35.892 -23.380 -15.984  0.00  0.00    -0.433 OA
ATOM     13  O   UNL     1      37.860 -22.200 -16.721  0.00  0.00    -0.435 OA
ATOM     14  C   UNL     1      35.667 -22.652 -17.113  0.00  0.00    +0.191 C 
ATOM     15  C   UNL     1      34.471 -22.566 -17.795  0.00  0.00    +0.098 C 
ATOM     16  C   UNL     1      36.791 -21.980 -17.533  0.00  0.00    +0.178 C 
ATOM     17  C   UNL     1      34.433 -21.764 -18.938  0.00  0.00    +0.074 C 
ATOM     18  C   UNL     1      36.781 -21.182 -18.659  0.00  0.00    +0.041 C 
ATOM     19  C   UNL     1      37.284 -23.089 -15.742  0.00  0.00    +0.429 C 
ATOM     20  C   UNL     1      35.582 -21.077 -19.368  0.00  0.00    +0.016 C 
ENDBRANCH   1  15
BRANCH   2  21
ATOM     21  C   UNL     1      35.610 -24.346 -12.780  0.00  0.00    +0.058 C 
ATOM     22  C   UNL     1      36.368 -25.333 -13.409  0.00  0.00    +0.020 C 
ATOM     23  C   UNL     1      37.761 -25.284 -13.354  0.00  0.00    +0.054 C 
ATOM     24  C   UNL     1      36.245 -23.310 -12.093  0.00  0.00    +0.015 C 
ATOM     25  C   UNL     1      38.396 -24.249 -12.667  0.00  0.00    +0.005 C 
ATOM     26  C   UNL     1      37.638 -23.262 -12.036  0.00  0.00    +0.001 C 
BRANCH  23  29
ATOM     27  O   UNL     1      38.015 -27.239 -14.641  0.00  0.00    -0.270 OA
ATOM     28  N   UNL     1      39.938 -26.220 -13.919  0.00  0.00    -0.325 N 
ATOM     29  C   UNL     1      38.552 -26.313 -14.009  0.00  0.00    +0.243 C 
ATOM     30  H   UNL     1      40.506 -26.899 -14.349  0.00  0.00    +0.145 HD
ATOM     31  H   UNL     1      40.350 -25.475 -13.425  0.00  0.00    +0.145 HD
ENDBRANCH  23  29
ENDBRANCH   2  21
TORSDOF 3
ENDMDL
MODEL 3
REMARK VINA RESULT:     -10.0      1.973      6.991
REMARK  Name = 24861080
REMARK  3 active torsions:
REMARK  status: ('A' for Active; 'I' for Inactive)
REMARK    1  A    between atoms: N_1  and  C_15
REMARK    2  A    between atoms: N_2  and  C_21
REMARK    3  A    between atoms: C_23  and  C_29
REMARK                            x       y       z     vdW  Elec       q    Type
REMARK                         _______ _______ _______ _____ _____    ______ ____
ROOT
ATOM      1  N   UNL     1      32.413 -22.625 -18.020  0.00  0.00    -0.284 N 
ATOM      2  N   UNL     1      33.463 -23.935 -13.606  0.00  0.00    -0.247 N 
ATOM      3  N   UNL     1      32.964 -23.285 -15.804  0.00  0.00    -0.322 NA
ATOM      4  N   UNL     1      31.223 -23.501 -14.153  0.00  0.00    -0.170 NA
ATOM      5  C   UNL     1      32.021 -22.926 -16.699  0.00  0.00    +0.198 C 
ATOM      6  C   UNL     1      32.503 -23.555 -14.569  0.00  0.00    +0.150 C 
ATOM      7  C   UNL     1      30.677 -22.833 -16.400  0.00  0.00    +0.070 C 
ATOM      8  C   UNL     1      30.332 -23.136 -15.097  0.00  0.00    +0.116 C 
ATOM      9  H   UNL     1      31.724 -22.827 -18.693  0.00  0.00    +0.155 HD
ATOM     10  H   UNL     1      33.081 -24.122 -12.718  0.00  0.00    +0.165 HD
ENDROOT
BRANCH   1  15
ATOM     11 CL   UNL     1      35.042 -23.706 -16.907  0.00  0.00    -0.081 Cl
ATOM     12  O   UNL     1      32.401 -20.610 -20.093  0.00  0.00    -0.433 OA
ATOM     13  O   UNL     1      34.394 -19.664 -21.063  0.00  0.00    -0.435 OA
ATOM     14  C   UNL     1      33.537 -21.132 -19.554  0.00  0.00    +0.191 C 
ATOM     15  C   UNL     1      33.596 -22.094 -18.566  0.00  0.00    +0.098 C 
ATOM     16  C   UNL     1      34.675 -20.592 -20.108  0.00  0.00    +0.178 C 
ATOM     17  C   UNL     1      34.860 -22.508 -18.140  0.00  0.00    +0.074 C 
ATOM     18  C   UNL     1      35.935 -20.983 -19.705  0.00  0.00    +0.041 C 
ATOM     19  C   UNL     1      32.953 -19.680 -21.048  0.00  0.00    +0.429 C 
ATOM     20  C   UNL     1      36.023 -21.955 -18.705  0.00  0.00    +0.016 C 
ENDBRANCH   1  15
BRANCH   2  21
ATOM     21  C   UNL     1      34.860 -24.098 -13.667  0.00  0.00    +0.058 C 
ATOM     22  C   UNL     1      35.404 -25.248 -14.240  0.00  0.00    +0.020 C 
ATOM     23  C   UNL     1      36.788 -25.408 -14.300  0.00  0.00    +0.054 C 
ATOM     24  C   UNL     1      35.700 -23.110 -13.153  0.00  0.00    +0.015 C 
ATOM     25  C   UNL     1      37.628 -24.421 -13.785  0.00  0.00    +0.005 C 
ATOM     26  C   UNL     1      37.084 -23.271 -13.212  0.00  0.00    +0.001 C 
BRANCH  23  29
ATOM     27  O   UNL     1      38.483 -27.021 -14.571  0.00  0.00    -0.270 OA
ATOM     28  N   UNL     1      36.588 -27.290 -15.833  0.00  0.00    -0.325 N 
ATOM     29  C   UNL     1      37.356 -26.608 -14.895  0.00  0.00    +0.243 C 
ATOM     30  H   UNL     1      36.940 -28.106 -16.259  0.00  0.00    +0.145 HD
ATOM     31  H   UNL     1      35.693 -26.959 -16.072  0.00  0.00    +0.145 HD
ENDBRANCH  23  29
ENDBRANCH   2  21
TORSDOF 3
ENDMDL
MODEL 4
REMARK VINA RESULT:      -9.7      7.638     12.938
REMARK  Name = 24861080
REMARK  3 active torsions:
REMARK  status: ('A' for Active; 'I' for Inactive)
REMARK    1  A    between atoms: N_1  and  C_15
REMARK    2  A    between atoms: N_2  and  C_21
REMARK    3  A    between atoms: C_23  and  C_29
REMARK                            x       y       z     vdW  Elec       q    Type
REMARK                         _______ _______ _______ _____ _____    ______ ____
ROOT
ATOM      1  N   UNL     1      32.547 -10.809 -23.801  0.00  0.00    -0.284 N 
ATOM      2  N   UNL     1      33.036 -14.621 -21.057  0.00  0.00    -0.247 N 
ATOM      3  N   UNL     1      32.805 -12.737 -22.437  0.00  0.00    -0.322 NA
ATOM      4  N   UNL     1      31.889 -12.758 -20.208  0.00  0.00    -0.170 NA
ATOM      5  C   UNL     1      32.329 -11.484 -22.581  0.00  0.00    +0.198 C 
ATOM      6  C   UNL     1      32.553 -13.308 -21.244  0.00  0.00    +0.150 C 
ATOM      7  C   UNL     1      31.634 -10.810 -21.598  0.00  0.00    +0.070 C 
ATOM      8  C   UNL     1      31.441 -11.504 -20.421  0.00  0.00    +0.116 C 
ATOM      9  H   UNL     1      31.840 -10.162 -24.026  0.00  0.00    +0.155 HD
ATOM     10  H   UNL     1      32.828 -14.997 -20.171  0.00  0.00    +0.165 HD
ENDROOT
BRANCH   1  15
ATOM     11 CL   UNL     1      34.694  -8.645 -23.662  0.00  0.00    -0.081 Cl
ATOM     12  O   UNL     1      32.658 -12.877 -25.818  0.00  0.00    -0.433 OA
ATOM     13  O   UNL     1      34.392 -13.042 -27.483  0.00  0.00    -0.435 OA
ATOM     14  C   UNL     1      33.583 -11.884 -25.703  0.00  0.00    +0.191 C 
ATOM     15  C   UNL     1      33.575 -10.877 -24.759  0.00  0.00    +0.098 C 
ATOM     16  C   UNL     1      34.572 -11.979 -26.654  0.00  0.00    +0.178 C 
ATOM     17  C   UNL     1      34.614  -9.945 -24.799  0.00  0.00    +0.074 C 
ATOM     18  C   UNL     1      35.609 -11.071 -26.714  0.00  0.00    +0.041 C 
ATOM     19  C   UNL     1      33.178 -13.607 -26.949  0.00  0.00    +0.429 C 
ATOM     20  C   UNL     1      35.625 -10.041 -25.771  0.00  0.00    +0.016 C 
ENDBRANCH   1  15
BRANCH   2  21
ATOM     21  C   UNL     1      33.756 -15.498 -21.889  0.00  0.00    +0.058 C 
ATOM     22  C   UNL     1      34.513 -16.528 -21.331  0.00  0.00    +0.020 C 
ATOM     23  C   UNL     1      35.227 -17.396 -22.157  0.00  0.00    +0.054 C 
ATOM     24  C   UNL     1      33.714 -15.335 -23.274  0.00  0.00    +0.015 C 
ATOM     25  C   UNL     1      35.185 -17.233 -23.541  0.00  0.00    +0.005 C 
ATOM     26  C   UNL     1      34.428 -16.203 -24.101  0.00  0.00    +0.001 C 
BRANCH  23  29
ATOM     27  O   UNL     1      37.215 -18.623 -21.869  0.00  0.00    -0.270 OA
ATOM     28  N   UNL     1      35.392 -19.311 -20.661  0.00  0.00    -0.325 N 
ATOM     29  C   UNL     1      36.018 -18.469 -21.575  0.00  0.00    +0.243 C 
ATOM     30  H   UNL     1      35.895 -20.050 -20.247  0.00  0.00    +0.145 HD
ATOM     31  H   UNL     1      34.446 -19.171 -20.429  0.00  0.00    +0.145 HD
ENDBRANCH  23  29
ENDBRANCH   2  21
TORSDOF 3
ENDMDL
MODEL 5
REMARK VINA RESULT:      -9.5      2.634      6.324
REMARK  Name = 24861080
REMARK  3 active torsions:
REMARK  status: ('A' for Active; 'I' for Inactive)
REMARK    1  A    between atoms: N_1  and  C_15
REMARK    2  A    between atoms: N_2  and  C_21
REMARK    3  A    between atoms: C_23  and  C_29
REMARK                            x       y       z     vdW  Elec       q    Type
REMARK                         _______ _______ _______ _____ _____    ______ ____
ROOT
ATOM      1  N   UNL     1      32.754 -22.503 -18.205  0.00  0.00    -0.284 N 
ATOM      2  N   UNL     1      33.466 -24.529 -13.999  0.00  0.00    -0.247 N 
ATOM      3  N   UNL     1      33.135 -23.523 -16.093  0.00  0.00    -0.322 NA
ATOM      4  N   UNL     1      31.288 -23.885 -14.589  0.00  0.00    -0.170 NA
ATOM      5  C   UNL     1      32.267 -22.977 -16.970  0.00  0.00    +0.198 C 
ATOM      6  C   UNL     1      32.587 -23.950 -14.941  0.00  0.00    +0.150 C 
ATOM      7  C   UNL     1      30.914 -22.851 -16.730  0.00  0.00    +0.070 C 
ATOM      8  C   UNL     1      30.476 -23.328 -15.511  0.00  0.00    +0.116 C 
ATOM      9  H   UNL     1      32.098 -22.559 -18.937  0.00  0.00    +0.155 HD
ATOM     10  H   UNL     1      33.021 -24.826 -13.173  0.00  0.00    +0.165 HD
ENDROOT
BRANCH   1  15
ATOM     11 CL   UNL     1      32.768 -20.820 -20.751  0.00  0.00    -0.081 Cl
ATOM     12  O   UNL     1      35.189 -22.944 -16.710  0.00  0.00    -0.433 OA
ATOM     13  O   UNL     1      37.337 -22.050 -17.339  0.00  0.00    -0.435 OA
ATOM     14  C   UNL     1      35.128 -22.205 -17.852  0.00  0.00    +0.191 C 
ATOM     15  C   UNL     1      33.993 -21.965 -18.600  0.00  0.00    +0.098 C 
ATOM     16  C   UNL     1      36.354 -21.696 -18.211  0.00  0.00    +0.178 C 
ATOM     17  C   UNL     1      34.128 -21.179 -19.746  0.00  0.00    +0.074 C 
ATOM     18  C   UNL     1      36.514 -20.916 -19.338  0.00  0.00    +0.041 C 
ATOM     19  C   UNL     1      36.592 -22.842 -16.391  0.00  0.00    +0.429 C 
ATOM     20  C   UNL     1      35.382 -20.658 -20.114  0.00  0.00    +0.016 C 
ENDBRANCH   1  15
BRANCH   2  21
ATOM     21  C   UNL     1      34.853 -24.763 -14.012  0.00  0.00    +0.058 C 
ATOM     22  C   UNL     1      35.680 -24.106 -13.101  0.00  0.00    +0.020 C 
ATOM     23  C   UNL     1      37.056 -24.339 -13.114  0.00  0.00    +0.054 C 
ATOM     24  C   UNL     1      35.402 -25.651 -14.937  0.00  0.00    +0.015 C 
ATOM     25  C   UNL     1      37.604 -25.226 -14.040  0.00  0.00    +0.005 C 
ATOM     26  C   UNL     1      36.777 -25.883 -14.952  0.00  0.00    +0.001 C 
BRANCH  23  29
ATOM     27  O   UNL     1      39.156 -23.767 -12.215  0.00  0.00    -0.270 OA
ATOM     28  N   UNL     1      37.314 -22.848 -11.205  0.00  0.00    -0.325 N 
ATOM     29  C   UNL     1      37.919 -23.653 -12.166  0.00  0.00    +0.243 C 
ATOM     30  H   UNL     1      37.866 -22.368 -10.545  0.00  0.00    +0.145 HD
ATOM     31  H   UNL     1      36.334 -22.757 -11.184  0.00  0.00    +0.145 HD
ENDBRANCH  23  29
ENDBRANCH   2  21
TORSDOF 3
ENDMDL
MODEL 6
REMARK VINA RESULT:      -9.5     10.195     14.662
REMARK  Name = 24861080
REMARK  3 active torsions:
REMARK  status: ('A' for Active; 'I' for Inactive)
REMARK    1  A    between atoms: N_1  and  C_15
REMARK    2  A    between atoms: N_2  and  C_21
REMARK    3  A    between atoms: C_23  and  C_29
REMARK                            x       y       z     vdW  Elec       q    Type
REMARK                         _______ _______ _______ _____ _____    ______ ____
ROOT
ATOM      1  N   UNL     1      33.424 -12.419 -24.152  0.00  0.00    -0.284 N 
ATOM      2  N   UNL     1      34.304  -7.781 -23.998  0.00  0.00    -0.247 N 
ATOM      3  N   UNL     1      33.854 -10.084 -24.056  0.00  0.00    -0.322 NA
ATOM      4  N   UNL     1      35.334  -9.072 -25.665  0.00  0.00    -0.170 NA
ATOM      5  C   UNL     1      34.069 -11.271 -24.658  0.00  0.00    +0.198 C 
ATOM      6  C   UNL     1      34.507  -9.041 -24.602  0.00  0.00    +0.150 C 
ATOM      7  C   UNL     1      34.893 -11.437 -25.753  0.00  0.00    +0.070 C 
ATOM      8  C   UNL     1      35.505 -10.290 -26.218  0.00  0.00    +0.116 C 
ATOM      9  H   UNL     1      33.234 -13.099 -24.837  0.00  0.00    +0.155 HD
ATOM     10  H   UNL     1      34.801  -7.050 -24.431  0.00  0.00    +0.165 HD
ENDROOT
BRANCH   1  15
ATOM     11 CL   UNL     1      31.340 -10.617 -22.840  0.00  0.00    -0.081 Cl
ATOM     12  O   UNL     1      34.444 -14.748 -22.777  0.00  0.00    -0.433 OA
ATOM     13  O   UNL     1      33.751 -15.418 -20.568  0.00  0.00    -0.435 OA
ATOM     14  C   UNL     1      33.516 -13.905 -22.247  0.00  0.00    +0.191 C 
ATOM     15  C   UNL     1      32.998 -12.783 -22.862  0.00  0.00    +0.098 C 
ATOM     16  C   UNL     1      33.121 -14.287 -20.986  0.00  0.00    +0.178 C 
ATOM     17  C   UNL     1      32.049 -12.039 -22.158  0.00  0.00    +0.074 C 
ATOM     18  C   UNL     1      32.185 -13.570 -20.269  0.00  0.00    +0.041 C 
ATOM     19  C   UNL     1      34.588 -15.705 -21.706  0.00  0.00    +0.429 C 
ATOM     20  C   UNL     1      31.645 -12.429 -20.868  0.00  0.00    +0.016 C 
ENDBRANCH   1  15
BRANCH   2  21
ATOM     21  C   UNL     1      33.530  -7.367 -22.898  0.00  0.00    +0.058 C 
ATOM     22  C   UNL     1      32.591  -6.347 -23.050  0.00  0.00    +0.020 C 
ATOM     23  C   UNL     1      31.825  -5.937 -21.959  0.00  0.00    +0.054 C 
ATOM     24  C   UNL     1      33.704  -7.976 -21.655  0.00  0.00    +0.015 C 
ATOM     25  C   UNL     1      31.999  -6.545 -20.716  0.00  0.00    +0.005 C 
ATOM     26  C   UNL     1      32.939  -7.565 -20.564  0.00  0.00    +0.001 C 
BRANCH  23  29
ATOM     27  O   UNL     1      29.658  -5.031 -21.787  0.00  0.00    -0.270 OA
ATOM     28  N   UNL     1      31.288  -3.659 -22.634  0.00  0.00    -0.325 N 
ATOM     29  C   UNL     1      30.846  -4.873 -22.116  0.00  0.00    +0.243 C 
ATOM     30  H   UNL     1      30.654  -2.915 -22.755  0.00  0.00    +0.145 HD
ATOM     31  H   UNL     1      32.234  -3.543 -22.879  0.00  0.00    +0.145 HD
ENDBRANCH  23  29
ENDBRANCH   2  21
TORSDOF 3
ENDMDL
MODEL 7
REMARK VINA RESULT:      -9.5     11.206     15.094
REMARK  Name = 24861080
REMARK  3 active torsions:
REMARK  status: ('A' for Active; 'I' for Inactive)
REMARK    1  A    between atoms: N_1  and  C_15
REMARK    2  A    between atoms: N_2  and  C_21
REMARK    3  A    between atoms: C_23  and  C_29
REMARK                            x       y       z     vdW  Elec       q    Type
REMARK                         _______ _______ _______ _____ _____    ______ ____
ROOT
ATOM      1  N   UNL     1      33.479 -12.459 -24.235  0.00  0.00    -0.284 N 
ATOM      2  N   UNL     1      34.326  -7.817 -24.053  0.00  0.00    -0.247 N 
ATOM      3  N   UNL     1      33.892 -10.122 -24.124  0.00  0.00    -0.322 NA
ATOM      4  N   UNL     1      35.370  -9.091 -25.724  0.00  0.00    -0.170 NA
ATOM      5  C   UNL     1      34.118 -11.304 -24.733  0.00  0.00    +0.198 C 
ATOM      6  C   UNL     1      34.540  -9.072 -24.663  0.00  0.00    +0.150 C 
ATOM      7  C   UNL     1      34.946 -11.458 -25.826  0.00  0.00    +0.070 C 
ATOM      8  C   UNL     1      35.551 -10.304 -26.283  0.00  0.00    +0.116 C 
ATOM      9  H   UNL     1      33.296 -13.137 -24.924  0.00  0.00    +0.155 HD
ATOM     10  H   UNL     1      34.819  -7.080 -24.480  0.00  0.00    +0.165 HD
ENDROOT
BRANCH   1  15
ATOM     11 CL   UNL     1      34.651 -15.039 -23.102  0.00  0.00    -0.081 Cl
ATOM     12  O   UNL     1      31.590 -10.894 -22.706  0.00  0.00    -0.433 OA
ATOM     13  O   UNL     1      30.823 -11.489 -20.500  0.00  0.00    -0.435 OA
ATOM     14  C   UNL     1      32.147 -12.053 -22.258  0.00  0.00    +0.191 C 
ATOM     15  C   UNL     1      33.052 -12.834 -22.948  0.00  0.00    +0.098 C 
ATOM     16  C   UNL     1      31.709 -12.392 -20.999  0.00  0.00    +0.178 C 
ATOM     17  C   UNL     1      33.516 -13.993 -22.322  0.00  0.00    +0.074 C 
ATOM     18  C   UNL     1      32.152 -13.531 -20.359  0.00  0.00    +0.041 C 
ATOM     19  C   UNL     1      30.751 -10.543 -21.585  0.00  0.00    +0.429 C 
ATOM     20  C   UNL     1      33.068 -14.340 -21.035  0.00  0.00    +0.016 C 
ENDBRANCH   1  15
BRANCH   2  21
ATOM     21  C   UNL     1      33.546  -7.414 -22.953  0.00  0.00    +0.058 C 
ATOM     22  C   UNL     1      32.620  -6.381 -23.094  0.00  0.00    +0.020 C 
ATOM     23  C   UNL     1      31.848  -5.982 -22.003  0.00  0.00    +0.054 C 
ATOM     24  C   UNL     1      33.701  -8.048 -21.719  0.00  0.00    +0.015 C 
ATOM     25  C   UNL     1      32.003  -6.615 -20.770  0.00  0.00    +0.005 C 
ATOM     26  C   UNL     1      32.930  -7.649 -20.628  0.00  0.00    +0.001 C 
BRANCH  23  29
ATOM     27  O   UNL     1      29.695  -5.048 -21.813  0.00  0.00    -0.270 OA
ATOM     28  N   UNL     1      31.338  -3.695 -22.666  0.00  0.00    -0.325 N 
ATOM     29  C   UNL     1      30.883  -4.904 -22.150  0.00  0.00    +0.243 C 
ATOM     30  H   UNL     1      30.713  -2.942 -22.781  0.00  0.00    +0.145 HD
ATOM     31  H   UNL     1      32.283  -3.591 -22.917  0.00  0.00    +0.145 HD
ENDBRANCH  23  29
ENDBRANCH   2  21
TORSDOF 3
ENDMDL
MODEL 8
REMARK VINA RESULT:      -9.3     10.031     13.575
REMARK  Name = 24861080
REMARK  3 active torsions:
REMARK  status: ('A' for Active; 'I' for Inactive)
REMARK    1  A    between atoms: N_1  and  C_15
REMARK    2  A    between atoms: N_2  and  C_21
REMARK    3  A    between atoms: C_23  and  C_29
REMARK                            x       y       z     vdW  Elec       q    Type
REMARK                         _______ _______ _______ _____ _____    ______ ____
ROOT
ATOM      1  N   UNL     1      33.945 -14.685 -23.432  0.00  0.00    -0.284 N 
ATOM      2  N   UNL     1      31.726 -11.873 -20.354  0.00  0.00    -0.247 N 
ATOM      3  N   UNL     1      32.829 -13.253 -21.899  0.00  0.00    -0.322 NA
ATOM      4  N   UNL     1      32.113 -14.111 -19.764  0.00  0.00    -0.170 NA
ATOM      5  C   UNL     1      33.319 -14.476 -22.186  0.00  0.00    +0.198 C 
ATOM      6  C   UNL     1      32.249 -13.141 -20.689  0.00  0.00    +0.150 C 
ATOM      7  C   UNL     1      33.243 -15.553 -21.326  0.00  0.00    +0.070 C 
ATOM      8  C   UNL     1      32.623 -15.309 -20.116  0.00  0.00    +0.116 C 
ATOM      9  H   UNL     1      34.649 -15.373 -23.410  0.00  0.00    +0.155 HD
ATOM     10  H   UNL     1      31.311 -11.839 -19.462  0.00  0.00    +0.165 HD
ENDROOT
BRANCH   1  15
ATOM     11 CL   UNL     1      33.179 -16.571 -25.706  0.00  0.00    -0.081 Cl
ATOM     12  O   UNL     1      34.272 -11.851 -23.905  0.00  0.00    -0.433 OA
ATOM     13  O   UNL     1      33.976 -10.802 -26.055  0.00  0.00    -0.435 OA
ATOM     14  C   UNL     1      33.933 -12.745 -24.875  0.00  0.00    +0.191 C 
ATOM     15  C   UNL     1      33.764 -14.103 -24.700  0.00  0.00    +0.098 C 
ATOM     16  C   UNL     1      33.764 -12.145 -26.102  0.00  0.00    +0.178 C 
ATOM     17  C   UNL     1      33.413 -14.861 -25.819  0.00  0.00    +0.074 C 
ATOM     18  C   UNL     1      33.417 -12.872 -27.223  0.00  0.00    +0.041 C 
ATOM     19  C   UNL     1      34.298 -10.622 -24.661  0.00  0.00    +0.429 C 
ATOM     20  C   UNL     1      33.241 -14.249 -27.074  0.00  0.00    +0.016 C 
ENDBRANCH   1  15
BRANCH   2  21
ATOM     21  C   UNL     1      31.682 -10.649 -21.046  0.00  0.00    +0.058 C 
ATOM     22  C   UNL     1      32.025  -9.465 -20.393  0.00  0.00    +0.020 C 
ATOM     23  C   UNL     1      31.980  -8.252 -21.080  0.00  0.00    +0.054 C 
ATOM     24  C   UNL     1      31.293 -10.620 -22.386  0.00  0.00    +0.015 C 
ATOM     25  C   UNL     1      31.591  -8.222 -22.419  0.00  0.00    +0.005 C 
ATOM     26  C   UNL     1      31.248  -9.406 -23.073  0.00  0.00    +0.001 C 
BRANCH  23  29
ATOM     27  O   UNL     1      33.061  -7.019 -19.390  0.00  0.00    -0.270 OA
ATOM     28  N   UNL     1      31.851  -5.824 -20.928  0.00  0.00    -0.325 N 
ATOM     29  C   UNL     1      32.336  -7.017 -20.400  0.00  0.00    +0.243 C 
ATOM     30  H   UNL     1      32.070  -4.968 -20.494  0.00  0.00    +0.145 HD
ATOM     31  H   UNL     1      31.288  -5.835 -21.735  0.00  0.00    +0.145 HD
ENDBRANCH  23  29
ENDBRANCH   2  21
TORSDOF 3
ENDMDL
MODEL 9
REMARK VINA RESULT:      -9.2      9.428     13.191
REMARK  Name = 24861080
REMARK  3 active torsions:
REMARK  status: ('A' for Active; 'I' for Inactive)
REMARK    1  A    between atoms: N_1  and  C_15
REMARK    2  A    between atoms: N_2  and  C_21
REMARK    3  A    between atoms: C_23  and  C_29
REMARK                            x       y       z     vdW  Elec       q    Type
REMARK                         _______ _______ _______ _____ _____    ______ ____
ROOT
ATOM      1  N   UNL     1      32.496 -10.520 -23.877  0.00  0.00    -0.284 N 
ATOM      2  N   UNL     1      32.788 -14.220 -20.957  0.00  0.00    -0.247 N 
ATOM      3  N   UNL     1      32.657 -12.392 -22.423  0.00  0.00    -0.322 NA
ATOM      4  N   UNL     1      31.547 -12.345 -20.285  0.00  0.00    -0.170 NA
ATOM      5  C   UNL     1      32.180 -11.153 -22.657  0.00  0.00    +0.198 C 
ATOM      6  C   UNL     1      32.307 -12.922 -21.236  0.00  0.00    +0.150 C 
ATOM      7  C   UNL     1      31.392 -10.454 -21.765  0.00  0.00    +0.070 C 
ATOM      8  C   UNL     1      31.104 -11.107 -20.583  0.00  0.00    +0.116 C 
ATOM      9  H   UNL     1      31.804  -9.893 -24.188  0.00  0.00    +0.155 HD
ATOM     10  H   UNL     1      32.507 -14.566 -20.079  0.00  0.00    +0.165 HD
ENDROOT
BRANCH   1  15
ATOM     11 CL   UNL     1      34.742  -8.504 -23.424  0.00  0.00    -0.081 Cl
ATOM     12  O   UNL     1      32.680 -12.494 -25.982  0.00  0.00    -0.433 OA
ATOM     13  O   UNL     1      34.554 -12.688 -27.485  0.00  0.00    -0.435 OA
ATOM     14  C   UNL     1      33.646 -11.567 -25.729  0.00  0.00    +0.191 C 
ATOM     15  C   UNL     1      33.605 -10.607 -24.738  0.00  0.00    +0.098 C 
ATOM     16  C   UNL     1      34.715 -11.678 -26.587  0.00  0.00    +0.178 C 
ATOM     17  C   UNL     1      34.696  -9.741 -24.631  0.00  0.00    +0.074 C 
ATOM     18  C   UNL     1      35.804 -10.836 -26.503  0.00  0.00    +0.041 C 
ATOM     19  C   UNL     1      33.263 -13.200 -27.097  0.00  0.00    +0.429 C 
ATOM     20  C   UNL     1      35.789  -9.854 -25.509  0.00  0.00    +0.016 C 
ENDBRANCH   1  15
BRANCH   2  21
ATOM     21  C   UNL     1      33.589 -15.115 -21.689  0.00  0.00    +0.058 C 
ATOM     22  C   UNL     1      33.449 -15.206 -23.074  0.00  0.00    +0.020 C 
ATOM     23  C   UNL     1      34.244 -16.094 -23.799  0.00  0.00    +0.054 C 
ATOM     24  C   UNL     1      34.524 -15.914 -21.029  0.00  0.00    +0.015 C 
ATOM     25  C   UNL     1      35.178 -16.892 -23.139  0.00  0.00    +0.005 C 
ATOM     26  C   UNL     1      35.318 -16.803 -21.754  0.00  0.00    +0.001 C 
BRANCH  23  29
ATOM     27  O   UNL     1      34.941 -16.776 -25.942  0.00  0.00    -0.270 OA
ATOM     28  N   UNL     1      32.968 -15.615 -25.818  0.00  0.00    -0.325 N 
ATOM     29  C   UNL     1      34.097 -16.190 -25.243  0.00  0.00    +0.243 C 
ATOM     30  H   UNL     1      32.835 -15.659 -26.793  0.00  0.00    +0.145 HD
ATOM     31  H   UNL     1      32.302 -15.164 -25.251  0.00  0.00    +0.145 HD
ENDBRANCH  23  29
ENDBRANCH   2  21
TORSDOF 3
ENDMDL
