MODEL 1
REMARK VINA RESULT:      -8.6      0.000      0.000
REMARK  Name = 11954369
REMARK  4 active torsions:
REMARK  status: ('A' for Active; 'I' for Inactive)
REMARK    1  A    between atoms: C_8  and  C_27
REMARK    2  A    between atoms: C_12  and  O_24
REMARK    3  A    between atoms: C_27  and  C_28
REMARK    4  A    between atoms: C_28  and  O_29
REMARK                            x       y       z     vdW  Elec       q    Type
REMARK                         _______ _______ _______ _____ _____    ______ ____
ROOT
ATOM      1  F   UNL     1      35.785 -25.440 -14.845  0.00  0.00    -0.237 F 
ATOM      2  F   UNL     1      37.843 -22.343 -17.088  0.00  0.00    -0.233 F 
ATOM      3  O   UNL     1      40.624 -25.920 -15.215  0.00  0.00    -0.287 OA
ATOM      4  C   UNL     1      32.731 -23.970 -13.945  0.00  0.00    +0.009 C 
ATOM      5  C   UNL     1      33.587 -23.694 -15.196  0.00  0.00    +0.003 C 
ATOM      6  C   UNL     1      35.007 -23.215 -14.863  0.00  0.00    +0.036 C 
ATOM      7  C   UNL     1      35.735 -24.323 -14.026  0.00  0.00    +0.165 C 
ATOM      8  C   UNL     1      31.414 -24.391 -14.641  0.00  0.00    +0.060 C 
ATOM      9  C   UNL     1      32.685 -22.818 -16.062  0.00  0.00    +0.001 C 
ATOM     10  C   UNL     1      33.415 -25.096 -13.150  0.00  0.00    +0.032 C 
ATOM     11  C   UNL     1      31.265 -23.381 -15.810  0.00  0.00    +0.007 C 
ATOM     12  C   UNL     1      34.887 -24.781 -12.799  0.00  0.00    +0.141 C 
ATOM     13  C   UNL     1      37.240 -23.947 -13.728  0.00  0.00    +0.066 C 
ATOM     14  C   UNL     1      35.783 -22.897 -16.152  0.00  0.00    +0.042 C 
ATOM     15  C   UNL     1      32.503 -22.723 -13.052  0.00  0.00    +0.001 C 
ATOM     16  C   UNL     1      37.235 -22.533 -15.880  0.00  0.00    +0.180 C 
ATOM     17  C   UNL     1      37.907 -23.614 -15.071  0.00  0.00    -0.003 C 
ATOM     18  C   UNL     1      30.682 -24.044 -17.054  0.00  0.00    +0.000 C 
ATOM     19  C   UNL     1      37.412 -22.727 -12.795  0.00  0.00    +0.011 C 
ATOM     20  C   UNL     1      37.943 -25.108 -13.036  0.00  0.00    -0.017 C 
ATOM     21  C   UNL     1      38.990 -24.253 -15.539  0.00  0.00    +0.036 C 
ATOM     22  C   UNL     1      39.019 -25.748 -13.502  0.00  0.00    +0.038 C 
ATOM     23  C   UNL     1      39.627 -25.352 -14.785  0.00  0.00    +0.195 C 
ENDROOT
BRANCH  12  24
ATOM     24  O   UNL     1      34.934 -23.827 -11.749  0.00  0.00    -0.382 OA
ATOM     25  H   UNL     1      35.376 -24.217 -10.978  0.00  0.00    +0.210 HD
ENDBRANCH  12  24
BRANCH   8  27
ATOM     26  O   UNL     1      30.352 -24.354 -12.510  0.00  0.00    -0.293 OA
ATOM     27  C   UNL     1      30.222 -24.396 -13.732  0.00  0.00    +0.180 C 
BRANCH  27  28
ATOM     28  C   UNL     1      28.867 -24.455 -14.403  0.00  0.00    +0.202 C 
BRANCH  28  29
ATOM     29  O   UNL     1      28.284 -25.730 -14.241  0.00  0.00    -0.375 OA
ATOM     30  H   UNL     1      28.564 -26.107 -13.391  0.00  0.00    +0.211 HD
ENDBRANCH  28  29
ENDBRANCH  27  28
ENDBRANCH   8  27
TORSDOF 4
ENDMDL
MODEL 2
REMARK VINA RESULT:      -8.3     18.996     20.684
REMARK  Name = 11954369
REMARK  4 active torsions:
REMARK  status: ('A' for Active; 'I' for Inactive)
REMARK    1  A    between atoms: C_8  and  C_27
REMARK    2  A    between atoms: C_12  and  O_24
REMARK    3  A    between atoms: C_27  and  C_28
REMARK    4  A    between atoms: C_28  and  O_29
REMARK                            x       y       z     vdW  Elec       q    Type
REMARK                         _______ _______ _______ _____ _____    ______ ____
ROOT
ATOM      1  F   UNL     1      31.330  -7.994 -24.345  0.00  0.00    -0.237 F 
ATOM      2  F   UNL     1      35.467  -9.262 -24.709  0.00  0.00    -0.233 F 
ATOM      3  O   UNL     1      32.293 -12.577 -22.983  0.00  0.00    -0.287 OA
ATOM      4  C   UNL     1      31.501  -4.492 -24.296  0.00  0.00    +0.009 C 
ATOM      5  C   UNL     1      32.446  -5.480 -25.006  0.00  0.00    +0.003 C 
ATOM      6  C   UNL     1      33.110  -6.478 -24.045  0.00  0.00    +0.036 C 
ATOM      7  C   UNL     1      31.993  -7.317 -23.334  0.00  0.00    +0.165 C 
ATOM      8  C   UNL     1      31.055  -3.660 -25.523  0.00  0.00    +0.060 C 
ATOM      9  C   UNL     1      33.323  -4.579 -25.872  0.00  0.00    +0.001 C 
ATOM     10  C   UNL     1      30.373  -5.310 -23.642  0.00  0.00    +0.032 C 
ATOM     11  C   UNL     1      32.361  -3.458 -26.337  0.00  0.00    +0.007 C 
ATOM     12  C   UNL     1      30.898  -6.411 -22.692  0.00  0.00    +0.141 C 
ATOM     13  C   UNL     1      32.600  -8.438 -22.400  0.00  0.00    +0.066 C 
ATOM     14  C   UNL     1      34.086  -7.388 -24.807  0.00  0.00    +0.042 C 
ATOM     15  C   UNL     1      32.205  -3.589 -23.249  0.00  0.00    +0.001 C 
ATOM     16  C   UNL     1      34.679  -8.473 -23.920  0.00  0.00    +0.180 C 
ATOM     17  C   UNL     1      33.583  -9.261 -23.247  0.00  0.00    -0.003 C 
ATOM     18  C   UNL     1      32.100  -3.514 -27.839  0.00  0.00    +0.000 C 
ATOM     19  C   UNL     1      33.369  -7.892 -21.176  0.00  0.00    +0.011 C 
ATOM     20  C   UNL     1      31.487  -9.314 -21.841  0.00  0.00    -0.017 C 
ATOM     21  C   UNL     1      33.475 -10.587 -23.429  0.00  0.00    +0.036 C 
ATOM     22  C   UNL     1      31.376 -10.633 -22.023  0.00  0.00    +0.038 C 
ATOM     23  C   UNL     1      32.375 -11.364 -22.822  0.00  0.00    +0.195 C 
ENDROOT
BRANCH  12  24
ATOM     24  O   UNL     1      31.353  -5.821 -21.483  0.00  0.00    -0.382 OA
ATOM     25  H   UNL     1      31.486  -6.512 -20.816  0.00  0.00    +0.210 HD
ENDBRANCH  12  24
BRANCH   8  27
ATOM     26  O   UNL     1      30.647  -1.786 -24.110  0.00  0.00    -0.293 OA
ATOM     27  C   UNL     1      30.395  -2.362 -25.168  0.00  0.00    +0.180 C 
BRANCH  27  28
ATOM     28  C   UNL     1      29.411  -1.811 -26.178  0.00  0.00    +0.202 C 
BRANCH  28  29
ATOM     29  O   UNL     1      28.098  -1.836 -25.661  0.00  0.00    -0.375 OA
ATOM     30  H   UNL     1      28.080  -2.370 -24.852  0.00  0.00    +0.211 HD
ENDBRANCH  28  29
ENDBRANCH  27  28
ENDBRANCH   8  27
TORSDOF 4
ENDMDL
MODEL 3
REMARK VINA RESULT:      -7.0      3.968      6.228
REMARK  Name = 11954369
REMARK  4 active torsions:
REMARK  status: ('A' for Active; 'I' for Inactive)
REMARK    1  A    between atoms: C_8  and  C_27
REMARK    2  A    between atoms: C_12  and  O_24
REMARK    3  A    between atoms: C_27  and  C_28
REMARK    4  A    between atoms: C_28  and  O_29
REMARK                            x       y       z     vdW  Elec       q    Type
REMARK                         _______ _______ _______ _____ _____    ______ ____
ROOT
ATOM      1  F   UNL     1      35.329 -21.701 -15.162  0.00  0.00    -0.237 F 
ATOM      2  F   UNL     1      32.881 -25.254 -14.670  0.00  0.00    -0.233 F 
ATOM      3  O   UNL     1      35.293 -23.677 -10.703  0.00  0.00    -0.287 OA
ATOM      4  C   UNL     1      35.885 -21.507 -18.619  0.00  0.00    +0.009 C 
ATOM      5  C   UNL     1      34.662 -22.089 -17.884  0.00  0.00    +0.003 C 
ATOM      6  C   UNL     1      35.022 -23.234 -16.926  0.00  0.00    +0.036 C 
ATOM      7  C   UNL     1      36.016 -22.696 -15.840  0.00  0.00    +0.165 C 
ATOM      8  C   UNL     1      35.165 -20.440 -19.478  0.00  0.00    +0.060 C 
ATOM      9  C   UNL     1      33.655 -22.338 -19.004  0.00  0.00    +0.001 C 
ATOM     10  C   UNL     1      36.838 -20.929 -17.558  0.00  0.00    +0.032 C 
ATOM     11  C   UNL     1      33.885 -21.160 -19.982  0.00  0.00    +0.007 C 
ATOM     12  C   UNL     1      37.235 -21.959 -16.477  0.00  0.00    +0.141 C 
ATOM     13  C   UNL     1      36.357 -23.792 -14.755  0.00  0.00    +0.066 C 
ATOM     14  C   UNL     1      33.752 -23.810 -16.278  0.00  0.00    +0.042 C 
ATOM     15  C   UNL     1      36.622 -22.530 -19.522  0.00  0.00    +0.001 C 
ATOM     16  C   UNL     1      34.066 -24.868 -15.229  0.00  0.00    +0.180 C 
ATOM     17  C   UNL     1      35.026 -24.323 -14.201  0.00  0.00    -0.003 C 
ATOM     18  C   UNL     1      32.691 -20.213 -20.030  0.00  0.00    +0.000 C 
ATOM     19  C   UNL     1      37.159 -24.995 -15.303  0.00  0.00    +0.011 C 
ATOM     20  C   UNL     1      37.211 -23.186 -13.649  0.00  0.00    -0.017 C 
ATOM     21  C   UNL     1      34.694 -24.280 -12.902  0.00  0.00    +0.036 C 
ATOM     22  C   UNL     1      36.881 -23.139 -12.355  0.00  0.00    +0.038 C 
ATOM     23  C   UNL     1      35.599 -23.699 -11.890  0.00  0.00    +0.195 C 
ENDROOT
BRANCH  12  24
ATOM     24  O   UNL     1      38.175 -22.877 -17.014  0.00  0.00    -0.382 OA
ATOM     25  H   UNL     1      38.945 -22.391 -17.350  0.00  0.00    +0.210 HD
ENDBRANCH  12  24
BRANCH   8  27
ATOM     26  O   UNL     1      37.145 -19.499 -20.409  0.00  0.00    -0.293 OA
ATOM     27  C   UNL     1      35.999 -19.901 -20.602  0.00  0.00    +0.180 C 
BRANCH  27  28
ATOM     28  C   UNL     1      35.351 -19.883 -21.970  0.00  0.00    +0.202 C 
BRANCH  28  29
ATOM     29  O   UNL     1      34.912 -18.582 -22.297  0.00  0.00    -0.375 OA
ATOM     30  H   UNL     1      35.606 -17.942 -22.074  0.00  0.00    +0.211 HD
ENDBRANCH  28  29
ENDBRANCH  27  28
ENDBRANCH   8  27
TORSDOF 4
ENDMDL
MODEL 4
REMARK VINA RESULT:      -7.0     14.216     16.051
REMARK  Name = 11954369
REMARK  4 active torsions:
REMARK  status: ('A' for Active; 'I' for Inactive)
REMARK    1  A    between atoms: C_8  and  C_27
REMARK    2  A    between atoms: C_12  and  O_24
REMARK    3  A    between atoms: C_27  and  C_28
REMARK    4  A    between atoms: C_28  and  O_29
REMARK                            x       y       z     vdW  Elec       q    Type
REMARK                         _______ _______ _______ _____ _____    ______ ____
ROOT
ATOM      1  F   UNL     1      34.740 -12.627 -22.450  0.00  0.00    -0.237 F 
ATOM      2  F   UNL     1      31.656 -14.879 -20.383  0.00  0.00    -0.233 F 
ATOM      3  O   UNL     1      35.491 -17.431 -22.063  0.00  0.00    -0.287 OA
ATOM      4  C   UNL     1      33.140  -9.662 -23.425  0.00  0.00    +0.009 C 
ATOM      5  C   UNL     1      32.848 -10.540 -22.192  0.00  0.00    +0.003 C 
ATOM      6  C   UNL     1      32.474 -11.984 -22.553  0.00  0.00    +0.036 C 
ATOM      7  C   UNL     1      33.668 -12.640 -23.329  0.00  0.00    +0.165 C 
ATOM      8  C   UNL     1      33.443  -8.326 -22.705  0.00  0.00    +0.060 C 
ATOM      9  C   UNL     1      31.874  -9.696 -21.374  0.00  0.00    +0.001 C 
ATOM     10  C   UNL     1      34.347 -10.274 -24.159  0.00  0.00    +0.032 C 
ATOM     11  C   UNL     1      32.363  -8.244 -21.592  0.00  0.00    +0.007 C 
ATOM     12  C   UNL     1      34.140 -11.760 -24.528  0.00  0.00    +0.141 C 
ATOM     13  C   UNL     1      33.401 -14.164 -23.650  0.00  0.00    +0.066 C 
ATOM     14  C   UNL     1      32.134 -12.784 -21.284  0.00  0.00    +0.042 C 
ATOM     15  C   UNL     1      31.932  -9.506 -24.385  0.00  0.00    +0.001 C 
ATOM     16  C   UNL     1      31.874 -14.254 -21.578  0.00  0.00    +0.180 C 
ATOM     17  C   UNL     1      33.036 -14.856 -22.328  0.00  0.00    -0.003 C 
ATOM     18  C   UNL     1      32.921  -7.628 -20.313  0.00  0.00    +0.000 C 
ATOM     19  C   UNL     1      32.245 -14.405 -24.649  0.00  0.00    +0.011 C 
ATOM     20  C   UNL     1      34.637 -14.792 -24.278  0.00  0.00    -0.017 C 
ATOM     21  C   UNL     1      33.712 -15.901 -21.827  0.00  0.00    +0.036 C 
ATOM     22  C   UNL     1      35.315 -15.831 -23.780  0.00  0.00    +0.038 C 
ATOM     23  C   UNL     1      34.887 -16.467 -22.521  0.00  0.00    +0.195 C 
ENDROOT
BRANCH  12  24
ATOM     24  O   UNL     1      33.250 -11.859 -25.629  0.00  0.00    -0.382 OA
ATOM     25  H   UNL     1      33.396 -12.701 -26.089  0.00  0.00    +0.210 HD
ENDBRANCH  12  24
BRANCH   8  27
ATOM     26  O   UNL     1      34.330  -6.930 -24.418  0.00  0.00    -0.293 OA
ATOM     27  C   UNL     1      33.425  -7.132 -23.610  0.00  0.00    +0.180 C 
BRANCH  27  28
ATOM     28  C   UNL     1      32.240  -6.201 -23.470  0.00  0.00    +0.202 C 
BRANCH  28  29
ATOM     29  O   UNL     1      31.641  -5.963 -24.726  0.00  0.00    -0.375 OA
ATOM     30  H   UNL     1      32.280  -5.526 -25.311  0.00  0.00    +0.211 HD
ENDBRANCH  28  29
ENDBRANCH  27  28
ENDBRANCH   8  27
TORSDOF 4
ENDMDL
MODEL 5
REMARK VINA RESULT:      -6.9     10.054     11.882
REMARK  Name = 11954369
REMARK  4 active torsions:
REMARK  status: ('A' for Active; 'I' for Inactive)
REMARK    1  A    between atoms: C_8  and  C_27
REMARK    2  A    between atoms: C_12  and  O_24
REMARK    3  A    between atoms: C_27  and  C_28
REMARK    4  A    between atoms: C_28  and  O_29
REMARK                            x       y       z     vdW  Elec       q    Type
REMARK                         _______ _______ _______ _____ _____    ______ ____
ROOT
ATOM      1  F   UNL     1      35.376 -16.945 -20.761  0.00  0.00    -0.237 F 
ATOM      2  F   UNL     1      32.260 -19.775 -19.696  0.00  0.00    -0.233 F 
ATOM      3  O   UNL     1      36.888 -21.331 -19.259  0.00  0.00    -0.287 OA
ATOM      4  C   UNL     1      33.751 -14.595 -22.796  0.00  0.00    +0.009 C 
ATOM      5  C   UNL     1      33.158 -15.424 -21.639  0.00  0.00    +0.003 C 
ATOM      6  C   UNL     1      33.286 -16.938 -21.853  0.00  0.00    +0.036 C 
ATOM      7  C   UNL     1      34.805 -17.308 -21.971  0.00  0.00    +0.165 C 
ATOM      8  C   UNL     1      33.431 -13.177 -22.266  0.00  0.00    +0.060 C 
ATOM      9  C   UNL     1      31.775 -14.811 -21.432  0.00  0.00    +0.001 C 
ATOM     10  C   UNL     1      35.254 -14.916 -22.878  0.00  0.00    +0.032 C 
ATOM     11  C   UNL     1      31.991 -13.301 -21.698  0.00  0.00    +0.007 C 
ATOM     12  C   UNL     1      35.542 -16.427 -23.027  0.00  0.00    +0.141 C 
ATOM     13  C   UNL     1      35.027 -18.868 -22.093  0.00  0.00    +0.066 C 
ATOM     14  C   UNL     1      32.619 -17.702 -20.697  0.00  0.00    +0.042 C 
ATOM     15  C   UNL     1      33.059 -14.838 -24.162  0.00  0.00    +0.001 C 
ATOM     16  C   UNL     1      32.825 -19.206 -20.802  0.00  0.00    +0.180 C 
ATOM     17  C   UNL     1      34.293 -19.531 -20.918  0.00  0.00    -0.003 C 
ATOM     18  C   UNL     1      31.813 -12.465 -20.435  0.00  0.00    +0.000 C 
ATOM     19  C   UNL     1      34.482 -19.482 -23.403  0.00  0.00    +0.011 C 
ATOM     20  C   UNL     1      36.515 -19.189 -22.065  0.00  0.00    -0.017 C 
ATOM     21  C   UNL     1      34.898 -20.318 -20.014  0.00  0.00    +0.036 C 
ATOM     22  C   UNL     1      37.121 -19.969 -21.165  0.00  0.00    +0.038 C 
ATOM     23  C   UNL     1      36.346 -20.600 -20.081  0.00  0.00    +0.195 C 
ENDROOT
BRANCH  12  24
ATOM     24  O   UNL     1      35.244 -16.842 -24.351  0.00  0.00    -0.382 OA
ATOM     25  H   UNL     1      35.901 -17.493 -24.641  0.00  0.00    +0.210 HD
ENDBRANCH  12  24
BRANCH   8  27
ATOM     26  O   UNL     1      34.284 -12.232 -24.279  0.00  0.00    -0.293 OA
ATOM     27  C   UNL     1      33.545 -12.101 -23.304  0.00  0.00    +0.180 C 
BRANCH  27  28
ATOM     28  C   UNL     1      32.707 -10.861 -23.081  0.00  0.00    +0.202 C 
BRANCH  28  29
ATOM     29  O   UNL     1      33.461  -9.696 -23.341  0.00  0.00    -0.375 OA
ATOM     30  H   UNL     1      34.399  -9.929 -23.422  0.00  0.00    +0.211 HD
ENDBRANCH  28  29
ENDBRANCH  27  28
ENDBRANCH   8  27
TORSDOF 4
ENDMDL
MODEL 6
REMARK VINA RESULT:      -6.8     11.432     13.456
REMARK  Name = 11954369
REMARK  4 active torsions:
REMARK  status: ('A' for Active; 'I' for Inactive)
REMARK    1  A    between atoms: C_8  and  C_27
REMARK    2  A    between atoms: C_12  and  O_24
REMARK    3  A    between atoms: C_27  and  C_28
REMARK    4  A    between atoms: C_28  and  O_29
REMARK                            x       y       z     vdW  Elec       q    Type
REMARK                         _______ _______ _______ _____ _____    ______ ____
ROOT
ATOM      1  F   UNL     1      35.418 -14.352 -23.920  0.00  0.00    -0.237 F 
ATOM      2  F   UNL     1      32.758 -14.177 -27.347  0.00  0.00    -0.233 F 
ATOM      3  O   UNL     1      34.958  -9.991 -26.054  0.00  0.00    -0.287 OA
ATOM      4  C   UNL     1      34.424 -17.244 -22.201  0.00  0.00    +0.009 C 
ATOM      5  C   UNL     1      34.355 -16.966 -23.716  0.00  0.00    +0.003 C 
ATOM      6  C   UNL     1      33.512 -15.732 -24.066  0.00  0.00    +0.036 C 
ATOM      7  C   UNL     1      34.146 -14.472 -23.382  0.00  0.00    +0.165 C 
ATOM      8  C   UNL     1      35.298 -18.521 -22.229  0.00  0.00    +0.060 C 
ATOM      9  C   UNL     1      33.982 -18.321 -24.312  0.00  0.00    +0.001 C 
ATOM     10  C   UNL     1      35.096 -16.031 -21.534  0.00  0.00    +0.032 C 
ATOM     11  C   UNL     1      34.731 -19.341 -23.420  0.00  0.00    +0.007 C 
ATOM     12  C   UNL     1      34.390 -14.694 -21.857  0.00  0.00    +0.141 C 
ATOM     13  C   UNL     1      33.392 -13.141 -23.776  0.00  0.00    +0.066 C 
ATOM     14  C   UNL     1      33.431 -15.552 -25.591  0.00  0.00    +0.042 C 
ATOM     15  C   UNL     1      33.046 -17.537 -21.552  0.00  0.00    +0.001 C 
ATOM     16  C   UNL     1      32.707 -14.273 -25.986  0.00  0.00    +0.180 C 
ATOM     17  C   UNL     1      33.336 -13.080 -25.310  0.00  0.00    -0.003 C 
ATOM     18  C   UNL     1      35.838 -20.065 -24.180  0.00  0.00    +0.000 C 
ATOM     19  C   UNL     1      31.943 -13.055 -23.244  0.00  0.00    +0.011 C 
ATOM     20  C   UNL     1      34.123 -11.935 -23.203  0.00  0.00    -0.017 C 
ATOM     21  C   UNL     1      33.842 -12.067 -26.031  0.00  0.00    +0.036 C 
ATOM     22  C   UNL     1      34.630 -10.927 -23.919  0.00  0.00    +0.038 C 
ATOM     23  C   UNL     1      34.511 -10.919 -25.387  0.00  0.00    +0.195 C 
ENDROOT
BRANCH  12  24
ATOM     24  O   UNL     1      33.182 -14.602 -21.117  0.00  0.00    -0.382 OA
ATOM     25  H   UNL     1      33.365 -14.760 -20.178  0.00  0.00    +0.210 HD
ENDBRANCH  12  24
BRANCH   8  27
ATOM     26  O   UNL     1      36.214 -19.210 -20.141  0.00  0.00    -0.293 OA
ATOM     27  C   UNL     1      35.285 -19.293 -20.944  0.00  0.00    +0.180 C 
BRANCH  27  28
ATOM     28  C   UNL     1      34.076 -20.169 -20.699  0.00  0.00    +0.202 C 
BRANCH  28  29
ATOM     29  O   UNL     1      34.331 -21.095 -19.665  0.00  0.00    -0.375 OA
ATOM     30  H   UNL     1      35.276 -21.317 -19.656  0.00  0.00    +0.211 HD
ENDBRANCH  28  29
ENDBRANCH  27  28
ENDBRANCH   8  27
TORSDOF 4
ENDMDL
MODEL 7
REMARK VINA RESULT:      -6.7     10.721     12.572
REMARK  Name = 11954369
REMARK  4 active torsions:
REMARK  status: ('A' for Active; 'I' for Inactive)
REMARK    1  A    between atoms: C_8  and  C_27
REMARK    2  A    between atoms: C_12  and  O_24
REMARK    3  A    between atoms: C_27  and  C_28
REMARK    4  A    between atoms: C_28  and  O_29
REMARK                            x       y       z     vdW  Elec       q    Type
REMARK                         _______ _______ _______ _____ _____    ______ ____
ROOT
ATOM      1  F   UNL     1      35.227 -16.124 -21.188  0.00  0.00    -0.237 F 
ATOM      2  F   UNL     1      32.316 -19.045 -19.829  0.00  0.00    -0.233 F 
ATOM      3  O   UNL     1      36.973 -20.549 -20.117  0.00  0.00    -0.287 OA
ATOM      4  C   UNL     1      33.311 -13.711 -22.864  0.00  0.00    +0.009 C 
ATOM      5  C   UNL     1      32.894 -14.599 -21.676  0.00  0.00    +0.003 C 
ATOM      6  C   UNL     1      33.004 -16.100 -21.975  0.00  0.00    +0.036 C 
ATOM      7  C   UNL     1      34.495 -16.442 -22.322  0.00  0.00    +0.165 C 
ATOM      8  C   UNL     1      33.056 -12.322 -22.230  0.00  0.00    +0.060 C 
ATOM      9  C   UNL     1      31.549 -14.017 -21.248  0.00  0.00    +0.001 C 
ATOM     10  C   UNL     1      34.791 -14.005 -23.171  0.00  0.00    +0.032 C 
ATOM     11  C   UNL     1      31.712 -12.494 -21.472  0.00  0.00    +0.007 C 
ATOM     12  C   UNL     1      35.068 -15.504 -23.429  0.00  0.00    +0.141 C 
ATOM     13  C   UNL     1      34.711 -17.991 -22.546  0.00  0.00    +0.066 C 
ATOM     14  C   UNL     1      32.513 -16.925 -20.774  0.00  0.00    +0.042 C 
ATOM     15  C   UNL     1      32.436 -13.903 -24.130  0.00  0.00    +0.001 C 
ATOM     16  C   UNL     1      32.715 -18.420 -20.976  0.00  0.00    +0.180 C 
ATOM     17  C   UNL     1      34.155 -18.717 -21.311  0.00  0.00    -0.003 C 
ATOM     18  C   UNL     1      31.706 -11.717 -20.159  0.00  0.00    +0.000 C 
ATOM     19  C   UNL     1      33.992 -18.554 -23.793  0.00  0.00    +0.011 C 
ATOM     20  C   UNL     1      36.191 -18.291 -22.741  0.00  0.00    -0.017 C 
ATOM     21  C   UNL     1      34.888 -19.534 -20.539  0.00  0.00    +0.036 C 
ATOM     22  C   UNL     1      36.924 -19.101 -21.972  0.00  0.00    +0.038 C 
ATOM     23  C   UNL     1      36.315 -19.791 -20.821  0.00  0.00    +0.195 C 
ENDROOT
BRANCH  12  24
ATOM     24  O   UNL     1      34.590 -15.864 -24.715  0.00  0.00    -0.382 OA
ATOM     25  H   UNL     1      35.243 -15.609 -25.386  0.00  0.00    +0.210 HD
ENDBRANCH  12  24
BRANCH   8  27
ATOM     26  O   UNL     1      32.106 -10.371 -23.212  0.00  0.00    -0.293 OA
ATOM     27  C   UNL     1      33.015 -11.200 -23.223  0.00  0.00    +0.180 C 
BRANCH  27  28
ATOM     28  C   UNL     1      34.145 -11.151 -24.229  0.00  0.00    +0.202 C 
BRANCH  28  29
ATOM     29  O   UNL     1      35.068 -10.136 -23.893  0.00  0.00    -0.375 OA
ATOM     30  H   UNL     1      35.634 -10.442 -23.167  0.00  0.00    +0.211 HD
ENDBRANCH  28  29
ENDBRANCH  27  28
ENDBRANCH   8  27
TORSDOF 4
ENDMDL
MODEL 8
REMARK VINA RESULT:      -6.2      3.639      6.345
REMARK  Name = 11954369
REMARK  4 active torsions:
REMARK  status: ('A' for Active; 'I' for Inactive)
REMARK    1  A    between atoms: C_8  and  C_27
REMARK    2  A    between atoms: C_12  and  O_24
REMARK    3  A    between atoms: C_27  and  C_28
REMARK    4  A    between atoms: C_28  and  O_29
REMARK                            x       y       z     vdW  Elec       q    Type
REMARK                         _______ _______ _______ _____ _____    ______ ____
ROOT
ATOM      1  F   UNL     1      34.373 -20.987 -17.294  0.00  0.00    -0.237 F 
ATOM      2  F   UNL     1      37.812 -20.856 -19.941  0.00  0.00    -0.233 F 
ATOM      3  O   UNL     1      33.726 -18.661 -21.531  0.00  0.00    -0.287 OA
ATOM      4  C   UNL     1      35.046 -23.668 -15.135  0.00  0.00    +0.009 C 
ATOM      5  C   UNL     1      36.053 -22.730 -15.830  0.00  0.00    +0.003 C 
ATOM      6  C   UNL     1      35.939 -22.748 -17.360  0.00  0.00    +0.036 C 
ATOM      7  C   UNL     1      34.498 -22.284 -17.769  0.00  0.00    +0.165 C 
ATOM      8  C   UNL     1      35.456 -23.416 -13.664  0.00  0.00    +0.060 C 
ATOM      9  C   UNL     1      37.385 -23.085 -15.174  0.00  0.00    +0.001 C 
ATOM     10  C   UNL     1      33.630 -23.181 -15.491  0.00  0.00    +0.032 C 
ATOM     11  C   UNL     1      37.008 -23.390 -13.703  0.00  0.00    +0.007 C 
ATOM     12  C   UNL     1      33.390 -23.082 -17.015  0.00  0.00    +0.141 C 
ATOM     13  C   UNL     1      34.332 -22.179 -19.337  0.00  0.00    +0.066 C 
ATOM     14  C   UNL     1      37.011 -21.844 -17.989  0.00  0.00    +0.042 C 
ATOM     15  C   UNL     1      35.223 -25.164 -15.504  0.00  0.00    +0.001 C 
ATOM     16  C   UNL     1      36.863 -21.734 -19.500  0.00  0.00    +0.180 C 
ATOM     17  C   UNL     1      35.468 -21.289 -19.862  0.00  0.00    -0.003 C 
ATOM     18  C   UNL     1      37.575 -22.353 -12.739  0.00  0.00    +0.000 C 
ATOM     19  C   UNL     1      34.412 -23.537 -20.071  0.00  0.00    +0.011 C 
ATOM     20  C   UNL     1      32.969 -21.594 -19.681  0.00  0.00    -0.017 C 
ATOM     21  C   UNL     1      35.264 -20.163 -20.564  0.00  0.00    +0.036 C 
ATOM     22  C   UNL     1      32.763 -20.472 -20.376  0.00  0.00    +0.038 C 
ATOM     23  C   UNL     1      33.903 -19.684 -20.878  0.00  0.00    +0.195 C 
ENDROOT
BRANCH  12  24
ATOM     24  O   UNL     1      33.224 -24.382 -17.557  0.00  0.00    -0.382 OA
ATOM     25  H   UNL     1      33.532 -24.391 -18.477  0.00  0.00    +0.210 HD
ENDBRANCH  12  24
BRANCH   8  27
ATOM     26  O   UNL     1      33.725 -24.706 -12.657  0.00  0.00    -0.293 OA
ATOM     27  C   UNL     1      34.924 -24.437 -12.703  0.00  0.00    +0.180 C 
BRANCH  27  28
ATOM     28  C   UNL     1      35.942 -25.105 -11.804  0.00  0.00    +0.202 C 
BRANCH  28  29
ATOM     29  O   UNL     1      35.478 -25.147 -10.471  0.00  0.00    -0.375 OA
ATOM     30  H   UNL     1      34.785 -25.821 -10.390  0.00  0.00    +0.211 HD
ENDBRANCH  28  29
ENDBRANCH  27  28
ENDBRANCH   8  27
TORSDOF 4
ENDMDL
MODEL 9
REMARK VINA RESULT:      -5.9      2.244      6.988
REMARK  Name = 11954369
REMARK  4 active torsions:
REMARK  status: ('A' for Active; 'I' for Inactive)
REMARK    1  A    between atoms: C_8  and  C_27
REMARK    2  A    between atoms: C_12  and  O_24
REMARK    3  A    between atoms: C_27  and  C_28
REMARK    4  A    between atoms: C_28  and  O_29
REMARK                            x       y       z     vdW  Elec       q    Type
REMARK                         _______ _______ _______ _____ _____    ______ ____
ROOT
ATOM      1  F   UNL     1      32.507 -22.330 -14.326  0.00  0.00    -0.237 F 
ATOM      2  F   UNL     1      31.254 -22.124 -18.478  0.00  0.00    -0.233 F 
ATOM      3  O   UNL     1      27.758 -21.529 -15.093  0.00  0.00    -0.287 OA
ATOM      4  C   UNL     1      35.566 -24.042 -14.430  0.00  0.00    +0.009 C 
ATOM      5  C   UNL     1      34.952 -23.125 -15.506  0.00  0.00    +0.003 C 
ATOM      6  C   UNL     1      33.578 -23.603 -15.996  0.00  0.00    +0.036 C 
ATOM      7  C   UNL     1      32.588 -23.637 -14.781  0.00  0.00    +0.165 C 
ATOM      8  C   UNL     1      36.901 -23.292 -14.205  0.00  0.00    +0.060 C 
ATOM      9  C   UNL     1      36.086 -22.945 -16.513  0.00  0.00    +0.001 C 
ATOM     10  C   UNL     1      34.622 -24.034 -13.214  0.00  0.00    +0.032 C 
ATOM     11  C   UNL     1      37.361 -22.902 -15.636  0.00  0.00    +0.007 C 
ATOM     12  C   UNL     1      33.172 -24.432 -13.572  0.00  0.00    +0.141 C 
ATOM     13  C   UNL     1      31.122 -24.025 -15.223  0.00  0.00    +0.066 C 
ATOM     14  C   UNL     1      33.056 -22.682 -17.110  0.00  0.00    +0.042 C 
ATOM     15  C   UNL     1      35.828 -25.492 -14.915  0.00  0.00    +0.001 C 
ATOM     16  C   UNL     1      31.643 -23.044 -17.546  0.00  0.00    +0.180 C 
ATOM     17  C   UNL     1      30.715 -23.072 -16.357  0.00  0.00    -0.003 C 
ATOM     18  C   UNL     1      38.026 -21.530 -15.656  0.00  0.00    +0.000 C 
ATOM     19  C   UNL     1      30.982 -25.473 -15.744  0.00  0.00    +0.011 C 
ATOM     20  C   UNL     1      30.170 -23.910 -14.039  0.00  0.00    -0.017 C 
ATOM     21  C   UNL     1      29.636 -22.275 -16.306  0.00  0.00    +0.036 C 
ATOM     22  C   UNL     1      29.097 -23.115 -13.984  0.00  0.00    +0.038 C 
ATOM     23  C   UNL     1      28.749 -22.250 -15.125  0.00  0.00    +0.195 C 
ENDROOT
BRANCH  12  24
ATOM     24  O   UNL     1      33.101 -25.833 -13.787  0.00  0.00    -0.382 OA
ATOM     25  H   UNL     1      33.609 -26.065 -14.580  0.00  0.00    +0.210 HD
ENDBRANCH  12  24
BRANCH   8  27
ATOM     26  O   UNL     1      38.855 -24.648 -14.068  0.00  0.00    -0.293 OA
ATOM     27  C   UNL     1      37.932 -24.095 -13.471  0.00  0.00    +0.180 C 
BRANCH  27  28
ATOM     28  C   UNL     1      37.769 -24.184 -11.968  0.00  0.00    +0.202 C 
BRANCH  28  29
ATOM     29  O   UNL     1      37.804 -22.898 -11.386  0.00  0.00    -0.375 OA
ATOM     30  H   UNL     1      38.676 -22.747 -10.989  0.00  0.00    +0.211 HD
ENDBRANCH  28  29
ENDBRANCH  27  28
ENDBRANCH   8  27
TORSDOF 4
ENDMDL
