MODEL 1
REMARK VINA RESULT:      -9.3      0.000      0.000
REMARK  Name = 3000505
REMARK  8 active torsions:
REMARK  status: ('A' for Active; 'I' for Inactive)
REMARK    1  A    between atoms: N_1  and  C_4
REMARK    2  A    between atoms: N_1  and  C_15
REMARK    3  A    between atoms: C_4  and  N_5
REMARK    4  A    between atoms: C_10  and  C_14
REMARK    5  A    between atoms: C_15  and  C_16
REMARK    6  A    between atoms: C_16  and  C_19
REMARK    7  A    between atoms: C_21  and  O_24
REMARK    8  A    between atoms: O_24  and  C_25
REMARK                            x       y       z     vdW  Elec       q    Type
REMARK                         _______ _______ _______ _____ _____    ______ ____
ROOT
ATOM      1  N   UNL     1      35.694 -17.241 -23.190  0.00  0.00    -0.315 N 
ATOM      2  H   UNL     1      36.312 -16.506 -22.977  0.00  0.00    +0.148 HD
ENDROOT
BRANCH   1   4
ATOM      3  S   UNL     1      34.308 -18.333 -25.126  0.00  0.00    -0.019 S 
ATOM      4  C   UNL     1      34.781 -17.007 -24.211  0.00  0.00    +0.136 C 
BRANCH   4   5
ATOM      5  N   UNL     1      34.397 -15.667 -24.371  0.00  0.00    -0.281 N 
ATOM      6  N   UNL     1      33.346 -15.193 -22.305  0.00  0.00    -0.228 NA
ATOM      7  C   UNL     1      33.691 -14.782 -23.547  0.00  0.00    +0.133 C 
ATOM      8  C   UNL     1      33.390 -13.532 -24.062  0.00  0.00    +0.035 C 
ATOM      9  C   UNL     1      32.691 -12.644 -23.251  0.00  0.00    +0.015 C 
ATOM     10  C   UNL     1      32.319 -13.030 -21.966  0.00  0.00    +0.088 C 
ATOM     11  C   UNL     1      32.667 -14.304 -21.546  0.00  0.00    +0.111 C 
ATOM     12  H   UNL     1      34.677 -15.273 -25.228  0.00  0.00    +0.155 HD
BRANCH  10  14
ATOM     13  N   UNL     1      31.012 -11.419 -20.414  0.00  0.00    -0.191 NA
ATOM     14  C   UNL     1      31.600 -12.144 -21.112  0.00  0.00    +0.102 C 
ENDBRANCH  10  14
ENDBRANCH   4   5
ENDBRANCH   1   4
BRANCH   1  15
ATOM     15  C   UNL     1      35.835 -18.453 -22.404  0.00  0.00    +0.095 C 
BRANCH  15  16
ATOM     16  C   UNL     1      34.624 -18.719 -21.513  0.00  0.00    +0.069 C 
BRANCH  16  19
ATOM     17  F   UNL     1      32.463 -20.230 -20.516  0.00  0.00    -0.200 F 
ATOM     18  N   UNL     1      36.086 -20.210 -20.291  0.00  0.00    -0.246 NA
ATOM     19  C   UNL     1      34.814 -19.908 -20.603  0.00  0.00    +0.091 C 
ATOM     20  C   UNL     1      33.702 -20.590 -20.160  0.00  0.00    +0.187 C 
ATOM     21  C   UNL     1      33.914 -21.680 -19.322  0.00  0.00    +0.169 C 
ATOM     22  C   UNL     1      35.211 -22.035 -18.968  0.00  0.00    +0.060 C 
ATOM     23  C   UNL     1      36.253 -21.275 -19.475  0.00  0.00    +0.102 C 
BRANCH  21  24
ATOM     24  O   UNL     1      32.858 -22.398 -18.852  0.00  0.00    -0.473 OA
BRANCH  24  25
ATOM     25  C   UNL     1      33.069 -23.161 -17.664  0.00  0.00    +0.206 C 
ATOM     26  C   UNL     1      31.846 -23.042 -16.780  0.00  0.00    +0.051 C 
ENDBRANCH  24  25
ENDBRANCH  21  24
ENDBRANCH  16  19
ENDBRANCH  15  16
ENDBRANCH   1  15
TORSDOF 8
ENDMDL
MODEL 2
REMARK VINA RESULT:      -9.2      5.228     10.640
REMARK  Name = 3000505
REMARK  8 active torsions:
REMARK  status: ('A' for Active; 'I' for Inactive)
REMARK    1  A    between atoms: N_1  and  C_4
REMARK    2  A    between atoms: N_1  and  C_15
REMARK    3  A    between atoms: C_4  and  N_5
REMARK    4  A    between atoms: C_10  and  C_14
REMARK    5  A    between atoms: C_15  and  C_16
REMARK    6  A    between atoms: C_16  and  C_19
REMARK    7  A    between atoms: C_21  and  O_24
REMARK    8  A    between atoms: O_24  and  C_25
REMARK                            x       y       z     vdW  Elec       q    Type
REMARK                         _______ _______ _______ _____ _____    ______ ____
ROOT
ATOM      1  N   UNL     1      34.138 -23.065 -16.232  0.00  0.00    -0.315 N 
ATOM      2  H   UNL     1      34.860 -22.402 -16.321  0.00  0.00    +0.148 HD
ENDROOT
BRANCH   1   4
ATOM      3  S   UNL     1      32.177 -23.756 -14.639  0.00  0.00    -0.019 S 
ATOM      4  C   UNL     1      33.799 -23.439 -14.937  0.00  0.00    +0.136 C 
BRANCH   4   5
ATOM      5  N   UNL     1      34.864 -23.468 -14.026  0.00  0.00    -0.281 N 
ATOM      6  N   UNL     1      36.512 -24.681 -15.213  0.00  0.00    -0.228 NA
ATOM      7  C   UNL     1      36.131 -24.062 -14.071  0.00  0.00    +0.133 C 
ATOM      8  C   UNL     1      36.919 -23.977 -12.935  0.00  0.00    +0.035 C 
ATOM      9  C   UNL     1      38.180 -24.564 -12.971  0.00  0.00    +0.015 C 
ATOM     10  C   UNL     1      38.607 -25.209 -14.128  0.00  0.00    +0.088 C 
ATOM     11  C   UNL     1      37.743 -25.239 -15.210  0.00  0.00    +0.111 C 
ATOM     12  H   UNL     1      34.688 -22.974 -13.193  0.00  0.00    +0.155 HD
BRANCH  10  14
ATOM     13  N   UNL     1      40.944 -26.323 -14.249  0.00  0.00    -0.191 NA
ATOM     14  C   UNL     1      39.893 -25.822 -14.194  0.00  0.00    +0.102 C 
ENDBRANCH  10  14
ENDBRANCH   4   5
ENDBRANCH   1   4
BRANCH   1  15
ATOM     15  C   UNL     1      33.544 -23.544 -17.465  0.00  0.00    +0.095 C 
BRANCH  15  16
ATOM     16  C   UNL     1      33.083 -22.408 -18.375  0.00  0.00    +0.069 C 
BRANCH  16  19
ATOM     17  F   UNL     1      32.687 -20.508 -20.419  0.00  0.00    -0.200 F 
ATOM     18  N   UNL     1      35.458 -22.037 -18.641  0.00  0.00    -0.246 NA
ATOM     19  C   UNL     1      34.226 -21.704 -19.063  0.00  0.00    +0.091 C 
ATOM     20  C   UNL     1      33.944 -20.789 -20.053  0.00  0.00    +0.187 C 
ATOM     21  C   UNL     1      35.022 -20.160 -20.666  0.00  0.00    +0.169 C 
ATOM     22  C   UNL     1      36.318 -20.468 -20.268  0.00  0.00    +0.060 C 
ATOM     23  C   UNL     1      36.481 -21.405 -19.260  0.00  0.00    +0.102 C 
BRANCH  21  24
ATOM     24  O   UNL     1      34.812 -19.244 -21.651  0.00  0.00    -0.473 OA
BRANCH  24  25
ATOM     25  C   UNL     1      35.663 -18.099 -21.665  0.00  0.00    +0.206 C 
ATOM     26  C   UNL     1      34.944 -16.944 -21.000  0.00  0.00    +0.051 C 
ENDBRANCH  24  25
ENDBRANCH  21  24
ENDBRANCH  16  19
ENDBRANCH  15  16
ENDBRANCH   1  15
TORSDOF 8
ENDMDL
MODEL 3
REMARK VINA RESULT:      -9.1      3.682      8.783
REMARK  Name = 3000505
REMARK  8 active torsions:
REMARK  status: ('A' for Active; 'I' for Inactive)
REMARK    1  A    between atoms: N_1  and  C_4
REMARK    2  A    between atoms: N_1  and  C_15
REMARK    3  A    between atoms: C_4  and  N_5
REMARK    4  A    between atoms: C_10  and  C_14
REMARK    5  A    between atoms: C_15  and  C_16
REMARK    6  A    between atoms: C_16  and  C_19
REMARK    7  A    between atoms: C_21  and  O_24
REMARK    8  A    between atoms: O_24  and  C_25
REMARK                            x       y       z     vdW  Elec       q    Type
REMARK                         _______ _______ _______ _____ _____    ______ ____
ROOT
ATOM      1  N   UNL     1      34.944 -15.382 -22.725  0.00  0.00    -0.315 N 
ATOM      2  H   UNL     1      35.568 -14.665 -22.981  0.00  0.00    +0.148 HD
ENDROOT
BRANCH   1   4
ATOM      3  S   UNL     1      34.565 -16.721 -24.944  0.00  0.00    -0.019 S 
ATOM      4  C   UNL     1      35.114 -16.605 -23.361  0.00  0.00    +0.136 C 
BRANCH   4   5
ATOM      5  N   UNL     1      35.697 -17.610 -22.575  0.00  0.00    -0.281 N 
ATOM      6  N   UNL     1      33.808 -18.790 -21.781  0.00  0.00    -0.228 NA
ATOM      7  C   UNL     1      35.150 -18.626 -21.782  0.00  0.00    +0.133 C 
ATOM      8  C   UNL     1      36.027 -19.403 -21.044  0.00  0.00    +0.035 C 
ATOM      9  C   UNL     1      35.494 -20.416 -20.253  0.00  0.00    +0.015 C 
ATOM     10  C   UNL     1      34.117 -20.616 -20.226  0.00  0.00    +0.088 C 
ATOM     11  C   UNL     1      33.326 -19.784 -21.001  0.00  0.00    +0.111 C 
ATOM     12  H   UNL     1      36.681 -17.600 -22.583  0.00  0.00    +0.155 HD
BRANCH  10  14
ATOM     13  N   UNL     1      33.068 -22.485 -18.770  0.00  0.00    -0.191 NA
ATOM     14  C   UNL     1      33.540 -21.644 -19.425  0.00  0.00    +0.102 C 
ENDBRANCH  10  14
ENDBRANCH   4   5
ENDBRANCH   1   4
BRANCH   1  15
ATOM     15  C   UNL     1      33.948 -15.047 -21.725  0.00  0.00    +0.095 C 
BRANCH  15  16
ATOM     16  C   UNL     1      32.668 -14.484 -22.337  0.00  0.00    +0.069 C 
BRANCH  16  19
ATOM     17  F   UNL     1      31.198 -12.371 -21.188  0.00  0.00    -0.200 F 
ATOM     18  N   UNL     1      33.693 -12.837 -23.784  0.00  0.00    -0.246 NA
ATOM     19  C   UNL     1      32.812 -13.051 -22.790  0.00  0.00    +0.091 C 
ATOM     20  C   UNL     1      32.055 -12.080 -22.175  0.00  0.00    +0.187 C 
ATOM     21  C   UNL     1      32.213 -10.771 -22.617  0.00  0.00    +0.169 C 
ATOM     22  C   UNL     1      33.111 -10.494 -23.643  0.00  0.00    +0.060 C 
ATOM     23  C   UNL     1      33.820 -11.553 -24.188  0.00  0.00    +0.102 C 
BRANCH  21  24
ATOM     24  O   UNL     1      31.496  -9.764 -22.050  0.00  0.00    -0.473 OA
BRANCH  24  25
ATOM     25  C   UNL     1      32.195  -8.556 -21.753  0.00  0.00    +0.206 C 
ATOM     26  C   UNL     1      32.319  -8.416 -20.251  0.00  0.00    +0.051 C 
ENDBRANCH  24  25
ENDBRANCH  21  24
ENDBRANCH  16  19
ENDBRANCH  15  16
ENDBRANCH   1  15
TORSDOF 8
ENDMDL
MODEL 4
REMARK VINA RESULT:      -9.1      3.146      4.680
REMARK  Name = 3000505
REMARK  8 active torsions:
REMARK  status: ('A' for Active; 'I' for Inactive)
REMARK    1  A    between atoms: N_1  and  C_4
REMARK    2  A    between atoms: N_1  and  C_15
REMARK    3  A    between atoms: C_4  and  N_5
REMARK    4  A    between atoms: C_10  and  C_14
REMARK    5  A    between atoms: C_15  and  C_16
REMARK    6  A    between atoms: C_16  and  C_19
REMARK    7  A    between atoms: C_21  and  O_24
REMARK    8  A    between atoms: O_24  and  C_25
REMARK                            x       y       z     vdW  Elec       q    Type
REMARK                         _______ _______ _______ _____ _____    ______ ____
ROOT
ATOM      1  N   UNL     1      32.600 -13.518 -23.341  0.00  0.00    -0.315 N 
ATOM      2  H   UNL     1      31.688 -13.168 -23.223  0.00  0.00    +0.148 HD
ENDROOT
BRANCH   1   4
ATOM      3  S   UNL     1      33.143 -14.216 -25.806  0.00  0.00    -0.019 S 
ATOM      4  C   UNL     1      33.256 -13.154 -24.510  0.00  0.00    +0.136 C 
BRANCH   4   5
ATOM      5  N   UNL     1      33.968 -11.947 -24.444  0.00  0.00    -0.281 N 
ATOM      6  N   UNL     1      32.460 -10.534 -23.294  0.00  0.00    -0.228 NA
ATOM      7  C   UNL     1      33.642 -10.684 -23.935  0.00  0.00    +0.133 C 
ATOM      8  C   UNL     1      34.558  -9.663 -24.123  0.00  0.00    +0.035 C 
ATOM      9  C   UNL     1      34.244  -8.405 -23.619  0.00  0.00    +0.015 C 
ATOM     10  C   UNL     1      33.038  -8.210 -22.953  0.00  0.00    +0.088 C 
ATOM     11  C   UNL     1      32.189  -9.297 -22.819  0.00  0.00    +0.111 C 
ATOM     12  H   UNL     1      34.872 -11.998 -24.829  0.00  0.00    +0.155 HD
BRANCH  10  14
ATOM     13  N   UNL     1      32.399  -5.888 -22.000  0.00  0.00    -0.191 NA
ATOM     14  C   UNL     1      32.686  -6.932 -22.429  0.00  0.00    +0.102 C 
ENDBRANCH  10  14
ENDBRANCH   4   5
ENDBRANCH   1   4
BRANCH   1  15
ATOM     15  C   UNL     1      33.114 -14.356 -22.274  0.00  0.00    +0.095 C 
BRANCH  15  16
ATOM     16  C   UNL     1      34.585 -14.717 -22.467  0.00  0.00    +0.069 C 
BRANCH  16  19
ATOM     17  F   UNL     1      34.871 -16.407 -20.230  0.00  0.00    -0.200 F 
ATOM     18  N   UNL     1      34.877 -16.680 -23.850  0.00  0.00    -0.246 NA
ATOM     19  C   UNL     1      34.815 -16.202 -22.595  0.00  0.00    +0.091 C 
ATOM     20  C   UNL     1      34.945 -16.956 -21.449  0.00  0.00    +0.187 C 
ATOM     21  C   UNL     1      35.157 -18.321 -21.604  0.00  0.00    +0.169 C 
ATOM     22  C   UNL     1      35.229 -18.868 -22.881  0.00  0.00    +0.060 C 
ATOM     23  C   UNL     1      35.084 -18.011 -23.961  0.00  0.00    +0.102 C 
BRANCH  21  24
ATOM     24  O   UNL     1      35.292 -19.122 -20.512  0.00  0.00    -0.473 OA
BRANCH  24  25
ATOM     25  C   UNL     1      34.650 -20.396 -20.558  0.00  0.00    +0.206 C 
ATOM     26  C   UNL     1      33.167 -20.208 -20.317  0.00  0.00    +0.051 C 
ENDBRANCH  24  25
ENDBRANCH  21  24
ENDBRANCH  16  19
ENDBRANCH  15  16
ENDBRANCH   1  15
TORSDOF 8
ENDMDL
MODEL 5
REMARK VINA RESULT:      -9.1      3.514      5.197
REMARK  Name = 3000505
REMARK  8 active torsions:
REMARK  status: ('A' for Active; 'I' for Inactive)
REMARK    1  A    between atoms: N_1  and  C_4
REMARK    2  A    between atoms: N_1  and  C_15
REMARK    3  A    between atoms: C_4  and  N_5
REMARK    4  A    between atoms: C_10  and  C_14
REMARK    5  A    between atoms: C_15  and  C_16
REMARK    6  A    between atoms: C_16  and  C_19
REMARK    7  A    between atoms: C_21  and  O_24
REMARK    8  A    between atoms: O_24  and  C_25
REMARK                            x       y       z     vdW  Elec       q    Type
REMARK                         _______ _______ _______ _____ _____    ______ ____
ROOT
ATOM      1  N   UNL     1      34.225 -13.102 -24.023  0.00  0.00    -0.315 N 
ATOM      2  H   UNL     1      35.137 -13.429 -23.850  0.00  0.00    +0.148 HD
ENDROOT
BRANCH   1   4
ATOM      3  S   UNL     1      33.451 -12.716 -26.495  0.00  0.00    -0.019 S 
ATOM      4  C   UNL     1      34.086 -12.167 -25.041  0.00  0.00    +0.136 C 
BRANCH   4   5
ATOM      5  N   UNL     1      34.536 -10.875 -24.729  0.00  0.00    -0.281 N 
ATOM      6  N   UNL     1      32.863 -10.102 -23.246  0.00  0.00    -0.228 NA
ATOM      7  C   UNL     1      33.996  -9.851 -23.942  0.00  0.00    +0.133 C 
ATOM      8  C   UNL     1      34.664  -8.638 -23.925  0.00  0.00    +0.035 C 
ATOM      9  C   UNL     1      34.136  -7.614 -23.144  0.00  0.00    +0.015 C 
ATOM     10  C   UNL     1      32.972  -7.834 -22.414  0.00  0.00    +0.088 C 
ATOM     11  C   UNL     1      32.380  -9.084 -22.499  0.00  0.00    +0.111 C 
ATOM     12  H   UNL     1      35.398 -10.644 -25.144  0.00  0.00    +0.155 HD
BRANCH  10  14
ATOM     13  N   UNL     1      31.943  -5.963 -20.947  0.00  0.00    -0.191 NA
ATOM     14  C   UNL     1      32.406  -6.805 -21.607  0.00  0.00    +0.102 C 
ENDBRANCH  10  14
ENDBRANCH   4   5
ENDBRANCH   1   4
BRANCH   1  15
ATOM     15  C   UNL     1      33.172 -13.649 -23.188  0.00  0.00    +0.095 C 
BRANCH  15  16
ATOM     16  C   UNL     1      33.715 -14.386 -21.966  0.00  0.00    +0.069 C 
BRANCH  16  19
ATOM     17  F   UNL     1      34.804 -16.102 -20.013  0.00  0.00    -0.200 F 
ATOM     18  N   UNL     1      34.268 -16.078 -23.603  0.00  0.00    -0.246 NA
ATOM     19  C   UNL     1      34.299 -15.736 -22.303  0.00  0.00    +0.091 C 
ATOM     20  C   UNL     1      34.812 -16.512 -21.288  0.00  0.00    +0.187 C 
ATOM     21  C   UNL     1      35.342 -17.749 -21.635  0.00  0.00    +0.169 C 
ATOM     22  C   UNL     1      35.336 -18.152 -22.967  0.00  0.00    +0.060 C 
ATOM     23  C   UNL     1      34.793 -17.288 -23.903  0.00  0.00    +0.102 C 
BRANCH  21  24
ATOM     24  O   UNL     1      35.863 -18.565 -20.679  0.00  0.00    -0.473 OA
BRANCH  24  25
ATOM     25  C   UNL     1      35.499 -19.944 -20.732  0.00  0.00    +0.206 C 
ATOM     26  C   UNL     1      36.507 -20.749 -19.940  0.00  0.00    +0.051 C 
ENDBRANCH  24  25
ENDBRANCH  21  24
ENDBRANCH  16  19
ENDBRANCH  15  16
ENDBRANCH   1  15
TORSDOF 8
ENDMDL
MODEL 6
REMARK VINA RESULT:      -9.0      5.154      8.928
REMARK  Name = 3000505
REMARK  8 active torsions:
REMARK  status: ('A' for Active; 'I' for Inactive)
REMARK    1  A    between atoms: N_1  and  C_4
REMARK    2  A    between atoms: N_1  and  C_15
REMARK    3  A    between atoms: C_4  and  N_5
REMARK    4  A    between atoms: C_10  and  C_14
REMARK    5  A    between atoms: C_15  and  C_16
REMARK    6  A    between atoms: C_16  and  C_19
REMARK    7  A    between atoms: C_21  and  O_24
REMARK    8  A    between atoms: O_24  and  C_25
REMARK                            x       y       z     vdW  Elec       q    Type
REMARK                         _______ _______ _______ _____ _____    ______ ____
ROOT
ATOM      1  N   UNL     1      35.735 -22.452 -16.797  0.00  0.00    -0.315 N 
ATOM      2  H   UNL     1      34.923 -22.628 -17.325  0.00  0.00    +0.148 HD
ENDROOT
BRANCH   1   4
ATOM      3  S   UNL     1      37.275 -23.721 -15.102  0.00  0.00    -0.019 S 
ATOM      4  C   UNL     1      35.801 -23.051 -15.546  0.00  0.00    +0.136 C 
BRANCH   4   5
ATOM      5  N   UNL     1      34.600 -23.052 -14.820  0.00  0.00    -0.281 N 
ATOM      6  N   UNL     1      32.975 -23.189 -16.534  0.00  0.00    -0.228 NA
ATOM      7  C   UNL     1      33.257 -23.069 -15.216  0.00  0.00    +0.133 C 
ATOM      8  C   UNL     1      32.297 -22.961 -14.224  0.00  0.00    +0.035 C 
ATOM      9  C   UNL     1      30.960 -22.979 -14.607  0.00  0.00    +0.015 C 
ATOM     10  C   UNL     1      30.629 -23.102 -15.953  0.00  0.00    +0.088 C 
ATOM     11  C   UNL     1      31.665 -23.202 -16.868  0.00  0.00    +0.111 C 
ATOM     12  H   UNL     1      34.726 -23.038 -13.844  0.00  0.00    +0.155 HD
BRANCH  10  14
ATOM     13  N   UNL     1      28.156 -23.136 -16.723  0.00  0.00    -0.191 NA
ATOM     14  C   UNL     1      29.268 -23.120 -16.377  0.00  0.00    +0.102 C 
ENDBRANCH  10  14
ENDBRANCH   4   5
ENDBRANCH   1   4
BRANCH   1  15
ATOM     15  C   UNL     1      36.732 -21.595 -17.411  0.00  0.00    +0.095 C 
BRANCH  15  16
ATOM     16  C   UNL     1      36.754 -21.718 -18.933  0.00  0.00    +0.069 C 
BRANCH  16  19
ATOM     17  F   UNL     1      36.908 -19.611 -20.800  0.00  0.00    -0.200 F 
ATOM     18  N   UNL     1      34.354 -21.657 -19.228  0.00  0.00    -0.246 NA
ATOM     19  C   UNL     1      35.533 -21.121 -19.589  0.00  0.00    +0.091 C 
ATOM     20  C   UNL     1      35.697 -20.092 -20.490  0.00  0.00    +0.187 C 
ATOM     21  C   UNL     1      34.551 -19.566 -21.074  0.00  0.00    +0.169 C 
ATOM     22  C   UNL     1      33.305 -20.084 -20.736  0.00  0.00    +0.060 C 
ATOM     23  C   UNL     1      33.261 -21.120 -19.817  0.00  0.00    +0.102 C 
BRANCH  21  24
ATOM     24  O   UNL     1      34.645 -18.550 -21.974  0.00  0.00    -0.473 OA
BRANCH  24  25
ATOM     25  C   UNL     1      34.884 -18.907 -23.335  0.00  0.00    +0.206 C 
ATOM     26  C   UNL     1      34.877 -17.652 -24.181  0.00  0.00    +0.051 C 
ENDBRANCH  24  25
ENDBRANCH  21  24
ENDBRANCH  16  19
ENDBRANCH  15  16
ENDBRANCH   1  15
TORSDOF 8
ENDMDL
MODEL 7
REMARK VINA RESULT:      -9.0      6.474     10.082
REMARK  Name = 3000505
REMARK  8 active torsions:
REMARK  status: ('A' for Active; 'I' for Inactive)
REMARK    1  A    between atoms: N_1  and  C_4
REMARK    2  A    between atoms: N_1  and  C_15
REMARK    3  A    between atoms: C_4  and  N_5
REMARK    4  A    between atoms: C_10  and  C_14
REMARK    5  A    between atoms: C_15  and  C_16
REMARK    6  A    between atoms: C_16  and  C_19
REMARK    7  A    between atoms: C_21  and  O_24
REMARK    8  A    between atoms: O_24  and  C_25
REMARK                            x       y       z     vdW  Elec       q    Type
REMARK                         _______ _______ _______ _____ _____    ______ ____
ROOT
ATOM      1  N   UNL     1      34.790 -24.817 -14.775  0.00  0.00    -0.315 N 
ATOM      2  H   UNL     1      34.313 -25.340 -15.459  0.00  0.00    +0.148 HD
ENDROOT
BRANCH   1   4
ATOM      3  S   UNL     1      35.046 -24.053 -12.283  0.00  0.00    -0.019 S 
ATOM      4  C   UNL     1      34.132 -24.638 -13.564  0.00  0.00    +0.136 C 
BRANCH   4   5
ATOM      5  N   UNL     1      32.780 -25.010 -13.559  0.00  0.00    -0.281 N 
ATOM      6  N   UNL     1      31.930 -23.848 -15.436  0.00  0.00    -0.228 NA
ATOM      7  C   UNL     1      31.697 -24.646 -14.369  0.00  0.00    +0.133 C 
ATOM      8  C   UNL     1      30.448 -25.133 -14.023  0.00  0.00    +0.035 C 
ATOM      9  C   UNL     1      29.366 -24.779 -14.822  0.00  0.00    +0.015 C 
ATOM     10  C   UNL     1      29.565 -23.959 -15.929  0.00  0.00    +0.088 C 
ATOM     11  C   UNL     1      30.855 -23.525 -16.189  0.00  0.00    +0.111 C 
ATOM     12  H   UNL     1      32.547 -25.651 -12.850  0.00  0.00    +0.155 HD
BRANCH  10  14
ATOM     13  N   UNL     1      27.586 -23.265 -17.450  0.00  0.00    -0.191 NA
ATOM     14  C   UNL     1      28.476 -23.577 -16.765  0.00  0.00    +0.102 C 
ENDBRANCH  10  14
ENDBRANCH   4   5
ENDBRANCH   1   4
BRANCH   1  15
ATOM     15  C   UNL     1      36.102 -24.318 -15.140  0.00  0.00    +0.095 C 
BRANCH  15  16
ATOM     16  C   UNL     1      36.088 -22.833 -15.496  0.00  0.00    +0.069 C 
BRANCH  16  19
ATOM     17  F   UNL     1      37.365 -21.059 -17.275  0.00  0.00    -0.200 F 
ATOM     18  N   UNL     1      34.457 -23.232 -17.238  0.00  0.00    -0.246 NA
ATOM     19  C   UNL     1      35.573 -22.567 -16.889  0.00  0.00    +0.091 C 
ATOM     20  C   UNL     1      36.257 -21.684 -17.694  0.00  0.00    +0.187 C 
ATOM     21  C   UNL     1      35.754 -21.462 -18.971  0.00  0.00    +0.169 C 
ATOM     22  C   UNL     1      34.602 -22.124 -19.382  0.00  0.00    +0.060 C 
ATOM     23  C   UNL     1      33.998 -22.991 -18.486  0.00  0.00    +0.102 C 
BRANCH  21  24
ATOM     24  O   UNL     1      36.384 -20.602 -19.816  0.00  0.00    -0.473 OA
BRANCH  24  25
ATOM     25  C   UNL     1      35.570 -19.900 -20.755  0.00  0.00    +0.206 C 
ATOM     26  C   UNL     1      36.356 -18.731 -21.310  0.00  0.00    +0.051 C 
ENDBRANCH  24  25
ENDBRANCH  21  24
ENDBRANCH  16  19
ENDBRANCH  15  16
ENDBRANCH   1  15
TORSDOF 8
ENDMDL
MODEL 8
REMARK VINA RESULT:      -8.9      4.920      9.944
REMARK  Name = 3000505
REMARK  8 active torsions:
REMARK  status: ('A' for Active; 'I' for Inactive)
REMARK    1  A    between atoms: N_1  and  C_4
REMARK    2  A    between atoms: N_1  and  C_15
REMARK    3  A    between atoms: C_4  and  N_5
REMARK    4  A    between atoms: C_10  and  C_14
REMARK    5  A    between atoms: C_15  and  C_16
REMARK    6  A    between atoms: C_16  and  C_19
REMARK    7  A    between atoms: C_21  and  O_24
REMARK    8  A    between atoms: O_24  and  C_25
REMARK                            x       y       z     vdW  Elec       q    Type
REMARK                         _______ _______ _______ _____ _____    ______ ____
ROOT
ATOM      1  N   UNL     1      32.119 -13.334 -23.058  0.00  0.00    -0.315 N 
ATOM      2  H   UNL     1      31.302 -13.791 -23.364  0.00  0.00    +0.148 HD
ENDROOT
BRANCH   1   4
ATOM      3  S   UNL     1      33.862 -11.979 -24.467  0.00  0.00    -0.019 S 
ATOM      4  C   UNL     1      33.226 -13.423 -23.892  0.00  0.00    +0.136 C 
BRANCH   4   5
ATOM      5  N   UNL     1      33.653 -14.728 -24.180  0.00  0.00    -0.281 N 
ATOM      6  N   UNL     1      34.376 -15.500 -22.064  0.00  0.00    -0.228 NA
ATOM      7  C   UNL     1      34.236 -15.727 -23.391  0.00  0.00    +0.133 C 
ATOM      8  C   UNL     1      34.634 -16.892 -24.025  0.00  0.00    +0.035 C 
ATOM      9  C   UNL     1      35.213 -17.891 -23.249  0.00  0.00    +0.015 C 
ATOM     10  C   UNL     1      35.373 -17.696 -21.881  0.00  0.00    +0.088 C 
ATOM     11  C   UNL     1      34.942 -16.494 -21.343  0.00  0.00    +0.111 C 
ATOM     12  H   UNL     1      33.516 -14.993 -25.118  0.00  0.00    +0.155 HD
BRANCH  10  14
ATOM     13  N   UNL     1      36.448 -19.521 -20.389  0.00  0.00    -0.191 NA
ATOM     14  C   UNL     1      35.965 -18.700 -21.060  0.00  0.00    +0.102 C 
ENDBRANCH  10  14
ENDBRANCH   4   5
ENDBRANCH   1   4
BRANCH   1  15
ATOM     15  C   UNL     1      32.034 -12.640 -21.787  0.00  0.00    +0.095 C 
BRANCH  15  16
ATOM     16  C   UNL     1      31.037 -11.484 -21.815  0.00  0.00    +0.069 C 
BRANCH  16  19
ATOM     17  F   UNL     1      32.021  -9.576 -23.641  0.00  0.00    -0.200 F 
ATOM     18  N   UNL     1      31.685  -9.965 -20.047  0.00  0.00    -0.246 NA
ATOM     19  C   UNL     1      31.642 -10.174 -21.375  0.00  0.00    +0.091 C 
ATOM     20  C   UNL     1      32.100  -9.298 -22.334  0.00  0.00    +0.187 C 
ATOM     21  C   UNL     1      32.652  -8.100 -21.893  0.00  0.00    +0.169 C 
ATOM     22  C   UNL     1      32.722  -7.834 -20.529  0.00  0.00    +0.060 C 
ATOM     23  C   UNL     1      32.228  -8.790 -19.656  0.00  0.00    +0.102 C 
BRANCH  21  24
ATOM     24  O   UNL     1      33.122  -7.191 -22.789  0.00  0.00    -0.473 OA
BRANCH  24  25
ATOM     25  C   UNL     1      34.417  -7.429 -23.338  0.00  0.00    +0.206 C 
ATOM     26  C   UNL     1      34.504  -6.768 -24.698  0.00  0.00    +0.051 C 
ENDBRANCH  24  25
ENDBRANCH  21  24
ENDBRANCH  16  19
ENDBRANCH  15  16
ENDBRANCH   1  15
TORSDOF 8
ENDMDL
MODEL 9
REMARK VINA RESULT:      -8.9      4.799      8.990
REMARK  Name = 3000505
REMARK  8 active torsions:
REMARK  status: ('A' for Active; 'I' for Inactive)
REMARK    1  A    between atoms: N_1  and  C_4
REMARK    2  A    between atoms: N_1  and  C_15
REMARK    3  A    between atoms: C_4  and  N_5
REMARK    4  A    between atoms: C_10  and  C_14
REMARK    5  A    between atoms: C_15  and  C_16
REMARK    6  A    between atoms: C_16  and  C_19
REMARK    7  A    between atoms: C_21  and  O_24
REMARK    8  A    between atoms: O_24  and  C_25
REMARK                            x       y       z     vdW  Elec       q    Type
REMARK                         _______ _______ _______ _____ _____    ______ ____
ROOT
ATOM      1  N   UNL     1      34.014 -23.156 -17.445  0.00  0.00    -0.315 N 
ATOM      2  H   UNL     1      33.199 -23.553 -17.826  0.00  0.00    +0.148 HD
ENDROOT
BRANCH   1   4
ATOM      3  S   UNL     1      35.799 -23.155 -15.528  0.00  0.00    -0.019 S 
ATOM      4  C   UNL     1      34.231 -23.371 -16.089  0.00  0.00    +0.136 C 
BRANCH   4   5
ATOM      5  N   UNL     1      33.105 -23.784 -15.363  0.00  0.00    -0.281 N 
ATOM      6  N   UNL     1      31.338 -22.732 -16.532  0.00  0.00    -0.228 NA
ATOM      7  C   UNL     1      31.741 -23.489 -15.486  0.00  0.00    +0.133 C 
ATOM      8  C   UNL     1      30.887 -23.998 -14.522  0.00  0.00    +0.035 C 
ATOM      9  C   UNL     1      29.531 -23.713 -14.636  0.00  0.00    +0.015 C 
ATOM     10  C   UNL     1      29.077 -22.937 -15.698  0.00  0.00    +0.088 C 
ATOM     11  C   UNL     1      30.012 -22.475 -16.610  0.00  0.00    +0.111 C 
ATOM     12  H   UNL     1      33.312 -24.399 -14.624  0.00  0.00    +0.155 HD
BRANCH  10  14
ATOM     13  N   UNL     1      26.562 -22.371 -15.959  0.00  0.00    -0.191 NA
ATOM     14  C   UNL     1      27.693 -22.625 -15.842  0.00  0.00    +0.102 C 
ENDBRANCH  10  14
ENDBRANCH   4   5
ENDBRANCH   1   4
BRANCH   1  15
ATOM     15  C   UNL     1      34.859 -22.410 -18.359  0.00  0.00    +0.095 C 
BRANCH  15  16
ATOM     16  C   UNL     1      34.065 -21.731 -19.471  0.00  0.00    +0.069 C 
BRANCH  16  19
ATOM     17  F   UNL     1      32.863 -19.931 -21.277  0.00  0.00    -0.200 F 
ATOM     18  N   UNL     1      36.145 -20.558 -19.857  0.00  0.00    -0.246 NA
ATOM     19  C   UNL     1      34.836 -20.632 -20.159  0.00  0.00    +0.091 C 
ATOM     20  C   UNL     1      34.172 -19.796 -21.028  0.00  0.00    +0.187 C 
ATOM     21  C   UNL     1      34.914 -18.795 -21.645  0.00  0.00    +0.169 C 
ATOM     22  C   UNL     1      36.272 -18.674 -21.368  0.00  0.00    +0.060 C 
ATOM     23  C   UNL     1      36.834 -19.572 -20.475  0.00  0.00    +0.102 C 
BRANCH  21  24
ATOM     24  O   UNL     1      34.317 -17.934 -22.513  0.00  0.00    -0.473 OA
BRANCH  24  25
ATOM     25  C   UNL     1      35.005 -17.661 -23.733  0.00  0.00    +0.206 C 
ATOM     26  C   UNL     1      34.451 -18.555 -24.821  0.00  0.00    +0.051 C 
ENDBRANCH  24  25
ENDBRANCH  21  24
ENDBRANCH  16  19
ENDBRANCH  15  16
ENDBRANCH   1  15
TORSDOF 8
ENDMDL
