MODEL 1
REMARK VINA RESULT:      -9.3      0.000      0.000
REMARK  Name = 448971
REMARK  9 active torsions:
REMARK  status: ('A' for Active; 'I' for Inactive)
REMARK    1  A    between atoms: N_1  and  C_13
REMARK    2  A    between atoms: C_5  and  C_18
REMARK    3  A    between atoms: C_13  and  C_14
REMARK    4  A    between atoms: C_14  and  C_15
REMARK    5  A    between atoms: C_15  and  C_16
REMARK    6  A    between atoms: C_18  and  C_20
REMARK    7  A    between atoms: C_23  and  O_26
REMARK    8  A    between atoms: C_24  and  O_28
REMARK    9  A    between atoms: C_25  and  O_30
REMARK                            x       y       z     vdW  Elec       q    Type
REMARK                         _______ _______ _______ _____ _____    ______ ____
ROOT
ATOM      1  N   UNL     1      32.151 -10.895 -22.491  0.00  0.00    -0.249 N 
ATOM      2  N   UNL     1      33.824 -11.841 -23.621  0.00  0.00    -0.385 NA
ATOM      3  N   UNL     1      32.542  -8.562 -23.042  0.00  0.00    -0.227 NA
ATOM      4  N   UNL     1      34.481  -8.309 -24.503  0.00  0.00    -0.227 NA
ATOM      5  C   UNL     1      32.791 -12.056 -22.833  0.00  0.00    +0.169 C 
ATOM      6  C   UNL     1      32.820  -9.873 -23.101  0.00  0.00    +0.167 C 
ATOM      7  C   UNL     1      33.854 -10.480 -23.796  0.00  0.00    +0.195 C 
ATOM      8  C   UNL     1      34.702  -9.646 -24.517  0.00  0.00    +0.155 C 
ATOM      9  C   UNL     1      33.430  -7.857 -23.776  0.00  0.00    +0.253 C 
ATOM     10  N   UNL     1      35.777 -10.176 -25.252  0.00  0.00    -0.341 N 
ATOM     11  H   UNL     1      36.371  -9.576 -25.759  0.00  0.00    +0.144 HD
ATOM     12  H   UNL     1      35.936 -11.147 -25.260  0.00  0.00    +0.144 HD
ENDROOT
BRANCH   1  13
ATOM     13  C   UNL     1      30.987 -10.768 -21.645  0.00  0.00    +0.100 C 
BRANCH  13  14
ATOM     14  C   UNL     1      31.225 -11.353 -20.251  0.00  0.00    +0.036 C 
BRANCH  14  15
ATOM     15  C   UNL     1      31.156 -10.298 -19.148  0.00  0.00    +0.079 C 
BRANCH  15  16
ATOM     16  C   UNL     1      31.832  -9.049 -19.528  0.00  0.00    -0.078 C 
ATOM     17  C   UNL     1      32.380  -8.028 -19.840  0.00  0.00    -0.014 C 
ENDBRANCH  15  16
ENDBRANCH  14  15
ENDBRANCH  13  14
ENDBRANCH   1  13
BRANCH   5  18
ATOM     18  C   UNL     1      32.335 -13.376 -22.347  0.00  0.00    +0.102 C 
BRANCH  18  20
ATOM     19 CL   UNL     1      33.831 -15.183 -20.377  0.00  0.00    -0.079 Cl
ATOM     20  C   UNL     1      33.118 -14.549 -22.921  0.00  0.00    +0.003 C 
ATOM     21  C   UNL     1      33.815 -15.407 -22.095  0.00  0.00    +0.091 C 
ATOM     22  C   UNL     1      33.094 -14.713 -24.294  0.00  0.00    +0.037 C 
ATOM     23  C   UNL     1      34.519 -16.470 -22.661  0.00  0.00    +0.186 C 
ATOM     24  C   UNL     1      33.798 -15.775 -24.860  0.00  0.00    +0.175 C 
ATOM     25  C   UNL     1      34.510 -16.654 -24.044  0.00  0.00    +0.207 C 
BRANCH  23  26
ATOM     26  O   UNL     1      35.222 -17.340 -21.878  0.00  0.00    -0.467 OA
ATOM     27  C   UNL     1      34.486 -18.391 -21.259  0.00  0.00    +0.253 C 
ENDBRANCH  23  26
BRANCH  24  28
ATOM     28  O   UNL     1      33.781 -15.944 -26.212  0.00  0.00    -0.468 OA
ATOM     29  C   UNL     1      33.095 -14.959 -26.979  0.00  0.00    +0.253 C 
ENDBRANCH  24  28
BRANCH  25  30
ATOM     30  O   UNL     1      35.197 -17.694 -24.599  0.00  0.00    -0.465 OA
ATOM     31  C   UNL     1      34.470 -18.899 -24.825  0.00  0.00    +0.253 C 
ENDBRANCH  25  30
ENDBRANCH  18  20
ENDBRANCH   5  18
TORSDOF 9
ENDMDL
MODEL 2
REMARK VINA RESULT:      -8.9      3.565      7.280
REMARK  Name = 448971
REMARK  9 active torsions:
REMARK  status: ('A' for Active; 'I' for Inactive)
REMARK    1  A    between atoms: N_1  and  C_13
REMARK    2  A    between atoms: C_5  and  C_18
REMARK    3  A    between atoms: C_13  and  C_14
REMARK    4  A    between atoms: C_14  and  C_15
REMARK    5  A    between atoms: C_15  and  C_16
REMARK    6  A    between atoms: C_18  and  C_20
REMARK    7  A    between atoms: C_23  and  O_26
REMARK    8  A    between atoms: C_24  and  O_28
REMARK    9  A    between atoms: C_25  and  O_30
REMARK                            x       y       z     vdW  Elec       q    Type
REMARK                         _______ _______ _______ _____ _____    ______ ____
ROOT
ATOM      1  N   UNL     1      33.706 -14.421 -22.619  0.00  0.00    -0.249 N 
ATOM      2  N   UNL     1      32.311 -13.698 -24.201  0.00  0.00    -0.385 NA
ATOM      3  N   UNL     1      34.908 -16.121 -23.868  0.00  0.00    -0.227 NA
ATOM      4  N   UNL     1      34.100 -16.271 -26.167  0.00  0.00    -0.227 NA
ATOM      5  C   UNL     1      32.694 -13.559 -22.949  0.00  0.00    +0.169 C 
ATOM      6  C   UNL     1      33.986 -15.156 -23.735  0.00  0.00    +0.167 C 
ATOM      7  C   UNL     1      33.111 -14.693 -24.704  0.00  0.00    +0.195 C 
ATOM      8  C   UNL     1      33.191 -15.288 -25.960  0.00  0.00    +0.155 C 
ATOM      9  C   UNL     1      34.891 -16.622 -25.123  0.00  0.00    +0.253 C 
ATOM     10  N   UNL     1      32.342 -14.879 -27.003  0.00  0.00    -0.341 N 
ATOM     11  H   UNL     1      32.407 -15.308 -27.887  0.00  0.00    +0.144 HD
ATOM     12  H   UNL     1      31.682 -14.165 -26.849  0.00  0.00    +0.144 HD
ENDROOT
BRANCH   1  13
ATOM     13  C   UNL     1      34.358 -14.536 -21.335  0.00  0.00    +0.100 C 
BRANCH  13  14
ATOM     14  C   UNL     1      33.969 -15.825 -20.608  0.00  0.00    +0.036 C 
BRANCH  14  15
ATOM     15  C   UNL     1      35.035 -16.915 -20.727  0.00  0.00    +0.079 C 
BRANCH  15  16
ATOM     16  C   UNL     1      34.463 -18.214 -21.108  0.00  0.00    -0.078 C 
ATOM     17  C   UNL     1      33.993 -19.273 -21.423  0.00  0.00    -0.014 C 
ENDBRANCH  15  16
ENDBRANCH  14  15
ENDBRANCH  13  14
ENDBRANCH   1  13
BRANCH   5  18
ATOM     18  C   UNL     1      32.129 -12.602 -21.973  0.00  0.00    +0.102 C 
BRANCH  18  20
ATOM     19 CL   UNL     1      30.879 -10.461 -20.175  0.00  0.00    -0.079 Cl
ATOM     20  C   UNL     1      32.467 -11.148 -22.270  0.00  0.00    +0.003 C 
ATOM     21  C   UNL     1      31.942 -10.128 -21.501  0.00  0.00    +0.091 C 
ATOM     22  C   UNL     1      33.317 -10.900 -23.332  0.00  0.00    +0.037 C 
ATOM     23  C   UNL     1      32.277  -8.809 -21.806  0.00  0.00    +0.186 C 
ATOM     24  C   UNL     1      33.652  -9.581 -23.636  0.00  0.00    +0.175 C 
ATOM     25  C   UNL     1      33.132  -8.536 -22.874  0.00  0.00    +0.207 C 
BRANCH  23  26
ATOM     26  O   UNL     1      31.778  -7.773 -21.071  0.00  0.00    -0.467 OA
ATOM     27  C   UNL     1      32.575  -7.308 -19.986  0.00  0.00    +0.253 C 
ENDBRANCH  23  26
BRANCH  24  28
ATOM     28  O   UNL     1      34.488  -9.328 -24.682  0.00  0.00    -0.468 OA
ATOM     29  C   UNL     1      35.126 -10.449 -25.288  0.00  0.00    +0.253 C 
ENDBRANCH  24  28
BRANCH  25  30
ATOM     30  O   UNL     1      33.462  -7.246 -23.172  0.00  0.00    -0.465 OA
ATOM     31  C   UNL     1      32.606  -6.555 -24.079  0.00  0.00    +0.253 C 
ENDBRANCH  25  30
ENDBRANCH  18  20
ENDBRANCH   5  18
TORSDOF 9
ENDMDL
MODEL 3
REMARK VINA RESULT:      -8.9      1.467      2.613
REMARK  Name = 448971
REMARK  9 active torsions:
REMARK  status: ('A' for Active; 'I' for Inactive)
REMARK    1  A    between atoms: N_1  and  C_13
REMARK    2  A    between atoms: C_5  and  C_18
REMARK    3  A    between atoms: C_13  and  C_14
REMARK    4  A    between atoms: C_14  and  C_15
REMARK    5  A    between atoms: C_15  and  C_16
REMARK    6  A    between atoms: C_18  and  C_20
REMARK    7  A    between atoms: C_23  and  O_26
REMARK    8  A    between atoms: C_24  and  O_28
REMARK    9  A    between atoms: C_25  and  O_30
REMARK                            x       y       z     vdW  Elec       q    Type
REMARK                         _______ _______ _______ _____ _____    ______ ____
ROOT
ATOM      1  N   UNL     1      32.442 -11.312 -23.018  0.00  0.00    -0.249 N 
ATOM      2  N   UNL     1      33.885 -12.030 -24.558  0.00  0.00    -0.385 NA
ATOM      3  N   UNL     1      33.163  -9.002 -22.814  0.00  0.00    -0.227 NA
ATOM      4  N   UNL     1      35.038  -8.524 -24.302  0.00  0.00    -0.227 NA
ATOM      5  C   UNL     1      32.874 -12.362 -23.783  0.00  0.00    +0.169 C 
ATOM      6  C   UNL     1      33.230 -10.240 -23.326  0.00  0.00    +0.167 C 
ATOM      7  C   UNL     1      34.118 -10.705 -24.282  0.00  0.00    +0.195 C 
ATOM      8  C   UNL     1      35.047  -9.794 -24.774  0.00  0.00    +0.155 C 
ATOM      9  C   UNL     1      34.110  -8.211 -23.365  0.00  0.00    +0.253 C 
ATOM     10  N   UNL     1      35.986 -10.179 -25.747  0.00  0.00    -0.341 N 
ATOM     11  H   UNL     1      36.638  -9.526 -26.088  0.00  0.00    +0.144 HD
ATOM     12  H   UNL     1      35.990 -11.103 -26.088  0.00  0.00    +0.144 HD
ENDROOT
BRANCH   1  13
ATOM     13  C   UNL     1      31.359 -11.328 -22.063  0.00  0.00    +0.100 C 
BRANCH  13  14
ATOM     14  C   UNL     1      31.786 -11.928 -20.721  0.00  0.00    +0.036 C 
BRANCH  14  15
ATOM     15  C   UNL     1      31.307 -11.103 -19.526  0.00  0.00    +0.079 C 
BRANCH  15  16
ATOM     16  C   UNL     1      31.753  -9.705 -19.600  0.00  0.00    -0.078 C 
ATOM     17  C   UNL     1      32.114  -8.561 -19.658  0.00  0.00    -0.014 C 
ENDBRANCH  15  16
ENDBRANCH  14  15
ENDBRANCH  13  14
ENDBRANCH   1  13
BRANCH   5  18
ATOM     18  C   UNL     1      32.244 -13.698 -23.710  0.00  0.00    +0.102 C 
BRANCH  18  20
ATOM     19 CL   UNL     1      32.969 -15.405 -26.147  0.00  0.00    -0.079 Cl
ATOM     20  C   UNL     1      33.234 -14.836 -23.504  0.00  0.00    +0.003 C 
ATOM     21  C   UNL     1      33.609 -15.647 -24.556  0.00  0.00    +0.091 C 
ATOM     22  C   UNL     1      33.735 -15.015 -22.228  0.00  0.00    +0.037 C 
ATOM     23  C   UNL     1      34.519 -16.678 -24.326  0.00  0.00    +0.186 C 
ATOM     24  C   UNL     1      34.645 -16.046 -21.997  0.00  0.00    +0.175 C 
ATOM     25  C   UNL     1      35.037 -16.878 -23.046  0.00  0.00    +0.207 C 
BRANCH  23  26
ATOM     26  O   UNL     1      34.914 -17.502 -25.340  0.00  0.00    -0.467 OA
ATOM     27  C   UNL     1      34.236 -18.749 -25.461  0.00  0.00    +0.253 C 
ENDBRANCH  23  26
BRANCH  24  28
ATOM     28  O   UNL     1      35.143 -16.231 -20.742  0.00  0.00    -0.468 OA
ATOM     29  C   UNL     1      34.645 -15.377 -19.716  0.00  0.00    +0.253 C 
ENDBRANCH  24  28
BRANCH  25  30
ATOM     30  O   UNL     1      35.928 -17.886 -22.818  0.00  0.00    -0.465 OA
ATOM     31  C   UNL     1      35.430 -19.052 -22.168  0.00  0.00    +0.253 C 
ENDBRANCH  25  30
ENDBRANCH  18  20
ENDBRANCH   5  18
TORSDOF 9
ENDMDL
MODEL 4
REMARK VINA RESULT:      -8.2      1.984      4.267
REMARK  Name = 448971
REMARK  9 active torsions:
REMARK  status: ('A' for Active; 'I' for Inactive)
REMARK    1  A    between atoms: N_1  and  C_13
REMARK    2  A    between atoms: C_5  and  C_18
REMARK    3  A    between atoms: C_13  and  C_14
REMARK    4  A    between atoms: C_14  and  C_15
REMARK    5  A    between atoms: C_15  and  C_16
REMARK    6  A    between atoms: C_18  and  C_20
REMARK    7  A    between atoms: C_23  and  O_26
REMARK    8  A    between atoms: C_24  and  O_28
REMARK    9  A    between atoms: C_25  and  O_30
REMARK                            x       y       z     vdW  Elec       q    Type
REMARK                         _______ _______ _______ _____ _____    ______ ____
ROOT
ATOM      1  N   UNL     1      32.492 -10.256 -22.897  0.00  0.00    -0.249 N 
ATOM      2  N   UNL     1      31.728 -11.793 -21.474  0.00  0.00    -0.385 NA
ATOM      3  N   UNL     1      32.597  -8.333 -21.418  0.00  0.00    -0.227 NA
ATOM      4  N   UNL     1      31.863  -8.908 -19.162  0.00  0.00    -0.227 NA
ATOM      5  C   UNL     1      32.111 -11.558 -22.712  0.00  0.00    +0.169 C 
ATOM      6  C   UNL     1      32.342  -9.620 -21.698  0.00  0.00    +0.167 C 
ATOM      7  C   UNL     1      31.868 -10.589 -20.829  0.00  0.00    +0.195 C 
ATOM      8  C   UNL     1      31.628 -10.194 -19.517  0.00  0.00    +0.155 C 
ATOM      9  C   UNL     1      32.326  -8.069 -20.121  0.00  0.00    +0.253 C 
ATOM     10  N   UNL     1      31.146 -11.113 -18.568  0.00  0.00    -0.341 N 
ATOM     11  H   UNL     1      30.979 -10.822 -17.642  0.00  0.00    +0.144 HD
ATOM     12  H   UNL     1      30.976 -12.046 -18.829  0.00  0.00    +0.144 HD
ENDROOT
BRANCH   1  13
ATOM     13  C   UNL     1      32.964  -9.661 -24.126  0.00  0.00    +0.100 C 
BRANCH  13  14
ATOM     14  C   UNL     1      34.481  -9.461 -24.120  0.00  0.00    +0.036 C 
BRANCH  14  15
ATOM     15  C   UNL     1      34.891  -8.063 -23.654  0.00  0.00    +0.079 C 
BRANCH  15  16
ATOM     16  C   UNL     1      34.454  -7.015 -24.587  0.00  0.00    -0.078 C 
ATOM     17  C   UNL     1      34.101  -6.159 -25.351  0.00  0.00    -0.014 C 
ENDBRANCH  15  16
ENDBRANCH  14  15
ENDBRANCH  13  14
ENDBRANCH   1  13
BRANCH   5  18
ATOM     18  C   UNL     1      32.143 -12.549 -23.809  0.00  0.00    +0.102 C 
BRANCH  18  20
ATOM     19 CL   UNL     1      32.802 -14.364 -26.186  0.00  0.00    -0.079 Cl
ATOM     20  C   UNL     1      33.103 -13.705 -23.567  0.00  0.00    +0.003 C 
ATOM     21  C   UNL     1      33.448 -14.565 -24.592  0.00  0.00    +0.091 C 
ATOM     22  C   UNL     1      33.609 -13.851 -22.289  0.00  0.00    +0.037 C 
ATOM     23  C   UNL     1      34.331 -15.612 -24.329  0.00  0.00    +0.186 C 
ATOM     24  C   UNL     1      34.492 -14.897 -22.027  0.00  0.00    +0.175 C 
ATOM     25  C   UNL     1      34.853 -15.778 -23.046  0.00  0.00    +0.207 C 
BRANCH  23  26
ATOM     26  O   UNL     1      34.696 -16.483 -25.315  0.00  0.00    -0.467 OA
ATOM     27  C   UNL     1      33.918 -17.669 -25.448  0.00  0.00    +0.253 C 
ENDBRANCH  23  26
BRANCH  24  28
ATOM     28  O   UNL     1      34.995 -15.049 -20.769  0.00  0.00    -0.468 OA
ATOM     29  C   UNL     1      34.164 -15.703 -19.814  0.00  0.00    +0.253 C 
ENDBRANCH  24  28
BRANCH  25  30
ATOM     30  O   UNL     1      35.718 -16.801 -22.788  0.00  0.00    -0.465 OA
ATOM     31  C   UNL     1      35.158 -18.004 -22.268  0.00  0.00    +0.253 C 
ENDBRANCH  25  30
ENDBRANCH  18  20
ENDBRANCH   5  18
TORSDOF 9
ENDMDL
MODEL 5
REMARK VINA RESULT:      -8.1      9.534     13.155
REMARK  Name = 448971
REMARK  9 active torsions:
REMARK  status: ('A' for Active; 'I' for Inactive)
REMARK    1  A    between atoms: N_1  and  C_13
REMARK    2  A    between atoms: C_5  and  C_18
REMARK    3  A    between atoms: C_13  and  C_14
REMARK    4  A    between atoms: C_14  and  C_15
REMARK    5  A    between atoms: C_15  and  C_16
REMARK    6  A    between atoms: C_18  and  C_20
REMARK    7  A    between atoms: C_23  and  O_26
REMARK    8  A    between atoms: C_24  and  O_28
REMARK    9  A    between atoms: C_25  and  O_30
REMARK                            x       y       z     vdW  Elec       q    Type
REMARK                         _______ _______ _______ _____ _____    ______ ____
ROOT
ATOM      1  N   UNL     1      32.948 -22.503 -17.915  0.00  0.00    -0.249 N 
ATOM      2  N   UNL     1      35.167 -22.691 -18.028  0.00  0.00    -0.385 NA
ATOM      3  N   UNL     1      32.576 -20.878 -19.681  0.00  0.00    -0.227 NA
ATOM      4  N   UNL     1      34.676 -20.213 -20.731  0.00  0.00    -0.227 NA
ATOM      5  C   UNL     1      34.075 -23.098 -17.414  0.00  0.00    +0.169 C 
ATOM      6  C   UNL     1      33.347 -21.663 -18.914  0.00  0.00    +0.167 C 
ATOM      7  C   UNL     1      34.726 -21.794 -18.969  0.00  0.00    +0.195 C 
ATOM      8  C   UNL     1      35.393 -21.031 -19.922  0.00  0.00    +0.155 C 
ATOM      9  C   UNL     1      33.332 -20.188 -20.562  0.00  0.00    +0.253 C 
ATOM     10  N   UNL     1      36.791 -21.101 -20.048  0.00  0.00    -0.341 N 
ATOM     11  H   UNL     1      37.253 -20.556 -20.726  0.00  0.00    +0.144 HD
ATOM     12  H   UNL     1      37.309 -21.695 -19.458  0.00  0.00    +0.144 HD
ENDROOT
BRANCH   1  13
ATOM     13  C   UNL     1      31.589 -22.720 -17.474  0.00  0.00    +0.100 C 
BRANCH  13  14
ATOM     14  C   UNL     1      31.471 -22.694 -15.949  0.00  0.00    +0.036 C 
BRANCH  14  15
ATOM     15  C   UNL     1      30.038 -22.917 -15.464  0.00  0.00    +0.079 C 
BRANCH  15  16
ATOM     16  C   UNL     1      29.810 -24.297 -15.015  0.00  0.00    -0.078 C 
ATOM     17  C   UNL     1      29.620 -25.425 -14.650  0.00  0.00    -0.014 C 
ENDBRANCH  15  16
ENDBRANCH  14  15
ENDBRANCH  13  14
ENDBRANCH   1  13
BRANCH   5  18
ATOM     18  C   UNL     1      34.020 -24.077 -16.308  0.00  0.00    +0.102 C 
BRANCH  18  20
ATOM     19 CL   UNL     1      33.137 -23.831 -13.385  0.00  0.00    -0.079 Cl
ATOM     20  C   UNL     1      35.105 -23.882 -15.257  0.00  0.00    +0.003 C 
ATOM     21  C   UNL     1      34.783 -23.765 -13.920  0.00  0.00    +0.091 C 
ATOM     22  C   UNL     1      36.413 -23.832 -15.702  0.00  0.00    +0.037 C 
ATOM     23  C   UNL     1      35.807 -23.589 -12.989  0.00  0.00    +0.186 C 
ATOM     24  C   UNL     1      37.437 -23.656 -14.771  0.00  0.00    +0.175 C 
ATOM     25  C   UNL     1      37.134 -23.534 -13.416  0.00  0.00    +0.207 C 
BRANCH  23  26
ATOM     26  O   UNL     1      35.529 -23.468 -11.658  0.00  0.00    -0.467 OA
ATOM     27  C   UNL     1      35.442 -24.673 -10.905  0.00  0.00    +0.253 C 
ENDBRANCH  23  26
BRANCH  24  28
ATOM     28  O   UNL     1      38.729 -23.604 -15.200  0.00  0.00    -0.468 OA
ATOM     29  C   UNL     1      39.416 -24.845 -15.340  0.00  0.00    +0.253 C 
ENDBRANCH  24  28
BRANCH  25  30
ATOM     30  O   UNL     1      38.137 -23.363 -12.507  0.00  0.00    -0.465 OA
ATOM     31  C   UNL     1      38.700 -24.542 -11.938  0.00  0.00    +0.253 C 
ENDBRANCH  25  30
ENDBRANCH  18  20
ENDBRANCH   5  18
TORSDOF 9
ENDMDL
MODEL 6
REMARK VINA RESULT:      -8.0     10.714     13.802
REMARK  Name = 448971
REMARK  9 active torsions:
REMARK  status: ('A' for Active; 'I' for Inactive)
REMARK    1  A    between atoms: N_1  and  C_13
REMARK    2  A    between atoms: C_5  and  C_18
REMARK    3  A    between atoms: C_13  and  C_14
REMARK    4  A    between atoms: C_14  and  C_15
REMARK    5  A    between atoms: C_15  and  C_16
REMARK    6  A    between atoms: C_18  and  C_20
REMARK    7  A    between atoms: C_23  and  O_26
REMARK    8  A    between atoms: C_24  and  O_28
REMARK    9  A    between atoms: C_25  and  O_30
REMARK                            x       y       z     vdW  Elec       q    Type
REMARK                         _______ _______ _______ _____ _____    ______ ____
ROOT
ATOM      1  N   UNL     1      32.869 -23.161 -16.906  0.00  0.00    -0.249 N 
ATOM      2  N   UNL     1      35.088 -23.036 -16.728  0.00  0.00    -0.385 NA
ATOM      3  N   UNL     1      32.547 -21.944 -18.983  0.00  0.00    -0.227 NA
ATOM      4  N   UNL     1      34.675 -21.172 -19.897  0.00  0.00    -0.227 NA
ATOM      5  C   UNL     1      33.981 -23.485 -16.175  0.00  0.00    +0.169 C 
ATOM      6  C   UNL     1      33.297 -22.460 -17.997  0.00  0.00    +0.167 C 
ATOM      7  C   UNL     1      34.675 -22.393 -17.869  0.00  0.00    +0.195 C 
ATOM      8  C   UNL     1      35.368 -21.719 -18.869  0.00  0.00    +0.155 C 
ATOM      9  C   UNL     1      33.327 -21.316 -19.890  0.00  0.00    +0.253 C 
ATOM     10  N   UNL     1      36.768 -21.603 -18.820  0.00  0.00    -0.341 N 
ATOM     11  H   UNL     1      37.248 -21.123 -19.534  0.00  0.00    +0.144 HD
ATOM     12  H   UNL     1      37.269 -22.001 -18.072  0.00  0.00    +0.144 HD
ENDROOT
BRANCH   1  13
ATOM     13  C   UNL     1      31.500 -23.495 -16.589  0.00  0.00    +0.100 C 
BRANCH  13  14
ATOM     14  C   UNL     1      30.989 -22.720 -15.373  0.00  0.00    +0.036 C 
BRANCH  14  15
ATOM     15  C   UNL     1      29.623 -23.210 -14.892  0.00  0.00    +0.079 C 
BRANCH  15  16
ATOM     16  C   UNL     1      28.534 -22.789 -15.785  0.00  0.00    -0.078 C 
ATOM     17  C   UNL     1      27.647 -22.446 -16.518  0.00  0.00    -0.014 C 
ENDBRANCH  15  16
ENDBRANCH  14  15
ENDBRANCH  13  14
ENDBRANCH   1  13
BRANCH   5  18
ATOM     18  C   UNL     1      33.895 -24.252 -14.914  0.00  0.00    +0.102 C 
BRANCH  18  20
ATOM     19 CL   UNL     1      34.983 -23.334 -12.202  0.00  0.00    -0.079 Cl
ATOM     20  C   UNL     1      35.225 -24.834 -14.454  0.00  0.00    +0.003 C 
ATOM     21  C   UNL     1      35.777 -24.468 -13.243  0.00  0.00    +0.091 C 
ATOM     22  C   UNL     1      35.844 -25.738 -15.297  0.00  0.00    +0.037 C 
ATOM     23  C   UNL     1      36.996 -25.025 -12.858  0.00  0.00    +0.186 C 
ATOM     24  C   UNL     1      37.063 -26.294 -14.912  0.00  0.00    +0.175 C 
ATOM     25  C   UNL     1      37.639 -25.938 -13.693  0.00  0.00    +0.207 C 
BRANCH  23  26
ATOM     26  O   UNL     1      37.575 -24.688 -11.668  0.00  0.00    -0.467 OA
ATOM     27  C   UNL     1      38.348 -23.493 -11.642  0.00  0.00    +0.253 C 
ENDBRANCH  23  26
BRANCH  24  28
ATOM     28  O   UNL     1      37.682 -27.186 -15.737  0.00  0.00    -0.468 OA
ATOM     29  C   UNL     1      36.876 -27.818 -16.728  0.00  0.00    +0.253 C 
ENDBRANCH  24  28
BRANCH  25  30
ATOM     30  O   UNL     1      38.832 -26.485 -13.318  0.00  0.00    -0.465 OA
ATOM     31  C   UNL     1      40.010 -25.907 -13.874  0.00  0.00    +0.253 C 
ENDBRANCH  25  30
ENDBRANCH  18  20
ENDBRANCH   5  18
TORSDOF 9
ENDMDL
MODEL 7
REMARK VINA RESULT:      -7.9      5.228      8.869
REMARK  Name = 448971
REMARK  9 active torsions:
REMARK  status: ('A' for Active; 'I' for Inactive)
REMARK    1  A    between atoms: N_1  and  C_13
REMARK    2  A    between atoms: C_5  and  C_18
REMARK    3  A    between atoms: C_13  and  C_14
REMARK    4  A    between atoms: C_14  and  C_15
REMARK    5  A    between atoms: C_15  and  C_16
REMARK    6  A    between atoms: C_18  and  C_20
REMARK    7  A    between atoms: C_23  and  O_26
REMARK    8  A    between atoms: C_24  and  O_28
REMARK    9  A    between atoms: C_25  and  O_30
REMARK                            x       y       z     vdW  Elec       q    Type
REMARK                         _______ _______ _______ _____ _____    ______ ____
ROOT
ATOM      1  N   UNL     1      32.590  -9.251 -22.738  0.00  0.00    -0.249 N 
ATOM      2  N   UNL     1      34.134  -8.523 -24.172  0.00  0.00    -0.385 NA
ATOM      3  N   UNL     1      32.675 -11.633 -23.207  0.00  0.00    -0.227 NA
ATOM      4  N   UNL     1      34.318 -12.137 -24.940  0.00  0.00    -0.227 NA
ATOM      5  C   UNL     1      33.267  -8.174 -23.244  0.00  0.00    +0.169 C 
ATOM      6  C   UNL     1      33.057 -10.359 -23.385  0.00  0.00    +0.167 C 
ATOM      7  C   UNL     1      34.013  -9.887 -24.270  0.00  0.00    +0.195 C 
ATOM      8  C   UNL     1      34.655 -10.830 -25.066  0.00  0.00    +0.155 C 
ATOM      9  C   UNL     1      33.363 -12.452 -24.032  0.00  0.00    +0.253 C 
ATOM     10  N   UNL     1      35.638 -10.439 -25.992  0.00  0.00    -0.341 N 
ATOM     11  H   UNL     1      36.085 -11.116 -26.550  0.00  0.00    +0.144 HD
ATOM     12  H   UNL     1      35.880  -9.489 -26.082  0.00  0.00    +0.144 HD
ENDROOT
BRANCH   1  13
ATOM     13  C   UNL     1      31.574  -9.228 -21.712  0.00  0.00    +0.100 C 
BRANCH  13  14
ATOM     14  C   UNL     1      32.176  -9.104 -20.310  0.00  0.00    +0.036 C 
BRANCH  14  15
ATOM     15  C   UNL     1      31.574 -10.100 -19.319  0.00  0.00    +0.079 C 
BRANCH  15  16
ATOM     16  C   UNL     1      31.742 -11.492 -19.757  0.00  0.00    -0.078 C 
ATOM     17  C   UNL     1      31.879 -12.629 -20.119  0.00  0.00    -0.014 C 
ENDBRANCH  15  16
ENDBRANCH  14  15
ENDBRANCH  13  14
ENDBRANCH   1  13
BRANCH   5  18
ATOM     18  C   UNL     1      33.015  -6.796 -22.771  0.00  0.00    +0.102 C 
BRANCH  18  20
ATOM     19 CL   UNL     1      30.701  -4.875 -22.193  0.00  0.00    -0.079 Cl
ATOM     20  C   UNL     1      32.609  -5.829 -23.875  0.00  0.00    +0.003 C 
ATOM     21  C   UNL     1      31.576  -4.933 -23.686  0.00  0.00    +0.091 C 
ATOM     22  C   UNL     1      33.318  -5.889 -25.060  0.00  0.00    +0.037 C 
ATOM     23  C   UNL     1      31.236  -4.064 -24.722  0.00  0.00    +0.186 C 
ATOM     24  C   UNL     1      32.978  -5.020 -26.096  0.00  0.00    +0.175 C 
ATOM     25  C   UNL     1      31.937  -4.107 -25.927  0.00  0.00    +0.207 C 
BRANCH  23  26
ATOM     26  O   UNL     1      30.220  -3.164 -24.575  0.00  0.00    -0.467 OA
ATOM     27  C   UNL     1      30.530  -1.942 -23.913  0.00  0.00    +0.253 C 
ENDBRANCH  23  26
BRANCH  24  28
ATOM     28  O   UNL     1      33.671  -5.073 -27.268  0.00  0.00    -0.468 OA
ATOM     29  C   UNL     1      35.042  -4.686 -27.228  0.00  0.00    +0.253 C 
ENDBRANCH  24  28
BRANCH  25  30
ATOM     30  O   UNL     1      31.607  -3.257 -26.941  0.00  0.00    -0.465 OA
ATOM     31  C   UNL     1      32.353  -2.046 -27.037  0.00  0.00    +0.253 C 
ENDBRANCH  25  30
ENDBRANCH  18  20
ENDBRANCH   5  18
TORSDOF 9
ENDMDL
MODEL 8
REMARK VINA RESULT:      -7.9     10.441     14.525
REMARK  Name = 448971
REMARK  9 active torsions:
REMARK  status: ('A' for Active; 'I' for Inactive)
REMARK    1  A    between atoms: N_1  and  C_13
REMARK    2  A    between atoms: C_5  and  C_18
REMARK    3  A    between atoms: C_13  and  C_14
REMARK    4  A    between atoms: C_14  and  C_15
REMARK    5  A    between atoms: C_15  and  C_16
REMARK    6  A    between atoms: C_18  and  C_20
REMARK    7  A    between atoms: C_23  and  O_26
REMARK    8  A    between atoms: C_24  and  O_28
REMARK    9  A    between atoms: C_25  and  O_30
REMARK                            x       y       z     vdW  Elec       q    Type
REMARK                         _______ _______ _______ _____ _____    ______ ____
ROOT
ATOM      1  N   UNL     1      32.206 -22.877 -16.725  0.00  0.00    -0.249 N 
ATOM      2  N   UNL     1      32.575 -23.743 -14.704  0.00  0.00    -0.385 NA
ATOM      3  N   UNL     1      29.829 -23.327 -16.944  0.00  0.00    -0.227 NA
ATOM      4  N   UNL     1      28.955 -24.461 -14.967  0.00  0.00    -0.227 NA
ATOM      5  C   UNL     1      33.118 -23.131 -15.735  0.00  0.00    +0.169 C 
ATOM      6  C   UNL     1      31.003 -23.359 -16.295  0.00  0.00    +0.167 C 
ATOM      7  C   UNL     1      31.252 -23.892 -15.041  0.00  0.00    +0.195 C 
ATOM      8  C   UNL     1      30.172 -24.457 -14.371  0.00  0.00    +0.155 C 
ATOM      9  C   UNL     1      28.861 -23.903 -16.200  0.00  0.00    +0.253 C 
ATOM     10  N   UNL     1      30.334 -25.021 -13.093  0.00  0.00    -0.341 N 
ATOM     11  H   UNL     1      29.562 -25.419 -12.629  0.00  0.00    +0.144 HD
ATOM     12  H   UNL     1      31.219 -25.018 -12.663  0.00  0.00    +0.144 HD
ENDROOT
BRANCH   1  13
ATOM     13  C   UNL     1      32.461 -22.223 -17.988  0.00  0.00    +0.100 C 
BRANCH  13  14
ATOM     14  C   UNL     1      33.680 -22.813 -18.702  0.00  0.00    +0.036 C 
BRANCH  14  15
ATOM     15  C   UNL     1      34.511 -21.753 -19.425  0.00  0.00    +0.079 C 
BRANCH  15  16
ATOM     16  C   UNL     1      33.672 -20.770 -20.124  0.00  0.00    -0.078 C 
ATOM     17  C   UNL     1      32.990 -19.963 -20.695  0.00  0.00    -0.014 C 
ENDBRANCH  15  16
ENDBRANCH  14  15
ENDBRANCH  13  14
ENDBRANCH   1  13
BRANCH   5  18
ATOM     18  C   UNL     1      34.539 -22.743 -15.860  0.00  0.00    +0.102 C 
BRANCH  18  20
ATOM     19 CL   UNL     1      37.541 -22.837 -16.459  0.00  0.00    -0.079 Cl
ATOM     20  C   UNL     1      35.446 -23.381 -14.817  0.00  0.00    +0.003 C 
ATOM     21  C   UNL     1      36.810 -23.458 -15.017  0.00  0.00    +0.091 C 
ATOM     22  C   UNL     1      34.846 -23.871 -13.673  0.00  0.00    +0.037 C 
ATOM     23  C   UNL     1      37.606 -24.050 -14.037  0.00  0.00    +0.186 C 
ATOM     24  C   UNL     1      35.642 -24.463 -12.692  0.00  0.00    +0.175 C 
ATOM     25  C   UNL     1      37.022 -24.553 -12.874  0.00  0.00    +0.207 C 
BRANCH  23  26
ATOM     26  O   UNL     1      38.958 -24.146 -14.198  0.00  0.00    -0.467 OA
ATOM     27  C   UNL     1      39.444 -25.277 -14.914  0.00  0.00    +0.253 C 
ENDBRANCH  23  26
BRANCH  24  28
ATOM     28  O   UNL     1      35.059 -24.950 -11.561  0.00  0.00    -0.468 OA
ATOM     29  C   UNL     1      35.398 -24.313 -10.332  0.00  0.00    +0.253 C 
ENDBRANCH  24  28
BRANCH  25  30
ATOM     30  O   UNL     1      37.799 -25.130 -11.913  0.00  0.00    -0.465 OA
ATOM     31  C   UNL     1      37.869 -26.554 -11.911  0.00  0.00    +0.253 C 
ENDBRANCH  25  30
ENDBRANCH  18  20
ENDBRANCH   5  18
TORSDOF 9
ENDMDL
MODEL 9
REMARK VINA RESULT:      -7.8      2.997      5.053
REMARK  Name = 448971
REMARK  9 active torsions:
REMARK  status: ('A' for Active; 'I' for Inactive)
REMARK    1  A    between atoms: N_1  and  C_13
REMARK    2  A    between atoms: C_5  and  C_18
REMARK    3  A    between atoms: C_13  and  C_14
REMARK    4  A    between atoms: C_14  and  C_15
REMARK    5  A    between atoms: C_15  and  C_16
REMARK    6  A    between atoms: C_18  and  C_20
REMARK    7  A    between atoms: C_23  and  O_26
REMARK    8  A    between atoms: C_24  and  O_28
REMARK    9  A    between atoms: C_25  and  O_30
REMARK                            x       y       z     vdW  Elec       q    Type
REMARK                         _______ _______ _______ _____ _____    ______ ____
ROOT
ATOM      1  N   UNL     1      32.539  -7.081 -23.560  0.00  0.00    -0.249 N 
ATOM      2  N   UNL     1      34.190  -6.742 -25.020  0.00  0.00    -0.385 NA
ATOM      3  N   UNL     1      30.983  -5.363 -24.284  0.00  0.00    -0.227 NA
ATOM      4  N   UNL     1      31.869  -4.104 -26.178  0.00  0.00    -0.227 NA
ATOM      5  C   UNL     1      33.779  -7.464 -23.999  0.00  0.00    +0.169 C 
ATOM      6  C   UNL     1      32.135  -6.047 -24.354  0.00  0.00    +0.167 C 
ATOM      7  C   UNL     1      33.171  -5.851 -25.253  0.00  0.00    +0.195 C 
ATOM      8  C   UNL     1      33.008  -4.837 -26.191  0.00  0.00    +0.155 C 
ATOM      9  C   UNL     1      30.941  -4.408 -25.238  0.00  0.00    +0.253 C 
ATOM     10  N   UNL     1      34.010  -4.569 -27.141  0.00  0.00    -0.341 N 
ATOM     11  H   UNL     1      33.884  -3.848 -27.800  0.00  0.00    +0.144 HD
ATOM     12  H   UNL     1      34.837  -5.103 -27.147  0.00  0.00    +0.144 HD
ENDROOT
BRANCH   1  13
ATOM     13  C   UNL     1      31.795  -7.657 -22.465  0.00  0.00    +0.100 C 
BRANCH  13  14
ATOM     14  C   UNL     1      32.010  -6.888 -21.159  0.00  0.00    +0.036 C 
BRANCH  14  15
ATOM     15  C   UNL     1      32.752  -7.711 -20.105  0.00  0.00    +0.079 C 
BRANCH  15  16
ATOM     16  C   UNL     1      32.049  -8.959 -19.776  0.00  0.00    -0.078 C 
ATOM     17  C   UNL     1      31.478  -9.980 -19.505  0.00  0.00    -0.014 C 
ENDBRANCH  15  16
ENDBRANCH  14  15
ENDBRANCH  13  14
ENDBRANCH   1  13
BRANCH   5  18
ATOM     18  C   UNL     1      34.529  -8.568 -23.364  0.00  0.00    +0.102 C 
BRANCH  18  20
ATOM     19 CL   UNL     1      35.575  -9.793 -25.969  0.00  0.00    -0.079 Cl
ATOM     20  C   UNL     1      34.025  -9.954 -23.744  0.00  0.00    +0.003 C 
ATOM     21  C   UNL     1      34.453 -10.570 -24.903  0.00  0.00    +0.091 C 
ATOM     22  C   UNL     1      33.131 -10.560 -22.881  0.00  0.00    +0.037 C 
ATOM     23  C   UNL     1      33.969 -11.840 -25.214  0.00  0.00    +0.186 C 
ATOM     24  C   UNL     1      32.646 -11.830 -23.192  0.00  0.00    +0.175 C 
ATOM     25  C   UNL     1      33.064 -12.470 -24.358  0.00  0.00    +0.207 C 
BRANCH  23  26
ATOM     26  O   UNL     1      34.367 -12.482 -26.351  0.00  0.00    -0.467 OA
ATOM     27  C   UNL     1      33.355 -12.806 -27.298  0.00  0.00    +0.253 C 
ENDBRANCH  23  26
BRANCH  24  28
ATOM     28  O   UNL     1      31.763 -12.434 -22.348  0.00  0.00    -0.468 OA
ATOM     29  C   UNL     1      32.306 -13.093 -21.207  0.00  0.00    +0.253 C 
ENDBRANCH  24  28
BRANCH  25  30
ATOM     30  O   UNL     1      32.590 -13.713 -24.660  0.00  0.00    -0.465 OA
ATOM     31  C   UNL     1      33.379 -14.824 -24.241  0.00  0.00    +0.253 C 
ENDBRANCH  25  30
ENDBRANCH  18  20
ENDBRANCH   5  18
TORSDOF 9
ENDMDL
