MODEL 1
REMARK VINA RESULT:      -6.8      0.000      0.000
REMARK  Name = 2726820
REMARK  0 active torsions:
REMARK  status: ('A' for Active; 'I' for Inactive)
REMARK                            x       y       z     vdW  Elec       q    Type
REMARK                         _______ _______ _______ _____ _____    ______ ____
ROOT
ATOM      1  S   UNL     1      33.258 -14.543 -23.360  0.00  0.00    -0.139 S 
ATOM      2  N   UNL     1      35.312 -17.560 -20.735  0.00  0.00    -0.337 NA
ATOM      3  N   UNL     1      35.364 -19.226 -22.466  0.00  0.00    -0.337 NA
ATOM      4  N   UNL     1      36.079 -19.732 -20.293  0.00  0.00    -0.283 N 
ATOM      5  C   UNL     1      34.550 -16.994 -22.951  0.00  0.00    +0.109 C 
ATOM      6  C   UNL     1      34.509 -15.303 -21.054  0.00  0.00    +0.067 C 
ATOM      7  C   UNL     1      34.816 -16.663 -21.624  0.00  0.00    +0.108 C 
ATOM      8  C   UNL     1      34.040 -16.047 -23.994  0.00  0.00    +0.071 C 
ATOM      9  C   UNL     1      34.473 -14.169 -22.070  0.00  0.00    +0.065 C 
ATOM     10  C   UNL     1      34.863 -18.300 -23.308  0.00  0.00    +0.107 C 
ATOM     11  C   UNL     1      34.669 -18.780 -24.711  0.00  0.00    +0.063 C 
ATOM     12  C   UNL     1      35.559 -18.793 -21.211  0.00  0.00    +0.195 C 
ATOM     13  H   UNL     1      36.242 -19.467 -19.358  0.00  0.00    +0.156 HD
ATOM     14  H   UNL     1      36.279 -20.650 -20.587  0.00  0.00    +0.156 HD
ENDROOT
TORSDOF 0
ENDMDL
MODEL 2
REMARK VINA RESULT:      -6.7      3.494      4.500
REMARK  Name = 2726820
REMARK  0 active torsions:
REMARK  status: ('A' for Active; 'I' for Inactive)
REMARK                            x       y       z     vdW  Elec       q    Type
REMARK                         _______ _______ _______ _____ _____    ______ ____
ROOT
ATOM      1  S   UNL     1      34.486 -15.627 -20.864  0.00  0.00    -0.139 S 
ATOM      2  N   UNL     1      32.917 -13.862 -24.689  0.00  0.00    -0.337 NA
ATOM      3  N   UNL     1      33.748 -15.680 -26.023  0.00  0.00    -0.337 NA
ATOM      4  N   UNL     1      32.763 -13.807 -27.028  0.00  0.00    -0.283 N 
ATOM      5  C   UNL     1      33.936 -15.760 -23.607  0.00  0.00    +0.109 C 
ATOM      6  C   UNL     1      33.052 -13.783 -22.277  0.00  0.00    +0.067 C 
ATOM      7  C   UNL     1      33.301 -14.521 -23.567  0.00  0.00    +0.108 C 
ATOM      8  C   UNL     1      34.352 -16.560 -22.409  0.00  0.00    +0.071 C 
ATOM      9  C   UNL     1      32.965 -14.660 -21.036  0.00  0.00    +0.065 C 
ATOM     10  C   UNL     1      34.116 -16.290 -24.878  0.00  0.00    +0.107 C 
ATOM     11  C   UNL     1      34.747 -17.633 -25.068  0.00  0.00    +0.063 C 
ATOM     12  C   UNL     1      33.163 -14.485 -25.856  0.00  0.00    +0.195 C 
ATOM     13  H   UNL     1      32.329 -12.926 -26.964  0.00  0.00    +0.156 HD
ATOM     14  H   UNL     1      32.918 -14.216 -27.910  0.00  0.00    +0.156 HD
ENDROOT
TORSDOF 0
ENDMDL
MODEL 3
REMARK VINA RESULT:      -6.7      3.956      5.492
REMARK  Name = 2726820
REMARK  0 active torsions:
REMARK  status: ('A' for Active; 'I' for Inactive)
REMARK                            x       y       z     vdW  Elec       q    Type
REMARK                         _______ _______ _______ _____ _____    ______ ____
ROOT
ATOM      1  S   UNL     1      35.037 -19.207 -21.960  0.00  0.00    -0.139 S 
ATOM      2  N   UNL     1      32.751 -21.827 -19.110  0.00  0.00    -0.337 NA
ATOM      3  N   UNL     1      34.748 -22.649 -18.057  0.00  0.00    -0.337 NA
ATOM      4  N   UNL     1      32.648 -23.516 -17.487  0.00  0.00    -0.283 N 
ATOM      5  C   UNL     1      34.890 -20.912 -19.743  0.00  0.00    +0.109 C 
ATOM      6  C   UNL     1      32.729 -20.120 -20.821  0.00  0.00    +0.067 C 
ATOM      7  C   UNL     1      33.501 -20.965 -19.842  0.00  0.00    +0.108 C 
ATOM      8  C   UNL     1      35.776 -19.962 -20.491  0.00  0.00    +0.071 C 
ATOM      9  C   UNL     1      33.417 -18.829 -21.244  0.00  0.00    +0.065 C 
ATOM     10  C   UNL     1      35.449 -21.780 -18.813  0.00  0.00    +0.107 C 
ATOM     11  C   UNL     1      36.925 -21.800 -18.571  0.00  0.00    +0.063 C 
ATOM     12  C   UNL     1      33.422 -22.620 -18.256  0.00  0.00    +0.195 C 
ATOM     13  H   UNL     1      31.669 -23.537 -17.593  0.00  0.00    +0.156 HD
ATOM     14  H   UNL     1      33.087 -24.120 -16.846  0.00  0.00    +0.156 HD
ENDROOT
TORSDOF 0
ENDMDL
MODEL 4
REMARK VINA RESULT:      -6.6      1.061      2.916
REMARK  Name = 2726820
REMARK  0 active torsions:
REMARK  status: ('A' for Active; 'I' for Inactive)
REMARK                            x       y       z     vdW  Elec       q    Type
REMARK                         _______ _______ _______ _____ _____    ______ ____
ROOT
ATOM      1  S   UNL     1      33.836 -15.214 -25.193  0.00  0.00    -0.139 S 
ATOM      2  N   UNL     1      35.659 -18.424 -22.628  0.00  0.00    -0.337 NA
ATOM      3  N   UNL     1      35.361 -17.162 -20.605  0.00  0.00    -0.337 NA
ATOM      4  N   UNL     1      36.513 -19.202 -20.586  0.00  0.00    -0.283 N 
ATOM      5  C   UNL     1      34.480 -16.324 -22.703  0.00  0.00    +0.109 C 
ATOM      6  C   UNL     1      34.863 -17.713 -24.796  0.00  0.00    +0.067 C 
ATOM      7  C   UNL     1      34.979 -17.472 -23.313  0.00  0.00    +0.108 C 
ATOM      8  C   UNL     1      33.689 -15.251 -23.389  0.00  0.00    +0.071 C 
ATOM      9  C   UNL     1      33.706 -16.997 -25.479  0.00  0.00    +0.065 C 
ATOM     10  C   UNL     1      34.698 -16.241 -21.333  0.00  0.00    +0.107 C 
ATOM     11  C   UNL     1      34.180 -15.083 -20.541  0.00  0.00    +0.063 C 
ATOM     12  C   UNL     1      35.809 -18.213 -21.308  0.00  0.00    +0.195 C 
ATOM     13  H   UNL     1      36.864 -19.995 -21.052  0.00  0.00    +0.156 HD
ATOM     14  H   UNL     1      36.652 -19.099 -19.617  0.00  0.00    +0.156 HD
ENDROOT
TORSDOF 0
ENDMDL
MODEL 5
REMARK VINA RESULT:      -6.5      3.408      5.172
REMARK  Name = 2726820
REMARK  0 active torsions:
REMARK  status: ('A' for Active; 'I' for Inactive)
REMARK                            x       y       z     vdW  Elec       q    Type
REMARK                         _______ _______ _______ _____ _____    ______ ____
ROOT
ATOM      1  S   UNL     1      34.680 -18.294 -22.123  0.00  0.00    -0.139 S 
ATOM      2  N   UNL     1      33.834 -16.027 -25.911  0.00  0.00    -0.337 NA
ATOM      3  N   UNL     1      33.200 -14.032 -24.732  0.00  0.00    -0.337 NA
ATOM      4  N   UNL     1      32.983 -14.168 -27.061  0.00  0.00    -0.283 N 
ATOM      5  C   UNL     1      34.062 -15.943 -23.513  0.00  0.00    +0.109 C 
ATOM      6  C   UNL     1      34.686 -18.018 -24.840  0.00  0.00    +0.067 C 
ATOM      7  C   UNL     1      34.195 -16.598 -24.735  0.00  0.00    +0.108 C 
ATOM      8  C   UNL     1      34.474 -16.497 -22.183  0.00  0.00    +0.071 C 
ATOM      9  C   UNL     1      35.568 -18.485 -23.690  0.00  0.00    +0.065 C 
ATOM     10  C   UNL     1      33.565 -14.647 -23.589  0.00  0.00    +0.107 C 
ATOM     11  C   UNL     1      33.410 -13.811 -22.359  0.00  0.00    +0.063 C 
ATOM     12  C   UNL     1      33.358 -14.771 -25.840  0.00  0.00    +0.195 C 
ATOM     13  H   UNL     1      33.078 -14.666 -27.905  0.00  0.00    +0.156 HD
ATOM     14  H   UNL     1      32.628 -13.250 -27.068  0.00  0.00    +0.156 HD
ENDROOT
TORSDOF 0
ENDMDL
MODEL 6
REMARK VINA RESULT:      -6.5      7.916      9.591
REMARK  Name = 2726820
REMARK  0 active torsions:
REMARK  status: ('A' for Active; 'I' for Inactive)
REMARK                            x       y       z     vdW  Elec       q    Type
REMARK                         _______ _______ _______ _____ _____    ______ ____
ROOT
ATOM      1  S   UNL     1      31.079 -23.571 -13.506  0.00  0.00    -0.139 S 
ATOM      2  N   UNL     1      32.079 -22.702 -17.801  0.00  0.00    -0.337 NA
ATOM      3  N   UNL     1      34.432 -23.051 -17.462  0.00  0.00    -0.337 NA
ATOM      4  N   UNL     1      33.618 -22.284 -19.521  0.00  0.00    -0.283 N 
ATOM      5  C   UNL     1      32.867 -23.477 -15.660  0.00  0.00    +0.109 C 
ATOM      6  C   UNL     1      30.400 -23.058 -16.100  0.00  0.00    +0.067 C 
ATOM      7  C   UNL     1      31.843 -23.106 -16.528  0.00  0.00    +0.108 C 
ATOM      8  C   UNL     1      32.678 -23.968 -14.256  0.00  0.00    +0.071 C 
ATOM      9  C   UNL     1      30.040 -23.968 -14.934  0.00  0.00    +0.065 C 
ATOM     10  C   UNL     1      34.146 -23.437 -16.203  0.00  0.00    +0.107 C 
ATOM     11  C   UNL     1      35.336 -23.850 -15.396  0.00  0.00    +0.063 C 
ATOM     12  C   UNL     1      33.365 -22.700 -18.196  0.00  0.00    +0.195 C 
ATOM     13  H   UNL     1      32.871 -22.016 -20.104  0.00  0.00    +0.156 HD
ATOM     14  H   UNL     1      34.541 -22.263 -19.863  0.00  0.00    +0.156 HD
ENDROOT
TORSDOF 0
ENDMDL
MODEL 7
REMARK VINA RESULT:      -6.4      7.870      9.548
REMARK  Name = 2726820
REMARK  0 active torsions:
REMARK  status: ('A' for Active; 'I' for Inactive)
REMARK                            x       y       z     vdW  Elec       q    Type
REMARK                         _______ _______ _______ _____ _____    ______ ____
ROOT
ATOM      1  S   UNL     1      34.873 -24.362 -13.412  0.00  0.00    -0.139 S 
ATOM      2  N   UNL     1      34.506 -22.828 -17.622  0.00  0.00    -0.337 NA
ATOM      3  N   UNL     1      32.104 -22.891 -17.576  0.00  0.00    -0.337 NA
ATOM      4  N   UNL     1      33.252 -22.355 -19.547  0.00  0.00    -0.283 N 
ATOM      5  C   UNL     1      33.373 -23.400 -15.573  0.00  0.00    +0.109 C 
ATOM      6  C   UNL     1      35.908 -23.332 -15.720  0.00  0.00    +0.067 C 
ATOM      7  C   UNL     1      34.532 -23.164 -16.308  0.00  0.00    +0.108 C 
ATOM      8  C   UNL     1      33.326 -23.738 -14.113  0.00  0.00    +0.071 C 
ATOM      9  C   UNL     1      35.989 -23.178 -14.207  0.00  0.00    +0.065 C 
ATOM     10  C   UNL     1      32.185 -23.231 -16.274  0.00  0.00    +0.107 C 
ATOM     11  C   UNL     1      30.862 -23.411 -15.598  0.00  0.00    +0.063 C 
ATOM     12  C   UNL     1      33.288 -22.709 -18.180  0.00  0.00    +0.195 C 
ATOM     13  H   UNL     1      34.092 -22.209 -20.039  0.00  0.00    +0.156 HD
ATOM     14  H   UNL     1      32.388 -22.254 -20.006  0.00  0.00    +0.156 HD
ENDROOT
TORSDOF 0
ENDMDL
MODEL 8
REMARK VINA RESULT:      -6.4      1.707      3.313
REMARK  Name = 2726820
REMARK  0 active torsions:
REMARK  status: ('A' for Active; 'I' for Inactive)
REMARK                            x       y       z     vdW  Elec       q    Type
REMARK                         _______ _______ _______ _____ _____    ______ ____
ROOT
ATOM      1  S   UNL     1      33.659 -12.926 -24.554  0.00  0.00    -0.139 S 
ATOM      2  N   UNL     1      34.372 -17.360 -24.759  0.00  0.00    -0.337 NA
ATOM      3  N   UNL     1      34.877 -17.521 -22.415  0.00  0.00    -0.337 NA
ATOM      4  N   UNL     1      35.108 -19.380 -23.822  0.00  0.00    -0.283 N 
ATOM      5  C   UNL     1      34.133 -15.414 -23.357  0.00  0.00    +0.109 C 
ATOM      6  C   UNL     1      33.643 -15.330 -25.849  0.00  0.00    +0.067 C 
ATOM      7  C   UNL     1      34.044 -16.055 -24.591  0.00  0.00    +0.108 C 
ATOM      8  C   UNL     1      33.752 -13.989 -23.091  0.00  0.00    +0.071 C 
ATOM      9  C   UNL     1      32.789 -14.088 -25.637  0.00  0.00    +0.065 C 
ATOM     10  C   UNL     1      34.547 -16.218 -22.303  0.00  0.00    +0.107 C 
ATOM     11  C   UNL     1      34.647 -15.673 -20.914  0.00  0.00    +0.063 C 
ATOM     12  C   UNL     1      34.769 -18.020 -23.656  0.00  0.00    +0.195 C 
ATOM     13  H   UNL     1      35.047 -19.798 -24.712  0.00  0.00    +0.156 HD
ATOM     14  H   UNL     1      35.406 -19.911 -23.049  0.00  0.00    +0.156 HD
ENDROOT
TORSDOF 0
ENDMDL
MODEL 9
REMARK VINA RESULT:      -6.3      3.170      4.415
REMARK  Name = 2726820
REMARK  0 active torsions:
REMARK  status: ('A' for Active; 'I' for Inactive)
REMARK                            x       y       z     vdW  Elec       q    Type
REMARK                         _______ _______ _______ _____ _____    ______ ____
ROOT
ATOM      1  S   UNL     1      35.797 -17.889 -22.698  0.00  0.00    -0.139 S 
ATOM      2  N   UNL     1      33.419 -14.170 -21.844  0.00  0.00    -0.337 NA
ATOM      3  N   UNL     1      32.875 -13.827 -24.160  0.00  0.00    -0.337 NA
ATOM      4  N   UNL     1      32.271 -12.247 -22.539  0.00  0.00    -0.283 N 
ATOM      5  C   UNL     1      34.077 -15.819 -23.475  0.00  0.00    +0.109 C 
ATOM      6  C   UNL     1      34.630 -16.088 -21.009  0.00  0.00    +0.067 C 
ATOM      7  C   UNL     1      34.004 -15.352 -22.164  0.00  0.00    +0.108 C 
ATOM      8  C   UNL     1      34.673 -17.128 -23.896  0.00  0.00    +0.071 C 
ATOM      9  C   UNL     1      34.803 -17.586 -21.214  0.00  0.00    +0.065 C 
ATOM     10  C   UNL     1      33.475 -15.005 -24.426  0.00  0.00    +0.107 C 
ATOM     11  C   UNL     1      33.442 -15.404 -25.868  0.00  0.00    +0.063 C 
ATOM     12  C   UNL     1      32.885 -13.476 -22.865  0.00  0.00    +0.195 C 
ATOM     13  H   UNL     1      32.249 -11.940 -21.603  0.00  0.00    +0.156 HD
ATOM     14  H   UNL     1      31.864 -11.697 -23.247  0.00  0.00    +0.156 HD
ENDROOT
TORSDOF 0
ENDMDL
