MODEL 1
REMARK VINA RESULT:      -8.5      0.000      0.000
REMARK  Name = 6857
REMARK  7 active torsions:
REMARK  status: ('A' for Active; 'I' for Inactive)
REMARK    1  A    between atoms: C_2  and  C_18
REMARK    2  A    between atoms: C_6  and  O_11
REMARK    3  A    between atoms: O_11  and  C_12
REMARK    4  A    between atoms: C_12  and  C_13
REMARK    5  A    between atoms: C_13  and  N_14
REMARK    6  A    between atoms: C_18  and  C_19
REMARK    7  A    between atoms: C_19  and  C_20
REMARK                            x       y       z     vdW  Elec       q    Type
REMARK                         _______ _______ _______ _____ _____    ______ ____
ROOT
ATOM      1  N   UNL     1      34.791 -23.170 -17.092  0.00  0.00    -0.376 NA
ATOM      2  C   UNL     1      33.801 -22.857 -17.954  0.00  0.00    +0.095 C 
ATOM      3  C   UNL     1      32.095 -23.072 -16.287  0.00  0.00    -0.010 C 
ATOM      4  C   UNL     1      33.103 -23.402 -15.357  0.00  0.00    +0.062 C 
ATOM      5  C   UNL     1      32.458 -22.795 -17.611  0.00  0.00    +0.081 C 
ATOM      6  C   UNL     1      34.420 -23.434 -15.819  0.00  0.00    +0.276 C 
ATOM      7  C   UNL     1      30.757 -23.029 -15.860  0.00  0.00    -0.004 C 
ATOM      8  C   UNL     1      32.758 -23.683 -14.025  0.00  0.00    +0.005 C 
ATOM      9  C   UNL     1      30.427 -23.311 -14.533  0.00  0.00    -0.000 C 
ATOM     10  C   UNL     1      31.425 -23.637 -13.618  0.00  0.00    +0.000 C 
ENDROOT
BRANCH   6  11
ATOM     11  O   UNL     1      35.444 -23.750 -14.962  0.00  0.00    -0.454 OA
BRANCH  11  12
ATOM     12  C   UNL     1      36.764 -23.482 -15.418  0.00  0.00    +0.186 C 
BRANCH  12  13
ATOM     13  C   UNL     1      37.750 -24.188 -14.501  0.00  0.00    -0.029 C 
BRANCH  13  14
ATOM     14  N   UNL     1      38.287 -25.378 -15.143  0.00  0.00    +0.387 N 
ATOM     15  C   UNL     1      37.597 -26.580 -14.665  0.00  0.00    -0.101 C 
ATOM     16  C   UNL     1      39.727 -25.493 -14.902  0.00  0.00    -0.101 C 
ATOM     17  H   UNL     1      38.131 -25.292 -16.147  0.00  0.00    -0.080 HD
ENDBRANCH  13  14
ENDBRANCH  12  13
ENDBRANCH  11  12
ENDBRANCH   6  11
BRANCH   2  18
ATOM     18  C   UNL     1      34.208 -22.563 -19.359  0.00  0.00    +0.055 C 
BRANCH  18  19
ATOM     19  C   UNL     1      35.025 -21.266 -19.468  0.00  0.00    +0.007 C 
BRANCH  19  20
ATOM     20  C   UNL     1      34.455 -20.326 -20.529  0.00  0.00    +0.000 C 
ATOM     21  C   UNL     1      32.950 -20.166 -20.382  0.00  0.00    +0.000 C 
ENDBRANCH  19  20
ENDBRANCH  18  19
ENDBRANCH   2  18
TORSDOF 7
ENDMDL
MODEL 2
REMARK VINA RESULT:      -8.4      1.627      4.953
REMARK  Name = 6857
REMARK  7 active torsions:
REMARK  status: ('A' for Active; 'I' for Inactive)
REMARK    1  A    between atoms: C_2  and  C_18
REMARK    2  A    between atoms: C_6  and  O_11
REMARK    3  A    between atoms: O_11  and  C_12
REMARK    4  A    between atoms: C_12  and  C_13
REMARK    5  A    between atoms: C_13  and  N_14
REMARK    6  A    between atoms: C_18  and  C_19
REMARK    7  A    between atoms: C_19  and  C_20
REMARK                            x       y       z     vdW  Elec       q    Type
REMARK                         _______ _______ _______ _____ _____    ______ ____
ROOT
ATOM      1  N   UNL     1      34.639 -22.877 -17.394  0.00  0.00    -0.376 NA
ATOM      2  C   UNL     1      33.316 -22.792 -17.653  0.00  0.00    +0.095 C 
ATOM      3  C   UNL     1      33.632 -21.285 -19.486  0.00  0.00    -0.010 C 
ATOM      4  C   UNL     1      35.020 -21.348 -19.246  0.00  0.00    +0.062 C 
ATOM      5  C   UNL     1      32.768 -22.024 -18.669  0.00  0.00    +0.081 C 
ATOM      6  C   UNL     1      35.456 -22.156 -18.193  0.00  0.00    +0.276 C 
ATOM      7  C   UNL     1      33.156 -20.483 -20.537  0.00  0.00    -0.004 C 
ATOM      8  C   UNL     1      35.903 -20.614 -20.056  0.00  0.00    +0.005 C 
ATOM      9  C   UNL     1      34.042 -19.757 -21.334  0.00  0.00    -0.000 C 
ATOM     10  C   UNL     1      35.413 -19.823 -21.094  0.00  0.00    +0.000 C 
ENDROOT
BRANCH   6  11
ATOM     11  O   UNL     1      36.795 -22.258 -17.911  0.00  0.00    -0.454 OA
BRANCH  11  12
ATOM     12  C   UNL     1      37.210 -21.823 -16.622  0.00  0.00    +0.186 C 
BRANCH  12  13
ATOM     13  C   UNL     1      37.804 -23.006 -15.876  0.00  0.00    -0.029 C 
BRANCH  13  14
ATOM     14  N   UNL     1      36.752 -23.841 -15.317  0.00  0.00    +0.387 N 
ATOM     15  C   UNL     1      36.135 -23.190 -14.159  0.00  0.00    -0.101 C 
ATOM     16  C   UNL     1      37.279 -25.154 -14.937  0.00  0.00    -0.101 C 
ATOM     17  H   UNL     1      36.040 -23.973 -16.034  0.00  0.00    -0.080 HD
ENDBRANCH  13  14
ENDBRANCH  12  13
ENDBRANCH  11  12
ENDBRANCH   6  11
BRANCH   2  18
ATOM     18  C   UNL     1      32.412 -23.589 -16.773  0.00  0.00    +0.055 C 
BRANCH  18  19
ATOM     19  C   UNL     1      31.092 -22.860 -16.483  0.00  0.00    +0.007 C 
BRANCH  19  20
ATOM     20  C   UNL     1      30.030 -23.810 -15.932  0.00  0.00    +0.000 C 
ATOM     21  C   UNL     1      30.561 -24.623 -14.762  0.00  0.00    +0.000 C 
ENDBRANCH  19  20
ENDBRANCH  18  19
ENDBRANCH   2  18
TORSDOF 7
ENDMDL
MODEL 3
REMARK VINA RESULT:      -8.3      0.900      1.173
REMARK  Name = 6857
REMARK  7 active torsions:
REMARK  status: ('A' for Active; 'I' for Inactive)
REMARK    1  A    between atoms: C_2  and  C_18
REMARK    2  A    between atoms: C_6  and  O_11
REMARK    3  A    between atoms: O_11  and  C_12
REMARK    4  A    between atoms: C_12  and  C_13
REMARK    5  A    between atoms: C_13  and  N_14
REMARK    6  A    between atoms: C_18  and  C_19
REMARK    7  A    between atoms: C_19  and  C_20
REMARK                            x       y       z     vdW  Elec       q    Type
REMARK                         _______ _______ _______ _____ _____    ______ ____
ROOT
ATOM      1  N   UNL     1      34.707 -23.196 -16.837  0.00  0.00    -0.376 NA
ATOM      2  C   UNL     1      33.774 -22.866 -17.756  0.00  0.00    +0.095 C 
ATOM      3  C   UNL     1      31.964 -23.114 -16.208  0.00  0.00    -0.010 C 
ATOM      4  C   UNL     1      32.909 -23.463 -15.221  0.00  0.00    +0.062 C 
ATOM      5  C   UNL     1      32.412 -22.811 -17.500  0.00  0.00    +0.081 C 
ATOM      6  C   UNL     1      34.254 -23.486 -15.597  0.00  0.00    +0.276 C 
ATOM      7  C   UNL     1      30.601 -23.081 -15.868  0.00  0.00    -0.004 C 
ATOM      8  C   UNL     1      32.479 -23.771 -13.920  0.00  0.00    +0.005 C 
ATOM      9  C   UNL     1      30.185 -23.389 -14.572  0.00  0.00    -0.000 C 
ATOM     10  C   UNL     1      31.122 -23.734 -13.600  0.00  0.00    +0.000 C 
ENDROOT
BRANCH   6  11
ATOM     11  O   UNL     1      35.220 -23.818 -14.681  0.00  0.00    -0.454 OA
BRANCH  11  12
ATOM     12  C   UNL     1      36.074 -24.904 -15.020  0.00  0.00    +0.186 C 
BRANCH  12  13
ATOM     13  C   UNL     1      37.515 -24.483 -14.784  0.00  0.00    -0.029 C 
BRANCH  13  14
ATOM     14  N   UNL     1      38.119 -25.286 -13.731  0.00  0.00    +0.387 N 
ATOM     15  C   UNL     1      37.311 -26.479 -13.462  0.00  0.00    -0.101 C 
ATOM     16  C   UNL     1      38.282 -24.500 -12.506  0.00  0.00    -0.101 C 
ATOM     17  H   UNL     1      39.040 -25.583 -14.051  0.00  0.00    -0.080 HD
ENDBRANCH  13  14
ENDBRANCH  12  13
ENDBRANCH  11  12
ENDBRANCH   6  11
BRANCH   2  18
ATOM     18  C   UNL     1      34.272 -22.544 -19.125  0.00  0.00    +0.055 C 
BRANCH  18  19
ATOM     19  C   UNL     1      33.494 -21.385 -19.768  0.00  0.00    +0.007 C 
BRANCH  19  20
ATOM     20  C   UNL     1      34.432 -20.347 -20.384  0.00  0.00    +0.000 C 
ATOM     21  C   UNL     1      35.891 -20.722 -20.178  0.00  0.00    +0.000 C 
ENDBRANCH  19  20
ENDBRANCH  18  19
ENDBRANCH   2  18
TORSDOF 7
ENDMDL
MODEL 4
REMARK VINA RESULT:      -8.1      2.505      5.299
REMARK  Name = 6857
REMARK  7 active torsions:
REMARK  status: ('A' for Active; 'I' for Inactive)
REMARK    1  A    between atoms: C_2  and  C_18
REMARK    2  A    between atoms: C_6  and  O_11
REMARK    3  A    between atoms: O_11  and  C_12
REMARK    4  A    between atoms: C_12  and  C_13
REMARK    5  A    between atoms: C_13  and  N_14
REMARK    6  A    between atoms: C_18  and  C_19
REMARK    7  A    between atoms: C_19  and  C_20
REMARK                            x       y       z     vdW  Elec       q    Type
REMARK                         _______ _______ _______ _____ _____    ______ ____
ROOT
ATOM      1  N   UNL     1      32.864 -22.180 -18.765  0.00  0.00    -0.376 NA
ATOM      2  C   UNL     1      33.766 -21.444 -19.450  0.00  0.00    +0.095 C 
ATOM      3  C   UNL     1      35.549 -21.980 -17.944  0.00  0.00    -0.010 C 
ATOM      4  C   UNL     1      34.636 -22.759 -17.204  0.00  0.00    +0.062 C 
ATOM      5  C   UNL     1      35.099 -21.312 -19.089  0.00  0.00    +0.081 C 
ATOM      6  C   UNL     1      33.319 -22.817 -17.664  0.00  0.00    +0.276 C 
ATOM      7  C   UNL     1      36.884 -21.897 -17.514  0.00  0.00    -0.004 C 
ATOM      8  C   UNL     1      35.070 -23.437 -16.053  0.00  0.00    +0.005 C 
ATOM      9  C   UNL     1      37.303 -22.575 -16.368  0.00  0.00    -0.000 C 
ATOM     10  C   UNL     1      36.398 -23.343 -15.639  0.00  0.00    +0.000 C 
ENDROOT
BRANCH   6  11
ATOM     11  O   UNL     1      32.384 -23.558 -16.985  0.00  0.00    -0.454 OA
BRANCH  11  12
ATOM     12  C   UNL     1      31.206 -22.876 -16.572  0.00  0.00    +0.186 C 
BRANCH  12  13
ATOM     13  C   UNL     1      30.962 -23.171 -15.102  0.00  0.00    -0.029 C 
BRANCH  13  14
ATOM     14  N   UNL     1      29.764 -23.980 -14.932  0.00  0.00    +0.387 N 
ATOM     15  C   UNL     1      30.110 -25.400 -14.823  0.00  0.00    -0.101 C 
ATOM     16  C   UNL     1      28.834 -23.770 -16.043  0.00  0.00    -0.101 C 
ATOM     17  H   UNL     1      29.308 -23.690 -14.067  0.00  0.00    -0.080 HD
ENDBRANCH  13  14
ENDBRANCH  12  13
ENDBRANCH  11  12
ENDBRANCH   6  11
BRANCH   2  18
ATOM     18  C   UNL     1      33.267 -20.742 -20.668  0.00  0.00    +0.055 C 
BRANCH  18  19
ATOM     19  C   UNL     1      34.021 -19.430 -20.933  0.00  0.00    +0.007 C 
BRANCH  19  20
ATOM     20  C   UNL     1      34.642 -19.407 -22.329  0.00  0.00    +0.000 C 
ATOM     21  C   UNL     1      35.747 -18.367 -22.430  0.00  0.00    +0.000 C 
ENDBRANCH  19  20
ENDBRANCH  18  19
ENDBRANCH   2  18
TORSDOF 7
ENDMDL
MODEL 5
REMARK VINA RESULT:      -8.1      1.083      4.355
REMARK  Name = 6857
REMARK  7 active torsions:
REMARK  status: ('A' for Active; 'I' for Inactive)
REMARK    1  A    between atoms: C_2  and  C_18
REMARK    2  A    between atoms: C_6  and  O_11
REMARK    3  A    between atoms: O_11  and  C_12
REMARK    4  A    between atoms: C_12  and  C_13
REMARK    5  A    between atoms: C_13  and  N_14
REMARK    6  A    between atoms: C_18  and  C_19
REMARK    7  A    between atoms: C_19  and  C_20
REMARK                            x       y       z     vdW  Elec       q    Type
REMARK                         _______ _______ _______ _____ _____    ______ ____
ROOT
ATOM      1  N   UNL     1      34.047 -23.522 -16.069  0.00  0.00    -0.376 NA
ATOM      2  C   UNL     1      32.808 -23.315 -16.567  0.00  0.00    +0.095 C 
ATOM      3  C   UNL     1      33.623 -22.079 -18.450  0.00  0.00    -0.010 C 
ATOM      4  C   UNL     1      34.931 -22.276 -17.961  0.00  0.00    +0.062 C 
ATOM      5  C   UNL     1      32.544 -22.612 -17.733  0.00  0.00    +0.081 C 
ATOM      6  C   UNL     1      35.074 -23.000 -16.775  0.00  0.00    +0.276 C 
ATOM      7  C   UNL     1      33.439 -21.356 -19.640  0.00  0.00    -0.004 C 
ATOM      8  C   UNL     1      36.026 -21.749 -18.666  0.00  0.00    +0.005 C 
ATOM      9  C   UNL     1      34.534 -20.837 -20.332  0.00  0.00    -0.000 C 
ATOM     10  C   UNL     1      35.825 -21.033 -19.845  0.00  0.00    +0.000 C 
ENDROOT
BRANCH   6  11
ATOM     11  O   UNL     1      36.322 -23.223 -16.251  0.00  0.00    -0.454 OA
BRANCH  11  12
ATOM     12  C   UNL     1      36.391 -24.065 -15.106  0.00  0.00    +0.186 C 
BRANCH  12  13
ATOM     13  C   UNL     1      37.850 -24.241 -14.718  0.00  0.00    -0.029 C 
BRANCH  13  14
ATOM     14  N   UNL     1      38.350 -25.531 -15.170  0.00  0.00    +0.387 N 
ATOM     15  C   UNL     1      37.427 -26.605 -14.792  0.00  0.00    -0.101 C 
ATOM     16  C   UNL     1      39.682 -25.793 -14.621  0.00  0.00    -0.101 C 
ATOM     17  H   UNL     1      38.418 -25.504 -16.187  0.00  0.00    -0.080 HD
ENDBRANCH  13  14
ENDBRANCH  12  13
ENDBRANCH  11  12
ENDBRANCH   6  11
BRANCH   2  18
ATOM     18  C   UNL     1      31.673 -23.893 -15.790  0.00  0.00    +0.055 C 
BRANCH  18  19
ATOM     19  C   UNL     1      30.892 -22.819 -15.017  0.00  0.00    +0.007 C 
BRANCH  19  20
ATOM     20  C   UNL     1      29.424 -22.774 -15.438  0.00  0.00    +0.000 C 
ATOM     21  C   UNL     1      28.964 -24.109 -16.003  0.00  0.00    +0.000 C 
ENDBRANCH  19  20
ENDBRANCH  18  19
ENDBRANCH   2  18
TORSDOF 7
ENDMDL
MODEL 6
REMARK VINA RESULT:      -7.9      1.689      5.627
REMARK  Name = 6857
REMARK  7 active torsions:
REMARK  status: ('A' for Active; 'I' for Inactive)
REMARK    1  A    between atoms: C_2  and  C_18
REMARK    2  A    between atoms: C_6  and  O_11
REMARK    3  A    between atoms: O_11  and  C_12
REMARK    4  A    between atoms: C_12  and  C_13
REMARK    5  A    between atoms: C_13  and  N_14
REMARK    6  A    between atoms: C_18  and  C_19
REMARK    7  A    between atoms: C_19  and  C_20
REMARK                            x       y       z     vdW  Elec       q    Type
REMARK                         _______ _______ _______ _____ _____    ______ ____
ROOT
ATOM      1  N   UNL     1      34.539 -23.430 -16.926  0.00  0.00    -0.376 NA
ATOM      2  C   UNL     1      34.830 -23.770 -15.652  0.00  0.00    +0.095 C 
ATOM      3  C   UNL     1      32.558 -23.544 -14.928  0.00  0.00    -0.010 C 
ATOM      4  C   UNL     1      32.216 -23.185 -16.248  0.00  0.00    +0.062 C 
ATOM      5  C   UNL     1      33.894 -23.841 -14.630  0.00  0.00    +0.081 C 
ATOM      6  C   UNL     1      33.245 -23.147 -17.192  0.00  0.00    +0.276 C 
ATOM      7  C   UNL     1      31.551 -23.594 -13.950  0.00  0.00    -0.004 C 
ATOM      8  C   UNL     1      30.882 -22.884 -16.566  0.00  0.00    +0.005 C 
ATOM      9  C   UNL     1      30.229 -23.292 -14.277  0.00  0.00    -0.000 C 
ATOM     10  C   UNL     1      29.895 -22.937 -15.583  0.00  0.00    +0.000 C 
ENDROOT
BRANCH   6  11
ATOM     11  O   UNL     1      32.973 -22.805 -18.493  0.00  0.00    -0.454 OA
BRANCH  11  12
ATOM     12  C   UNL     1      34.041 -22.230 -19.237  0.00  0.00    +0.186 C 
BRANCH  12  13
ATOM     13  C   UNL     1      33.544 -20.954 -19.897  0.00  0.00    -0.029 C 
BRANCH  13  14
ATOM     14  N   UNL     1      34.660 -20.086 -20.240  0.00  0.00    +0.387 N 
ATOM     15  C   UNL     1      34.504 -19.552 -21.595  0.00  0.00    -0.101 C 
ATOM     16  C   UNL     1      35.932 -20.803 -20.123  0.00  0.00    -0.101 C 
ATOM     17  H   UNL     1      34.666 -19.306 -19.582  0.00  0.00    -0.080 HD
ENDBRANCH  13  14
ENDBRANCH  12  13
ENDBRANCH  11  12
ENDBRANCH   6  11
BRANCH   2  18
ATOM     18  C   UNL     1      36.258 -24.085 -15.355  0.00  0.00    +0.055 C 
BRANCH  18  19
ATOM     19  C   UNL     1      36.459 -25.557 -14.963  0.00  0.00    +0.007 C 
BRANCH  19  20
ATOM     20  C   UNL     1      37.933 -25.884 -14.727  0.00  0.00    +0.000 C 
ATOM     21  C   UNL     1      38.395 -25.416 -13.356  0.00  0.00    +0.000 C 
ENDBRANCH  19  20
ENDBRANCH  18  19
ENDBRANCH   2  18
TORSDOF 7
ENDMDL
MODEL 7
REMARK VINA RESULT:      -7.9      5.565     10.299
REMARK  Name = 6857
REMARK  7 active torsions:
REMARK  status: ('A' for Active; 'I' for Inactive)
REMARK    1  A    between atoms: C_2  and  C_18
REMARK    2  A    between atoms: C_6  and  O_11
REMARK    3  A    between atoms: O_11  and  C_12
REMARK    4  A    between atoms: C_12  and  C_13
REMARK    5  A    between atoms: C_13  and  N_14
REMARK    6  A    between atoms: C_18  and  C_19
REMARK    7  A    between atoms: C_19  and  C_20
REMARK                            x       y       z     vdW  Elec       q    Type
REMARK                         _______ _______ _______ _____ _____    ______ ____
ROOT
ATOM      1  N   UNL     1      35.529 -17.686 -20.712  0.00  0.00    -0.376 NA
ATOM      2  C   UNL     1      35.698 -18.970 -21.096  0.00  0.00    +0.095 C 
ATOM      3  C   UNL     1      34.977 -18.537 -23.338  0.00  0.00    -0.010 C 
ATOM      4  C   UNL     1      34.789 -17.188 -22.974  0.00  0.00    +0.062 C 
ATOM      5  C   UNL     1      35.441 -19.442 -22.374  0.00  0.00    +0.081 C 
ATOM      6  C   UNL     1      35.081 -16.830 -21.656  0.00  0.00    +0.276 C 
ATOM      7  C   UNL     1      34.695 -18.937 -24.655  0.00  0.00    -0.004 C 
ATOM      8  C   UNL     1      34.324 -16.266 -23.927  0.00  0.00    +0.005 C 
ATOM      9  C   UNL     1      34.233 -18.012 -25.593  0.00  0.00    -0.000 C 
ATOM     10  C   UNL     1      34.048 -16.680 -25.229  0.00  0.00    +0.000 C 
ENDROOT
BRANCH   6  11
ATOM     11  O   UNL     1      34.917 -15.531 -21.243  0.00  0.00    -0.454 OA
BRANCH  11  12
ATOM     12  C   UNL     1      33.846 -15.279 -20.341  0.00  0.00    +0.186 C 
BRANCH  12  13
ATOM     13  C   UNL     1      32.626 -14.852 -21.140  0.00  0.00    -0.029 C 
BRANCH  13  14
ATOM     14  N   UNL     1      32.751 -13.467 -21.568  0.00  0.00    +0.387 N 
ATOM     15  C   UNL     1      31.922 -12.591 -20.736  0.00  0.00    -0.101 C 
ATOM     16  C   UNL     1      32.381 -13.323 -22.978  0.00  0.00    -0.101 C 
ATOM     17  H   UNL     1      33.727 -13.191 -21.459  0.00  0.00    -0.080 HD
ENDBRANCH  13  14
ENDBRANCH  12  13
ENDBRANCH  11  12
ENDBRANCH   6  11
BRANCH   2  18
ATOM     18  C   UNL     1      36.196 -19.917 -20.055  0.00  0.00    +0.055 C 
BRANCH  18  19
ATOM     19  C   UNL     1      35.747 -21.361 -20.322  0.00  0.00    +0.007 C 
BRANCH  19  20
ATOM     20  C   UNL     1      34.776 -21.859 -19.252  0.00  0.00    +0.000 C 
ATOM     21  C   UNL     1      33.364 -21.356 -19.503  0.00  0.00    +0.000 C 
ENDBRANCH  19  20
ENDBRANCH  18  19
ENDBRANCH   2  18
TORSDOF 7
ENDMDL
MODEL 8
REMARK VINA RESULT:      -7.9      9.103     12.627
REMARK  Name = 6857
REMARK  7 active torsions:
REMARK  status: ('A' for Active; 'I' for Inactive)
REMARK    1  A    between atoms: C_2  and  C_18
REMARK    2  A    between atoms: C_6  and  O_11
REMARK    3  A    between atoms: O_11  and  C_12
REMARK    4  A    between atoms: C_12  and  C_13
REMARK    5  A    between atoms: C_13  and  N_14
REMARK    6  A    between atoms: C_18  and  C_19
REMARK    7  A    between atoms: C_19  and  C_20
REMARK                            x       y       z     vdW  Elec       q    Type
REMARK                         _______ _______ _______ _____ _____    ______ ____
ROOT
ATOM      1  N   UNL     1      33.081 -13.756 -22.568  0.00  0.00    -0.376 NA
ATOM      2  C   UNL     1      32.952 -14.097 -21.268  0.00  0.00    +0.095 C 
ATOM      3  C   UNL     1      34.147 -16.153 -21.547  0.00  0.00    -0.010 C 
ATOM      4  C   UNL     1      34.302 -15.831 -22.911  0.00  0.00    +0.062 C 
ATOM      5  C   UNL     1      33.457 -15.264 -20.714  0.00  0.00    +0.081 C 
ATOM      6  C   UNL     1      33.749 -14.627 -23.355  0.00  0.00    +0.276 C 
ATOM      7  C   UNL     1      34.689 -17.356 -21.062  0.00  0.00    -0.004 C 
ATOM      8  C   UNL     1      34.991 -16.710 -23.763  0.00  0.00    +0.005 C 
ATOM      9  C   UNL     1      35.371 -18.222 -21.918  0.00  0.00    -0.000 C 
ATOM     10  C   UNL     1      35.521 -17.900 -23.265  0.00  0.00    +0.000 C 
ENDROOT
BRANCH   6  11
ATOM     11  O   UNL     1      33.867 -14.260 -24.672  0.00  0.00    -0.454 OA
BRANCH  11  12
ATOM     12  C   UNL     1      33.045 -13.184 -25.110  0.00  0.00    +0.186 C 
BRANCH  12  13
ATOM     13  C   UNL     1      33.915 -12.167 -25.829  0.00  0.00    -0.029 C 
BRANCH  13  14
ATOM     14  N   UNL     1      34.536 -11.258 -24.876  0.00  0.00    +0.387 N 
ATOM     15  C   UNL     1      33.518 -10.552 -24.095  0.00  0.00    -0.101 C 
ATOM     16  C   UNL     1      35.402 -10.297 -25.564  0.00  0.00    -0.101 C 
ATOM     17  H   UNL     1      35.109 -11.812 -24.240  0.00  0.00    -0.080 HD
ENDBRANCH  13  14
ENDBRANCH  12  13
ENDBRANCH  11  12
ENDBRANCH   6  11
BRANCH   2  18
ATOM     18  C   UNL     1      32.217 -13.135 -20.396  0.00  0.00    +0.055 C 
BRANCH  18  19
ATOM     19  C   UNL     1      31.598 -11.980 -21.197  0.00  0.00    +0.007 C 
BRANCH  19  20
ATOM     20  C   UNL     1      30.842 -11.006 -20.295  0.00  0.00    +0.000 C 
ATOM     21  C   UNL     1      31.624 -10.699 -19.027  0.00  0.00    +0.000 C 
ENDBRANCH  19  20
ENDBRANCH  18  19
ENDBRANCH   2  18
TORSDOF 7
ENDMDL
MODEL 9
REMARK VINA RESULT:      -7.8      2.220      5.135
REMARK  Name = 6857
REMARK  7 active torsions:
REMARK  status: ('A' for Active; 'I' for Inactive)
REMARK    1  A    between atoms: C_2  and  C_18
REMARK    2  A    between atoms: C_6  and  O_11
REMARK    3  A    between atoms: O_11  and  C_12
REMARK    4  A    between atoms: C_12  and  C_13
REMARK    5  A    between atoms: C_13  and  N_14
REMARK    6  A    between atoms: C_18  and  C_19
REMARK    7  A    between atoms: C_19  and  C_20
REMARK                            x       y       z     vdW  Elec       q    Type
REMARK                         _______ _______ _______ _____ _____    ______ ____
ROOT
ATOM      1  N   UNL     1      33.898 -22.427 -18.381  0.00  0.00    -0.376 NA
ATOM      2  C   UNL     1      35.046 -21.830 -18.768  0.00  0.00    +0.095 C 
ATOM      3  C   UNL     1      36.205 -22.453 -16.767  0.00  0.00    -0.010 C 
ATOM      4  C   UNL     1      35.025 -23.087 -16.329  0.00  0.00    +0.062 C 
ATOM      5  C   UNL     1      36.209 -21.812 -18.013  0.00  0.00    +0.081 C 
ATOM      6  C   UNL     1      33.915 -23.039 -17.176  0.00  0.00    +0.276 C 
ATOM      7  C   UNL     1      37.343 -22.480 -15.943  0.00  0.00    -0.004 C 
ATOM      8  C   UNL     1      35.001 -23.735 -15.083  0.00  0.00    +0.005 C 
ATOM      9  C   UNL     1      37.308 -23.125 -14.707  0.00  0.00    -0.000 C 
ATOM     10  C   UNL     1      36.139 -23.751 -14.277  0.00  0.00    +0.000 C 
ENDROOT
BRANCH   6  11
ATOM     11  O   UNL     1      32.738 -23.638 -16.804  0.00  0.00    -0.454 OA
BRANCH  11  12
ATOM     12  C   UNL     1      31.595 -22.797 -16.714  0.00  0.00    +0.186 C 
BRANCH  12  13
ATOM     13  C   UNL     1      30.733 -23.268 -15.554  0.00  0.00    -0.029 C 
BRANCH  13  14
ATOM     14  N   UNL     1      30.024 -24.490 -15.904  0.00  0.00    +0.387 N 
ATOM     15  C   UNL     1      28.678 -24.186 -16.395  0.00  0.00    -0.101 C 
ATOM     16  C   UNL     1      29.950 -25.395 -14.754  0.00  0.00    -0.101 C 
ATOM     17  H   UNL     1      30.545 -24.954 -16.648  0.00  0.00    -0.080 HD
ENDBRANCH  13  14
ENDBRANCH  12  13
ENDBRANCH  11  12
ENDBRANCH   6  11
BRANCH   2  18
ATOM     18  C   UNL     1      35.030 -21.156 -20.099  0.00  0.00    +0.055 C 
BRANCH  18  19
ATOM     19  C   UNL     1      33.711 -20.415 -20.360  0.00  0.00    +0.007 C 
BRANCH  19  20
ATOM     20  C   UNL     1      33.928 -19.146 -21.184  0.00  0.00    +0.000 C 
ATOM     21  C   UNL     1      35.378 -18.692 -21.137  0.00  0.00    +0.000 C 
ENDBRANCH  19  20
ENDBRANCH  18  19
ENDBRANCH   2  18
TORSDOF 7
ENDMDL
