MODEL 1
REMARK VINA RESULT:     -11.4      0.000      0.000
REMARK  Name = 17755582
REMARK  6 active torsions:
REMARK  status: ('A' for Active; 'I' for Inactive)
REMARK    1  A    between atoms: S_1  and  C_4
REMARK    2  A    between atoms: S_1  and  N_19
REMARK    3  A    between atoms: C_5  and  N_10
REMARK    4  A    between atoms: N_10  and  C_17
REMARK    5  A    between atoms: N_19  and  C_21
REMARK    6  A    between atoms: C_21  and  C_25
REMARK                            x       y       z     vdW  Elec       q    Type
REMARK                         _______ _______ _______ _____ _____    ______ ____
ROOT
ATOM      1  S   UNL     1      34.000 -22.509 -19.033  0.00  0.00    +0.061 S 
ATOM      2  O   UNL     1      32.667 -22.013 -18.712  0.00  0.00    -0.153 OA
ATOM      3  O   UNL     1      34.136 -23.682 -19.887  0.00  0.00    -0.153 OA
ENDROOT
BRANCH   1   4
ATOM      4  C   UNL     1      34.922 -21.215 -19.755  0.00  0.00    +0.123 C 
ATOM      5  C   UNL     1      35.009 -19.168 -21.035  0.00  0.00    +0.050 C 
ATOM      6  C   UNL     1      34.272 -20.202 -20.459  0.00  0.00    +0.034 C 
ATOM      7  C   UNL     1      36.311 -21.193 -19.627  0.00  0.00    +0.020 C 
ATOM      8  C   UNL     1      36.398 -19.146 -20.908  0.00  0.00    +0.015 C 
ATOM      9  C   UNL     1      37.049 -20.159 -20.204  0.00  0.00    +0.003 C 
BRANCH   5  10
ATOM     10  N   UNL     1      34.354 -18.148 -21.744  0.00  0.00    -0.312 N 
ATOM     11  H   UNL     1      33.763 -17.568 -21.210  0.00  0.00    +0.152 HD
BRANCH  10  17
ATOM     12  O   UNL     1      33.939 -15.208 -25.376  0.00  0.00    -0.445 OA
ATOM     13  O   UNL     1      34.798 -17.270 -25.931  0.00  0.00    -0.245 OA
ATOM     14  C   UNL     1      33.962 -15.364 -23.022  0.00  0.00    +0.082 C 
ATOM     15  C   UNL     1      34.280 -16.665 -23.653  0.00  0.00    +0.072 C 
ATOM     16  C   UNL     1      33.359 -14.630 -24.195  0.00  0.00    +0.214 C 
ATOM     17  C   UNL     1      34.427 -17.854 -23.067  0.00  0.00    +0.064 C 
ATOM     18  C   UNL     1      34.382 -16.472 -25.111  0.00  0.00    +0.339 C 
ENDBRANCH  10  17
ENDBRANCH   5  10
ENDBRANCH   1   4
BRANCH   1  19
ATOM     19  N   UNL     1      34.843 -22.794 -17.574  0.00  0.00    -0.173 NA
ATOM     20  H   UNL     1      35.312 -21.922 -17.329  0.00  0.00    +0.149 HD
BRANCH  19  21
ATOM     21  C   UNL     1      34.109 -23.232 -16.379  0.00  0.00    +0.147 C 
BRANCH  21  25
ATOM     22  N   UNL     1      35.364 -25.180 -15.650  0.00  0.00    -0.335 NA
ATOM     23  N   UNL     1      36.628 -25.190 -13.598  0.00  0.00    -0.337 NA
ATOM     24  N   UNL     1      36.563 -27.084 -14.983  0.00  0.00    -0.283 N 
ATOM     25  C   UNL     1      35.005 -23.909 -15.377  0.00  0.00    +0.124 C 
ATOM     26  C   UNL     1      35.410 -23.222 -14.252  0.00  0.00    +0.112 C 
ATOM     27  C   UNL     1      36.229 -23.918 -13.390  0.00  0.00    +0.107 C 
ATOM     28  C   UNL     1      36.165 -25.753 -14.731  0.00  0.00    +0.195 C 
ATOM     29  C   UNL     1      36.719 -23.259 -12.145  0.00  0.00    +0.063 C 
ATOM     30  H   UNL     1      36.254 -27.545 -15.797  0.00  0.00    +0.156 HD
ATOM     31  H   UNL     1      37.149 -27.551 -14.345  0.00  0.00    +0.156 HD
ENDBRANCH  21  25
ENDBRANCH  19  21
ENDBRANCH   1  19
TORSDOF 6
ENDMDL
MODEL 2
REMARK VINA RESULT:     -11.0      1.350      1.950
REMARK  Name = 17755582
REMARK  6 active torsions:
REMARK  status: ('A' for Active; 'I' for Inactive)
REMARK    1  A    between atoms: S_1  and  C_4
REMARK    2  A    between atoms: S_1  and  N_19
REMARK    3  A    between atoms: C_5  and  N_10
REMARK    4  A    between atoms: N_10  and  C_17
REMARK    5  A    between atoms: N_19  and  C_21
REMARK    6  A    between atoms: C_21  and  C_25
REMARK                            x       y       z     vdW  Elec       q    Type
REMARK                         _______ _______ _______ _____ _____    ______ ____
ROOT
ATOM      1  S   UNL     1      33.621 -23.049 -18.226  0.00  0.00    +0.061 S 
ATOM      2  O   UNL     1      32.308 -22.529 -17.865  0.00  0.00    -0.153 OA
ATOM      3  O   UNL     1      33.715 -24.311 -18.948  0.00  0.00    -0.153 OA
ENDROOT
BRANCH   1   4
ATOM      4  C   UNL     1      34.467 -21.839 -19.158  0.00  0.00    +0.123 C 
ATOM      5  C   UNL     1      34.426 -19.915 -20.619  0.00  0.00    +0.050 C 
ATOM      6  C   UNL     1      33.750 -20.882 -19.874  0.00  0.00    +0.034 C 
ATOM      7  C   UNL     1      35.862 -21.829 -19.185  0.00  0.00    +0.020 C 
ATOM      8  C   UNL     1      35.820 -19.906 -20.646  0.00  0.00    +0.015 C 
ATOM      9  C   UNL     1      36.539 -20.863 -19.930  0.00  0.00    +0.003 C 
BRANCH   5  10
ATOM     10  N   UNL     1      33.704 -18.951 -21.340  0.00  0.00    -0.312 N 
ATOM     11  H   UNL     1      32.768 -18.820 -21.060  0.00  0.00    +0.152 HD
BRANCH  10  17
ATOM     12  O   UNL     1      34.952 -14.828 -23.196  0.00  0.00    -0.445 OA
ATOM     13  O   UNL     1      35.212 -16.616 -24.622  0.00  0.00    -0.245 OA
ATOM     14  C   UNL     1      34.464 -15.962 -21.186  0.00  0.00    +0.082 C 
ATOM     15  C   UNL     1      34.475 -16.889 -22.340  0.00  0.00    +0.072 C 
ATOM     16  C   UNL     1      34.364 -14.636 -21.899  0.00  0.00    +0.214 C 
ATOM     17  C   UNL     1      34.123 -18.175 -22.372  0.00  0.00    +0.064 C 
ATOM     18  C   UNL     1      34.916 -16.149 -23.537  0.00  0.00    +0.339 C 
ENDBRANCH  10  17
ENDBRANCH   5  10
ENDBRANCH   1   4
BRANCH   1  19
ATOM     19  N   UNL     1      34.573 -23.157 -16.810  0.00  0.00    -0.173 NA
ATOM     20  H   UNL     1      35.009 -22.244 -16.678  0.00  0.00    +0.149 HD
BRANCH  19  21
ATOM     21  C   UNL     1      33.945 -23.516 -15.532  0.00  0.00    +0.147 C 
BRANCH  21  25
ATOM     22  N   UNL     1      34.792 -23.938 -13.295  0.00  0.00    -0.335 NA
ATOM     23  N   UNL     1      36.597 -25.481 -12.882  0.00  0.00    -0.337 NA
ATOM     24  N   UNL     1      35.579 -24.316 -11.117  0.00  0.00    -0.283 N 
ATOM     25  C   UNL     1      34.897 -24.226 -14.609  0.00  0.00    +0.124 C 
ATOM     26  C   UNL     1      35.813 -25.116 -15.128  0.00  0.00    +0.112 C 
ATOM     27  C   UNL     1      36.645 -25.721 -14.209  0.00  0.00    +0.107 C 
ATOM     28  C   UNL     1      35.661 -24.592 -12.499  0.00  0.00    +0.195 C 
ATOM     29  C   UNL     1      37.670 -26.699 -14.676  0.00  0.00    +0.063 C 
ATOM     30  H   UNL     1      34.913 -23.674 -10.781  0.00  0.00    +0.156 HD
ATOM     31  H   UNL     1      36.190 -24.765 -10.489  0.00  0.00    +0.156 HD
ENDBRANCH  21  25
ENDBRANCH  19  21
ENDBRANCH   1  19
TORSDOF 6
ENDMDL
MODEL 3
REMARK VINA RESULT:     -10.9      4.473     10.946
REMARK  Name = 17755582
REMARK  6 active torsions:
REMARK  status: ('A' for Active; 'I' for Inactive)
REMARK    1  A    between atoms: S_1  and  C_4
REMARK    2  A    between atoms: S_1  and  N_19
REMARK    3  A    between atoms: C_5  and  N_10
REMARK    4  A    between atoms: N_10  and  C_17
REMARK    5  A    between atoms: N_19  and  C_21
REMARK    6  A    between atoms: C_21  and  C_25
REMARK                            x       y       z     vdW  Elec       q    Type
REMARK                         _______ _______ _______ _____ _____    ______ ____
ROOT
ATOM      1  S   UNL     1      33.859 -15.292 -21.105  0.00  0.00    +0.061 S 
ATOM      2  O   UNL     1      32.533 -15.497 -20.537  0.00  0.00    -0.153 OA
ATOM      3  O   UNL     1      34.963 -14.927 -20.226  0.00  0.00    -0.153 OA
ENDROOT
BRANCH   1   4
ATOM      4  C   UNL     1      34.326 -16.732 -21.975  0.00  0.00    +0.123 C 
ATOM      5  C   UNL     1      34.729 -19.114 -22.016  0.00  0.00    +0.050 C 
ATOM      6  C   UNL     1      34.357 -17.963 -21.321  0.00  0.00    +0.034 C 
ATOM      7  C   UNL     1      34.667 -16.651 -23.325  0.00  0.00    +0.020 C 
ATOM      8  C   UNL     1      35.071 -19.033 -23.366  0.00  0.00    +0.015 C 
ATOM      9  C   UNL     1      35.040 -17.801 -24.021  0.00  0.00    +0.003 C 
BRANCH   5  10
ATOM     10  N   UNL     1      34.760 -20.354 -21.358  0.00  0.00    -0.312 N 
ATOM     11  H   UNL     1      34.243 -21.076 -21.782  0.00  0.00    +0.152 HD
BRANCH  10  17
ATOM     12  O   UNL     1      35.129 -22.743 -17.338  0.00  0.00    -0.445 OA
ATOM     13  O   UNL     1      36.986 -21.485 -17.856  0.00  0.00    -0.245 OA
ATOM     14  C   UNL     1      33.910 -22.538 -19.347  0.00  0.00    +0.082 C 
ATOM     15  C   UNL     1      35.082 -21.635 -19.332  0.00  0.00    +0.072 C 
ATOM     16  C   UNL     1      33.805 -22.877 -17.880  0.00  0.00    +0.214 C 
ATOM     17  C   UNL     1      35.410 -20.689 -20.214  0.00  0.00    +0.064 C 
ATOM     18  C   UNL     1      35.874 -21.906 -18.117  0.00  0.00    +0.339 C 
ENDBRANCH  10  17
ENDBRANCH   5  10
ENDBRANCH   1   4
BRANCH   1  19
ATOM     19  N   UNL     1      33.746 -14.129 -22.352  0.00  0.00    -0.173 NA
ATOM     20  H   UNL     1      34.158 -14.548 -23.185  0.00  0.00    +0.149 HD
BRANCH  19  21
ATOM     21  C   UNL     1      32.431 -13.605 -22.746  0.00  0.00    +0.147 C 
BRANCH  21  25
ATOM     22  N   UNL     1      32.438 -11.193 -23.032  0.00  0.00    -0.335 NA
ATOM     23  N   UNL     1      31.747  -9.696 -21.274  0.00  0.00    -0.337 NA
ATOM     24  N   UNL     1      32.460  -8.869 -23.351  0.00  0.00    -0.283 N 
ATOM     25  C   UNL     1      32.181 -12.225 -22.203  0.00  0.00    +0.124 C 
ATOM     26  C   UNL     1      31.712 -12.075 -20.914  0.00  0.00    +0.112 C 
ATOM     27  C   UNL     1      31.511 -10.776 -20.500  0.00  0.00    +0.107 C 
ATOM     28  C   UNL     1      32.203  -9.973 -22.511  0.00  0.00    +0.195 C 
ATOM     29  C   UNL     1      31.006 -10.512 -19.121  0.00  0.00    +0.063 C 
ATOM     30  H   UNL     1      32.795  -9.012 -24.266  0.00  0.00    +0.156 HD
ATOM     31  H   UNL     1      32.305  -7.954 -23.022  0.00  0.00    +0.156 HD
ENDBRANCH  21  25
ENDBRANCH  19  21
ENDBRANCH   1  19
TORSDOF 6
ENDMDL
MODEL 4
REMARK VINA RESULT:     -10.9      3.270      9.886
REMARK  Name = 17755582
REMARK  6 active torsions:
REMARK  status: ('A' for Active; 'I' for Inactive)
REMARK    1  A    between atoms: S_1  and  C_4
REMARK    2  A    between atoms: S_1  and  N_19
REMARK    3  A    between atoms: C_5  and  N_10
REMARK    4  A    between atoms: N_10  and  C_17
REMARK    5  A    between atoms: N_19  and  C_21
REMARK    6  A    between atoms: C_21  and  C_25
REMARK                            x       y       z     vdW  Elec       q    Type
REMARK                         _______ _______ _______ _____ _____    ______ ____
ROOT
ATOM      1  S   UNL     1      34.059 -22.816 -18.450  0.00  0.00    +0.061 S 
ATOM      2  O   UNL     1      35.415 -22.336 -18.211  0.00  0.00    -0.153 OA
ATOM      3  O   UNL     1      33.850 -23.944 -19.348  0.00  0.00    -0.153 OA
ENDROOT
BRANCH   1   4
ATOM      4  C   UNL     1      33.326 -23.214 -16.916  0.00  0.00    +0.123 C 
ATOM      5  C   UNL     1      33.520 -24.053 -14.659  0.00  0.00    +0.050 C 
ATOM      6  C   UNL     1      34.106 -23.735 -15.884  0.00  0.00    +0.034 C 
ATOM      7  C   UNL     1      31.960 -23.009 -16.722  0.00  0.00    +0.020 C 
ATOM      8  C   UNL     1      32.155 -23.849 -14.465  0.00  0.00    +0.015 C 
ATOM      9  C   UNL     1      31.374 -23.327 -15.497  0.00  0.00    +0.003 C 
BRANCH   5  10
ATOM     10  N   UNL     1      34.306 -24.578 -13.620  0.00  0.00    -0.312 N 
ATOM     11  H   UNL     1      34.152 -25.528 -13.406  0.00  0.00    +0.152 HD
BRANCH  10  17
ATOM     12  O   UNL     1      38.744 -23.863 -12.280  0.00  0.00    -0.445 OA
ATOM     13  O   UNL     1      37.233 -22.404 -11.338  0.00  0.00    -0.245 OA
ATOM     14  C   UNL     1      37.364 -24.930 -13.868  0.00  0.00    +0.082 C 
ATOM     15  C   UNL     1      36.575 -24.066 -12.961  0.00  0.00    +0.072 C 
ATOM     16  C   UNL     1      38.650 -25.048 -13.087  0.00  0.00    +0.214 C 
ATOM     17  C   UNL     1      35.250 -23.952 -12.872  0.00  0.00    +0.064 C 
ATOM     18  C   UNL     1      37.504 -23.328 -12.084  0.00  0.00    +0.339 C 
ENDBRANCH  10  17
ENDBRANCH   5  10
ENDBRANCH   1   4
BRANCH   1  19
ATOM     19  N   UNL     1      33.102 -21.505 -18.987  0.00  0.00    -0.173 NA
ATOM     20  H   UNL     1      33.401 -20.686 -18.458  0.00  0.00    +0.149 HD
BRANCH  19  21
ATOM     21  C   UNL     1      33.114 -21.123 -20.406  0.00  0.00    +0.147 C 
BRANCH  21  25
ATOM     22  N   UNL     1      35.338 -20.182 -20.665  0.00  0.00    -0.335 NA
ATOM     23  N   UNL     1      35.687 -17.846 -21.145  0.00  0.00    -0.337 NA
ATOM     24  N   UNL     1      37.504 -19.313 -20.908  0.00  0.00    -0.283 N 
ATOM     25  C   UNL     1      34.010 -19.945 -20.671  0.00  0.00    +0.124 C 
ATOM     26  C   UNL     1      33.453 -18.705 -20.902  0.00  0.00    +0.112 C 
ATOM     27  C   UNL     1      34.348 -17.682 -21.136  0.00  0.00    +0.107 C 
ATOM     28  C   UNL     1      36.108 -19.103 -20.906  0.00  0.00    +0.195 C 
ATOM     29  C   UNL     1      33.840 -16.304 -21.396  0.00  0.00    +0.063 C 
ATOM     30  H   UNL     1      37.867 -20.212 -20.739  0.00  0.00    +0.156 HD
ATOM     31  H   UNL     1      38.114 -18.560 -21.079  0.00  0.00    +0.156 HD
ENDBRANCH  21  25
ENDBRANCH  19  21
ENDBRANCH   1  19
TORSDOF 6
ENDMDL
MODEL 5
REMARK VINA RESULT:     -10.8      2.926     10.147
REMARK  Name = 17755582
REMARK  6 active torsions:
REMARK  status: ('A' for Active; 'I' for Inactive)
REMARK    1  A    between atoms: S_1  and  C_4
REMARK    2  A    between atoms: S_1  and  N_19
REMARK    3  A    between atoms: C_5  and  N_10
REMARK    4  A    between atoms: N_10  and  C_17
REMARK    5  A    between atoms: N_19  and  C_21
REMARK    6  A    between atoms: C_21  and  C_25
REMARK                            x       y       z     vdW  Elec       q    Type
REMARK                         _______ _______ _______ _____ _____    ______ ____
ROOT
ATOM      1  S   UNL     1      33.964 -22.349 -19.328  0.00  0.00    +0.061 S 
ATOM      2  O   UNL     1      34.608 -23.499 -19.952  0.00  0.00    -0.153 OA
ATOM      3  O   UNL     1      32.750 -21.805 -19.922  0.00  0.00    -0.153 OA
ENDROOT
BRANCH   1   4
ATOM      4  C   UNL     1      33.614 -22.737 -17.662  0.00  0.00    +0.123 C 
ATOM      5  C   UNL     1      34.360 -23.051 -15.386  0.00  0.00    +0.050 C 
ATOM      6  C   UNL     1      34.640 -22.742 -16.717  0.00  0.00    +0.034 C 
ATOM      7  C   UNL     1      32.309 -23.041 -17.276  0.00  0.00    +0.020 C 
ATOM      8  C   UNL     1      33.055 -23.355 -15.000  0.00  0.00    +0.015 C 
ATOM      9  C   UNL     1      32.029 -23.350 -15.945  0.00  0.00    +0.003 C 
BRANCH   5  10
ATOM     10  N   UNL     1      35.393 -23.056 -14.434  0.00  0.00    -0.312 N 
ATOM     11  H   UNL     1      35.837 -22.191 -14.281  0.00  0.00    +0.152 HD
BRANCH  10  17
ATOM     12  O   UNL     1      38.579 -26.355 -13.452  0.00  0.00    -0.445 OA
ATOM     13  O   UNL     1      36.867 -26.219 -11.919  0.00  0.00    -0.245 OA
ATOM     14  C   UNL     1      38.140 -24.432 -14.744  0.00  0.00    +0.082 C 
ATOM     15  C   UNL     1      37.042 -24.703 -13.789  0.00  0.00    +0.072 C 
ATOM     16  C   UNL     1      38.851 -25.763 -14.732  0.00  0.00    +0.214 C 
ATOM     17  C   UNL     1      35.859 -24.096 -13.695  0.00  0.00    +0.064 C 
ATOM     18  C   UNL     1      37.435 -25.831 -12.924  0.00  0.00    +0.339 C 
ENDBRANCH  10  17
ENDBRANCH   5  10
ENDBRANCH   1   4
BRANCH   1  19
ATOM     19  N   UNL     1      35.112 -21.093 -19.182  0.00  0.00    -0.173 NA
ATOM     20  H   UNL     1      35.702 -21.323 -18.382  0.00  0.00    +0.149 HD
BRANCH  19  21
ATOM     21  C   UNL     1      36.015 -20.792 -20.302  0.00  0.00    +0.147 C 
BRANCH  21  25
ATOM     22  N   UNL     1      35.431 -18.444 -20.502  0.00  0.00    -0.335 NA
ATOM     23  N   UNL     1      34.658 -17.492 -22.577  0.00  0.00    -0.337 NA
ATOM     24  N   UNL     1      34.878 -16.168 -20.652  0.00  0.00    -0.283 N 
ATOM     25  C   UNL     1      35.531 -19.634 -21.129  0.00  0.00    +0.124 C 
ATOM     26  C   UNL     1      35.217 -19.829 -22.458  0.00  0.00    +0.112 C 
ATOM     27  C   UNL     1      34.783 -18.712 -23.139  0.00  0.00    +0.107 C 
ATOM     28  C   UNL     1      34.994 -17.430 -21.274  0.00  0.00    +0.195 C 
ATOM     29  C   UNL     1      34.418 -18.825 -24.581  0.00  0.00    +0.063 C 
ATOM     30  H   UNL     1      35.111 -16.064 -19.701  0.00  0.00    +0.156 HD
ATOM     31  H   UNL     1      34.564 -15.392 -21.169  0.00  0.00    +0.156 HD
ENDBRANCH  21  25
ENDBRANCH  19  21
ENDBRANCH   1  19
TORSDOF 6
ENDMDL
MODEL 6
REMARK VINA RESULT:     -10.8      4.874      8.987
REMARK  Name = 17755582
REMARK  6 active torsions:
REMARK  status: ('A' for Active; 'I' for Inactive)
REMARK    1  A    between atoms: S_1  and  C_4
REMARK    2  A    between atoms: S_1  and  N_19
REMARK    3  A    between atoms: C_5  and  N_10
REMARK    4  A    between atoms: N_10  and  C_17
REMARK    5  A    between atoms: N_19  and  C_21
REMARK    6  A    between atoms: C_21  and  C_25
REMARK                            x       y       z     vdW  Elec       q    Type
REMARK                         _______ _______ _______ _____ _____    ______ ____
ROOT
ATOM      1  S   UNL     1      38.517 -24.822 -14.679  0.00  0.00    +0.061 S 
ATOM      2  O   UNL     1      39.806 -24.696 -14.009  0.00  0.00    -0.153 OA
ATOM      3  O   UNL     1      38.180 -26.074 -15.344  0.00  0.00    -0.153 OA
ENDROOT
BRANCH   1   4
ATOM      4  C   UNL     1      37.250 -24.471 -13.531  0.00  0.00    +0.123 C 
ATOM      5  C   UNL     1      34.905 -24.429 -12.950  0.00  0.00    +0.050 C 
ATOM      6  C   UNL     1      35.918 -24.709 -13.868  0.00  0.00    +0.034 C 
ATOM      7  C   UNL     1      37.569 -23.951 -12.277  0.00  0.00    +0.020 C 
ATOM      8  C   UNL     1      35.225 -23.909 -11.696  0.00  0.00    +0.015 C 
ATOM      9  C   UNL     1      36.557 -23.669 -11.360  0.00  0.00    +0.003 C 
BRANCH   5  10
ATOM     10  N   UNL     1      33.564 -24.669 -13.289  0.00  0.00    -0.312 N 
ATOM     11  H   UNL     1      33.094 -25.330 -12.729  0.00  0.00    +0.152 HD
BRANCH  10  17
ATOM     12  O   UNL     1      29.565 -24.081 -15.669  0.00  0.00    -0.445 OA
ATOM     13  O   UNL     1      31.277 -22.706 -16.358  0.00  0.00    -0.245 OA
ATOM     14  C   UNL     1      30.524 -25.004 -13.721  0.00  0.00    +0.082 C 
ATOM     15  C   UNL     1      31.515 -24.220 -14.492  0.00  0.00    +0.072 C 
ATOM     16  C   UNL     1      29.450 -25.192 -14.765  0.00  0.00    +0.214 C 
ATOM     17  C   UNL     1      32.828 -24.112 -14.284  0.00  0.00    +0.064 C 
ATOM     18  C   UNL     1      30.826 -23.562 -15.619  0.00  0.00    +0.339 C 
ENDBRANCH  10  17
ENDBRANCH   5  10
ENDBRANCH   1   4
BRANCH   1  19
ATOM     19  N   UNL     1      38.360 -23.546 -15.805  0.00  0.00    -0.173 NA
ATOM     20  H   UNL     1      38.197 -23.975 -16.716  0.00  0.00    +0.149 HD
BRANCH  19  21
ATOM     21  C   UNL     1      37.313 -22.531 -15.620  0.00  0.00    +0.147 C 
BRANCH  21  25
ATOM     22  N   UNL     1      35.310 -22.953 -16.927  0.00  0.00    -0.335 NA
ATOM     23  N   UNL     1      34.975 -21.971 -19.103  0.00  0.00    -0.337 NA
ATOM     24  N   UNL     1      33.359 -23.386 -18.157  0.00  0.00    -0.283 N 
ATOM     25  C   UNL     1      36.499 -22.318 -16.866  0.00  0.00    +0.124 C 
ATOM     26  C   UNL     1      36.987 -21.506 -17.868  0.00  0.00    +0.112 C 
ATOM     27  C   UNL     1      36.175 -21.367 -18.973  0.00  0.00    +0.107 C 
ATOM     28  C   UNL     1      34.610 -22.738 -18.058  0.00  0.00    +0.195 C 
ATOM     29  C   UNL     1      36.618 -20.509 -20.110  0.00  0.00    +0.063 C 
ATOM     30  H   UNL     1      33.041 -23.959 -17.422  0.00  0.00    +0.156 HD
ATOM     31  H   UNL     1      32.805 -23.265 -18.961  0.00  0.00    +0.156 HD
ENDBRANCH  21  25
ENDBRANCH  19  21
ENDBRANCH   1  19
TORSDOF 6
ENDMDL
MODEL 7
REMARK VINA RESULT:     -10.8      4.347     11.344
REMARK  Name = 17755582
REMARK  6 active torsions:
REMARK  status: ('A' for Active; 'I' for Inactive)
REMARK    1  A    between atoms: S_1  and  C_4
REMARK    2  A    between atoms: S_1  and  N_19
REMARK    3  A    between atoms: C_5  and  N_10
REMARK    4  A    between atoms: N_10  and  C_17
REMARK    5  A    between atoms: N_19  and  C_21
REMARK    6  A    between atoms: C_21  and  C_25
REMARK                            x       y       z     vdW  Elec       q    Type
REMARK                         _______ _______ _______ _____ _____    ______ ____
ROOT
ATOM      1  S   UNL     1      34.082 -15.119 -21.724  0.00  0.00    +0.061 S 
ATOM      2  O   UNL     1      32.637 -14.963 -21.608  0.00  0.00    -0.153 OA
ATOM      3  O   UNL     1      34.921 -14.873 -20.558  0.00  0.00    -0.153 OA
ENDROOT
BRANCH   1   4
ATOM      4  C   UNL     1      34.429 -16.731 -22.298  0.00  0.00    +0.123 C 
ATOM      5  C   UNL     1      34.508 -19.115 -21.920  0.00  0.00    +0.050 C 
ATOM      6  C   UNL     1      34.231 -17.828 -21.460  0.00  0.00    +0.034 C 
ATOM      7  C   UNL     1      34.903 -16.921 -23.595  0.00  0.00    +0.020 C 
ATOM      8  C   UNL     1      34.983 -19.306 -23.217  0.00  0.00    +0.015 C 
ATOM      9  C   UNL     1      35.181 -18.209 -24.055  0.00  0.00    +0.003 C 
BRANCH   5  10
ATOM     10  N   UNL     1      34.309 -20.220 -21.076  0.00  0.00    -0.312 N 
ATOM     11  H   UNL     1      33.495 -20.747 -21.247  0.00  0.00    +0.152 HD
BRANCH  10  17
ATOM     12  O   UNL     1      35.111 -22.911 -17.319  0.00  0.00    -0.445 OA
ATOM     13  O   UNL     1      36.932 -21.675 -17.993  0.00  0.00    -0.245 OA
ATOM     14  C   UNL     1      33.646 -22.521 -19.126  0.00  0.00    +0.082 C 
ATOM     15  C   UNL     1      34.845 -21.657 -19.207  0.00  0.00    +0.072 C 
ATOM     16  C   UNL     1      33.724 -22.965 -17.685  0.00  0.00    +0.214 C 
ATOM     17  C   UNL     1      35.091 -20.659 -20.056  0.00  0.00    +0.064 C 
ATOM     18  C   UNL     1      35.779 -22.041 -18.131  0.00  0.00    +0.339 C 
ENDBRANCH  10  17
ENDBRANCH   5  10
ENDBRANCH   1   4
BRANCH   1  19
ATOM     19  N   UNL     1      34.635 -14.141 -23.012  0.00  0.00    -0.173 NA
ATOM     20  H   UNL     1      35.251 -14.723 -23.580  0.00  0.00    +0.149 HD
BRANCH  19  21
ATOM     21  C   UNL     1      33.668 -13.524 -23.929  0.00  0.00    +0.147 C 
BRANCH  21  25
ATOM     22  N   UNL     1      32.348 -11.853 -22.761  0.00  0.00    -0.335 NA
ATOM     23  N   UNL     1      32.840  -9.499 -22.917  0.00  0.00    -0.337 NA
ATOM     24  N   UNL     1      31.048 -10.272 -21.614  0.00  0.00    -0.283 N 
ATOM     25  C   UNL     1      33.392 -12.086 -23.583  0.00  0.00    +0.124 C 
ATOM     26  C   UNL     1      34.194 -11.093 -24.106  0.00  0.00    +0.112 C 
ATOM     27  C   UNL     1      33.868  -9.806 -23.735  0.00  0.00    +0.107 C 
ATOM     28  C   UNL     1      32.132 -10.555 -22.473  0.00  0.00    +0.195 C 
ATOM     29  C   UNL     1      34.677  -8.664 -24.251  0.00  0.00    +0.063 C 
ATOM     30  H   UNL     1      30.495 -11.006 -21.259  0.00  0.00    +0.156 HD
ATOM     31  H   UNL     1      30.843  -9.341 -21.370  0.00  0.00    +0.156 HD
ENDBRANCH  21  25
ENDBRANCH  19  21
ENDBRANCH   1  19
TORSDOF 6
ENDMDL
MODEL 8
REMARK VINA RESULT:     -10.7      3.050     10.243
REMARK  Name = 17755582
REMARK  6 active torsions:
REMARK  status: ('A' for Active; 'I' for Inactive)
REMARK    1  A    between atoms: S_1  and  C_4
REMARK    2  A    between atoms: S_1  and  N_19
REMARK    3  A    between atoms: C_5  and  N_10
REMARK    4  A    between atoms: N_10  and  C_17
REMARK    5  A    between atoms: N_19  and  C_21
REMARK    6  A    between atoms: C_21  and  C_25
REMARK                            x       y       z     vdW  Elec       q    Type
REMARK                         _______ _______ _______ _____ _____    ______ ____
ROOT
ATOM      1  S   UNL     1      36.033 -20.945 -19.710  0.00  0.00    +0.061 S 
ATOM      2  O   UNL     1      37.031 -20.055 -19.130  0.00  0.00    -0.153 OA
ATOM      3  O   UNL     1      36.428 -21.867 -20.767  0.00  0.00    -0.153 OA
ENDROOT
BRANCH   1   4
ATOM      4  C   UNL     1      35.306 -21.884 -18.430  0.00  0.00    +0.123 C 
ATOM      5  C   UNL     1      35.404 -22.813 -16.202  0.00  0.00    +0.050 C 
ATOM      6  C   UNL     1      35.984 -22.063 -17.224  0.00  0.00    +0.034 C 
ATOM      7  C   UNL     1      34.048 -22.456 -18.613  0.00  0.00    +0.020 C 
ATOM      8  C   UNL     1      34.145 -23.385 -16.385  0.00  0.00    +0.015 C 
ATOM      9  C   UNL     1      33.467 -23.207 -17.591  0.00  0.00    +0.003 C 
BRANCH   5  10
ATOM     10  N   UNL     1      36.086 -22.992 -14.987  0.00  0.00    -0.312 N 
ATOM     11  H   UNL     1      35.635 -22.637 -14.187  0.00  0.00    +0.152 HD
BRANCH  10  17
ATOM     12  O   UNL     1      38.798 -26.781 -14.450  0.00  0.00    -0.445 OA
ATOM     13  O   UNL     1      39.959 -24.793 -14.477  0.00  0.00    -0.245 OA
ATOM     14  C   UNL     1      36.656 -26.026 -15.084  0.00  0.00    +0.082 C 
ATOM     15  C   UNL     1      37.571 -24.893 -14.819  0.00  0.00    +0.072 C 
ATOM     16  C   UNL     1      37.411 -27.151 -14.420  0.00  0.00    +0.214 C 
ATOM     17  C   UNL     1      37.285 -23.592 -14.770  0.00  0.00    +0.064 C 
ATOM     18  C   UNL     1      38.922 -25.427 -14.560  0.00  0.00    +0.339 C 
ENDBRANCH  10  17
ENDBRANCH   5  10
ENDBRANCH   1   4
BRANCH   1  19
ATOM     19  N   UNL     1      34.720 -20.004 -20.267  0.00  0.00    -0.173 NA
ATOM     20  H   UNL     1      34.843 -19.068 -19.881  0.00  0.00    +0.149 HD
BRANCH  19  21
ATOM     21  C   UNL     1      34.496 -19.842 -21.711  0.00  0.00    +0.147 C 
BRANCH  21  25
ATOM     22  N   UNL     1      34.823 -18.192 -23.462  0.00  0.00    -0.335 NA
ATOM     23  N   UNL     1      34.835 -15.826 -23.003  0.00  0.00    -0.337 NA
ATOM     24  N   UNL     1      35.141 -16.631 -25.186  0.00  0.00    -0.283 N 
ATOM     25  C   UNL     1      34.614 -18.408 -22.148  0.00  0.00    +0.124 C 
ATOM     26  C   UNL     1      34.506 -17.400 -21.213  0.00  0.00    +0.112 C 
ATOM     27  C   UNL     1      34.625 -16.116 -21.702  0.00  0.00    +0.107 C 
ATOM     28  C   UNL     1      34.923 -16.896 -23.816  0.00  0.00    +0.195 C 
ATOM     29  C   UNL     1      34.524 -14.959 -20.766  0.00  0.00    +0.063 C 
ATOM     30  H   UNL     1      35.213 -17.376 -25.826  0.00  0.00    +0.156 HD
ATOM     31  H   UNL     1      35.222 -15.702 -25.501  0.00  0.00    +0.156 HD
ENDBRANCH  21  25
ENDBRANCH  19  21
ENDBRANCH   1  19
TORSDOF 6
ENDMDL
MODEL 9
REMARK VINA RESULT:     -10.6      3.312      4.453
REMARK  Name = 17755582
REMARK  6 active torsions:
REMARK  status: ('A' for Active; 'I' for Inactive)
REMARK    1  A    between atoms: S_1  and  C_4
REMARK    2  A    between atoms: S_1  and  N_19
REMARK    3  A    between atoms: C_5  and  N_10
REMARK    4  A    between atoms: N_10  and  C_17
REMARK    5  A    between atoms: N_19  and  C_21
REMARK    6  A    between atoms: C_21  and  C_25
REMARK                            x       y       z     vdW  Elec       q    Type
REMARK                         _______ _______ _______ _____ _____    ______ ____
ROOT
ATOM      1  S   UNL     1      33.995 -23.190 -18.443  0.00  0.00    +0.061 S 
ATOM      2  O   UNL     1      33.813 -24.284 -19.390  0.00  0.00    -0.153 OA
ATOM      3  O   UNL     1      34.737 -23.429 -17.212  0.00  0.00    -0.153 OA
ENDROOT
BRANCH   1   4
ATOM      4  C   UNL     1      34.753 -21.852 -19.271  0.00  0.00    +0.123 C 
ATOM      5  C   UNL     1      34.577 -19.852 -20.614  0.00  0.00    +0.050 C 
ATOM      6  C   UNL     1      33.971 -20.921 -19.953  0.00  0.00    +0.034 C 
ATOM      7  C   UNL     1      36.140 -21.715 -19.249  0.00  0.00    +0.020 C 
ATOM      8  C   UNL     1      35.965 -19.715 -20.592  0.00  0.00    +0.015 C 
ATOM      9  C   UNL     1      36.747 -20.647 -19.910  0.00  0.00    +0.003 C 
BRANCH   5  10
ATOM     10  N   UNL     1      33.790 -18.914 -21.301  0.00  0.00    -0.312 N 
ATOM     11  H   UNL     1      32.858 -18.830 -20.993  0.00  0.00    +0.152 HD
BRANCH  10  17
ATOM     12  O   UNL     1      34.884 -14.726 -23.109  0.00  0.00    -0.445 OA
ATOM     13  O   UNL     1      35.089 -16.473 -24.595  0.00  0.00    -0.245 OA
ATOM     14  C   UNL     1      34.519 -15.919 -21.107  0.00  0.00    +0.082 C 
ATOM     15  C   UNL     1      34.480 -16.815 -22.285  0.00  0.00    +0.072 C 
ATOM     16  C   UNL     1      34.365 -14.576 -21.779  0.00  0.00    +0.214 C 
ATOM     17  C   UNL     1      34.143 -18.105 -22.332  0.00  0.00    +0.064 C 
ATOM     18  C   UNL     1      34.846 -16.038 -23.484  0.00  0.00    +0.339 C 
ENDBRANCH  10  17
ENDBRANCH   5  10
ENDBRANCH   1   4
BRANCH   1  19
ATOM     19  N   UNL     1      32.461 -22.554 -18.042  0.00  0.00    -0.173 NA
ATOM     20  H   UNL     1      31.767 -23.145 -18.502  0.00  0.00    +0.149 HD
BRANCH  19  21
ATOM     21  C   UNL     1      32.059 -22.446 -16.632  0.00  0.00    +0.147 C 
BRANCH  21  25
ATOM     22  N   UNL     1      29.663 -22.386 -17.023  0.00  0.00    -0.335 NA
ATOM     23  N   UNL     1      28.159 -23.958 -15.986  0.00  0.00    -0.337 NA
ATOM     24  N   UNL     1      27.354 -22.292 -17.429  0.00  0.00    -0.283 N 
ATOM     25  C   UNL     1      30.682 -23.000 -16.388  0.00  0.00    +0.124 C 
ATOM     26  C   UNL     1      30.522 -24.082 -15.548  0.00  0.00    +0.112 C 
ATOM     27  C   UNL     1      29.226 -24.523 -15.383  0.00  0.00    +0.107 C 
ATOM     28  C   UNL     1      28.445 -22.909 -16.780  0.00  0.00    +0.195 C 
ATOM     29  C   UNL     1      28.952 -25.688 -14.493  0.00  0.00    +0.063 C 
ATOM     30  H   UNL     1      27.504 -21.520 -18.022  0.00  0.00    +0.156 HD
ATOM     31  H   UNL     1      26.441 -22.633 -17.289  0.00  0.00    +0.156 HD
ENDBRANCH  21  25
ENDBRANCH  19  21
ENDBRANCH   1  19
TORSDOF 6
ENDMDL
