MODEL 1
REMARK VINA RESULT:      -4.3      0.000      0.000
REMARK  Name = 445319
REMARK  2 active torsions:
REMARK  status: ('A' for Active; 'I' for Inactive)
REMARK    1  A    between atoms: C_3  and  S_7
REMARK    2  A    between atoms: S_7  and  C_8
REMARK                            x       y       z     vdW  Elec       q    Type
REMARK                         _______ _______ _______ _____ _____    ______ ____
ROOT
ATOM      1  N   UNL     1      34.915 -16.672 -21.144  0.00  0.00    -0.338 N 
ATOM      2  N   UNL     1      35.620 -16.411 -23.383  0.00  0.00    -0.280 NA
ATOM      3  C   UNL     1      35.156 -17.128 -22.410  0.00  0.00    +0.144 C 
ATOM      4  H   UNL     1      34.562 -17.285 -20.459  0.00  0.00    +0.144 HD
ATOM      5  H   UNL     1      35.095 -15.731 -20.917  0.00  0.00    +0.144 HD
ATOM      6  H   UNL     1      35.765 -16.818 -24.268  0.00  0.00    +0.189 HD
ENDROOT
BRANCH   3   7
ATOM      7  S   UNL     1      34.783 -18.832 -22.640  0.00  0.00    -0.082 S 
BRANCH   7   8
ATOM      8  C   UNL     1      34.490 -19.370 -20.922  0.00  0.00    +0.055 C 
ATOM      9  C   UNL     1      33.085 -19.947 -20.796  0.00  0.00    +0.012 C 
ATOM     10  C   UNL     1      35.547 -20.389 -20.515  0.00  0.00    +0.012 C 
ENDBRANCH   7   8
ENDBRANCH   3   7
TORSDOF 2
ENDMDL
MODEL 2
REMARK VINA RESULT:      -4.3     10.683     11.232
REMARK  Name = 445319
REMARK  2 active torsions:
REMARK  status: ('A' for Active; 'I' for Inactive)
REMARK    1  A    between atoms: C_3  and  S_7
REMARK    2  A    between atoms: S_7  and  C_8
REMARK                            x       y       z     vdW  Elec       q    Type
REMARK                         _______ _______ _______ _____ _____    ______ ____
ROOT
ATOM      1  N   UNL     1      35.445 -25.513 -15.052  0.00  0.00    -0.338 N 
ATOM      2  N   UNL     1      36.837 -27.116 -16.087  0.00  0.00    -0.280 NA
ATOM      3  C   UNL     1      36.480 -26.405 -15.065  0.00  0.00    +0.144 C 
ATOM      4  H   UNL     1      35.239 -25.010 -14.230  0.00  0.00    +0.144 HD
ATOM      5  H   UNL     1      34.906 -25.372 -15.864  0.00  0.00    +0.144 HD
ATOM      6  H   UNL     1      37.597 -27.738 -16.013  0.00  0.00    +0.189 HD
ENDROOT
BRANCH   3   7
ATOM      7  S   UNL     1      37.338 -26.529 -13.534  0.00  0.00    -0.082 S 
BRANCH   7   8
ATOM      8  C   UNL     1      38.403 -25.049 -13.600  0.00  0.00    +0.055 C 
ATOM      9  C   UNL     1      38.326 -24.300 -12.275  0.00  0.00    +0.012 C 
ATOM     10  C   UNL     1      39.835 -25.461 -13.922  0.00  0.00    +0.012 C 
ENDBRANCH   7   8
ENDBRANCH   3   7
TORSDOF 2
ENDMDL
MODEL 3
REMARK VINA RESULT:      -4.3      1.161      1.977
REMARK  Name = 445319
REMARK  2 active torsions:
REMARK  status: ('A' for Active; 'I' for Inactive)
REMARK    1  A    between atoms: C_3  and  S_7
REMARK    2  A    between atoms: S_7  and  C_8
REMARK                            x       y       z     vdW  Elec       q    Type
REMARK                         _______ _______ _______ _____ _____    ______ ____
ROOT
ATOM      1  N   UNL     1      35.037 -18.654 -23.825  0.00  0.00    -0.338 N 
ATOM      2  N   UNL     1      35.641 -16.403 -23.442  0.00  0.00    -0.280 NA
ATOM      3  C   UNL     1      35.189 -17.547 -23.038  0.00  0.00    +0.144 C 
ATOM      4  H   UNL     1      34.684 -19.488 -23.438  0.00  0.00    +0.144 HD
ATOM      5  H   UNL     1      35.278 -18.617 -24.779  0.00  0.00    +0.144 HD
ATOM      6  H   UNL     1      35.720 -15.653 -22.808  0.00  0.00    +0.189 HD
ENDROOT
BRANCH   3   7
ATOM      7  S   UNL     1      34.706 -17.788 -21.363  0.00  0.00    -0.082 S 
BRANCH   7   8
ATOM      8  C   UNL     1      34.393 -19.585 -21.336  0.00  0.00    +0.055 C 
ATOM      9  C   UNL     1      35.496 -20.287 -20.551  0.00  0.00    +0.012 C 
ATOM     10  C   UNL     1      33.021 -19.858 -20.731  0.00  0.00    +0.012 C 
ENDBRANCH   7   8
ENDBRANCH   3   7
TORSDOF 2
ENDMDL
MODEL 4
REMARK VINA RESULT:      -4.2      9.388     10.328
REMARK  Name = 445319
REMARK  2 active torsions:
REMARK  status: ('A' for Active; 'I' for Inactive)
REMARK    1  A    between atoms: C_3  and  S_7
REMARK    2  A    between atoms: S_7  and  C_8
REMARK                            x       y       z     vdW  Elec       q    Type
REMARK                         _______ _______ _______ _____ _____    ______ ____
ROOT
ATOM      1  N   UNL     1      37.115 -27.051 -13.767  0.00  0.00    -0.338 N 
ATOM      2  N   UNL     1      36.762 -27.136 -16.101  0.00  0.00    -0.280 NA
ATOM      3  C   UNL     1      36.892 -26.483 -14.990  0.00  0.00    +0.144 C 
ATOM      4  H   UNL     1      37.201 -26.481 -12.968  0.00  0.00    +0.144 HD
ATOM      5  H   UNL     1      37.188 -28.029 -13.684  0.00  0.00    +0.144 HD
ATOM      6  H   UNL     1      36.603 -26.649 -16.942  0.00  0.00    +0.189 HD
ENDROOT
BRANCH   3   7
ATOM      7  S   UNL     1      36.784 -24.728 -14.956  0.00  0.00    -0.082 S 
BRANCH   7   8
ATOM      8  C   UNL     1      34.977 -24.481 -14.920  0.00  0.00    +0.055 C 
ATOM      9  C   UNL     1      34.526 -24.185 -13.494  0.00  0.00    +0.012 C 
ATOM     10  C   UNL     1      34.594 -23.352 -15.870  0.00  0.00    +0.012 C 
ENDBRANCH   7   8
ENDBRANCH   3   7
TORSDOF 2
ENDMDL
MODEL 5
REMARK VINA RESULT:      -4.2      9.467     10.460
REMARK  Name = 445319
REMARK  2 active torsions:
REMARK  status: ('A' for Active; 'I' for Inactive)
REMARK    1  A    between atoms: C_3  and  S_7
REMARK    2  A    between atoms: S_7  and  C_8
REMARK                            x       y       z     vdW  Elec       q    Type
REMARK                         _______ _______ _______ _____ _____    ______ ____
ROOT
ATOM      1  N   UNL     1      37.478 -27.021 -14.029  0.00  0.00    -0.338 N 
ATOM      2  N   UNL     1      36.762 -27.288 -16.264  0.00  0.00    -0.280 NA
ATOM      3  C   UNL     1      36.802 -26.629 -15.150  0.00  0.00    +0.144 C 
ATOM      4  H   UNL     1      37.456 -26.460 -13.220  0.00  0.00    +0.144 HD
ATOM      5  H   UNL     1      37.986 -27.865 -14.030  0.00  0.00    +0.144 HD
ATOM      6  H   UNL     1      36.250 -26.935 -17.027  0.00  0.00    +0.189 HD
ENDROOT
BRANCH   3   7
ATOM      7  S   UNL     1      35.945 -25.103 -14.973  0.00  0.00    -0.082 S 
BRANCH   7   8
ATOM      8  C   UNL     1      37.321 -23.960 -14.615  0.00  0.00    +0.055 C 
ATOM      9  C   UNL     1      37.405 -22.899 -15.706  0.00  0.00    +0.012 C 
ATOM     10  C   UNL     1      37.122 -23.330 -13.242  0.00  0.00    +0.012 C 
ENDBRANCH   7   8
ENDBRANCH   3   7
TORSDOF 2
ENDMDL
MODEL 6
REMARK VINA RESULT:      -4.2     10.213     11.231
REMARK  Name = 445319
REMARK  2 active torsions:
REMARK  status: ('A' for Active; 'I' for Inactive)
REMARK    1  A    between atoms: C_3  and  S_7
REMARK    2  A    between atoms: S_7  and  C_8
REMARK                            x       y       z     vdW  Elec       q    Type
REMARK                         _______ _______ _______ _____ _____    ______ ____
ROOT
ATOM      1  N   UNL     1      32.973  -7.413 -19.742  0.00  0.00    -0.338 N 
ATOM      2  N   UNL     1      32.029  -9.549 -19.385  0.00  0.00    -0.280 NA
ATOM      3  C   UNL     1      32.443  -8.600 -20.164  0.00  0.00    +0.144 C 
ATOM      4  H   UNL     1      33.263  -6.742 -20.402  0.00  0.00    +0.144 HD
ATOM      5  H   UNL     1      33.063  -7.228 -18.779  0.00  0.00    +0.144 HD
ATOM      6  H   UNL     1      31.660 -10.376 -19.771  0.00  0.00    +0.189 HD
ENDROOT
BRANCH   3   7
ATOM      7  S   UNL     1      32.351  -8.762 -21.913  0.00  0.00    -0.082 S 
BRANCH   7   8
ATOM      8  C   UNL     1      33.254  -7.274 -22.458  0.00  0.00    +0.055 C 
ATOM      9  C   UNL     1      34.497  -7.683 -23.240  0.00  0.00    +0.012 C 
ATOM     10  C   UNL     1      32.335  -6.394 -23.298  0.00  0.00    +0.012 C 
ENDBRANCH   7   8
ENDBRANCH   3   7
TORSDOF 2
ENDMDL
MODEL 7
REMARK VINA RESULT:      -4.1     11.387     11.866
REMARK  Name = 445319
REMARK  2 active torsions:
REMARK  status: ('A' for Active; 'I' for Inactive)
REMARK    1  A    between atoms: C_3  and  S_7
REMARK    2  A    between atoms: S_7  and  C_8
REMARK                            x       y       z     vdW  Elec       q    Type
REMARK                         _______ _______ _______ _____ _____    ______ ____
ROOT
ATOM      1  N   UNL     1      36.945 -23.307 -11.010  0.00  0.00    -0.338 N 
ATOM      2  N   UNL     1      35.365 -25.029 -10.666  0.00  0.00    -0.280 NA
ATOM      3  C   UNL     1      36.118 -24.309 -11.435  0.00  0.00    +0.144 C 
ATOM      4  H   UNL     1      37.486 -22.806 -11.663  0.00  0.00    +0.144 HD
ATOM      5  H   UNL     1      36.998 -23.085 -10.052  0.00  0.00    +0.144 HD
ATOM      6  H   UNL     1      34.797 -25.734 -11.053  0.00  0.00    +0.189 HD
ENDROOT
BRANCH   3   7
ATOM      7  S   UNL     1      36.142 -24.569 -13.174  0.00  0.00    -0.082 S 
BRANCH   7   8
ATOM      8  C   UNL     1      37.199 -26.051 -13.301  0.00  0.00    +0.055 C 
ATOM      9  C   UNL     1      36.995 -26.714 -14.658  0.00  0.00    +0.012 C 
ATOM     10  C   UNL     1      38.657 -25.662 -13.087  0.00  0.00    +0.012 C 
ENDBRANCH   7   8
ENDBRANCH   3   7
TORSDOF 2
ENDMDL
MODEL 8
REMARK VINA RESULT:      -4.1      8.889      9.550
REMARK  Name = 445319
REMARK  2 active torsions:
REMARK  status: ('A' for Active; 'I' for Inactive)
REMARK    1  A    between atoms: C_3  and  S_7
REMARK    2  A    between atoms: S_7  and  C_8
REMARK                            x       y       z     vdW  Elec       q    Type
REMARK                         _______ _______ _______ _____ _____    ______ ____
ROOT
ATOM      1  N   UNL     1      27.736 -22.404 -15.719  0.00  0.00    -0.338 N 
ATOM      2  N   UNL     1      27.716 -23.792 -17.630  0.00  0.00    -0.280 NA
ATOM      3  C   UNL     1      28.196 -23.442 -16.480  0.00  0.00    +0.144 C 
ATOM      4  H   UNL     1      28.159 -22.204 -14.853  0.00  0.00    +0.144 HD
ATOM      5  H   UNL     1      26.982 -21.856 -16.038  0.00  0.00    +0.144 HD
ATOM      6  H   UNL     1      28.106 -24.555 -18.116  0.00  0.00    +0.189 HD
ENDROOT
BRANCH   3   7
ATOM      7  S   UNL     1      29.547 -24.311 -15.763  0.00  0.00    -0.082 S 
BRANCH   7   8
ATOM      8  C   UNL     1      30.791 -22.984 -15.620  0.00  0.00    +0.055 C 
ATOM      9  C   UNL     1      31.382 -22.981 -14.215  0.00  0.00    +0.012 C 
ATOM     10  C   UNL     1      31.872 -23.177 -16.677  0.00  0.00    +0.012 C 
ENDBRANCH   7   8
ENDBRANCH   3   7
TORSDOF 2
ENDMDL
MODEL 9
REMARK VINA RESULT:      -4.1      3.160      4.111
REMARK  Name = 445319
REMARK  2 active torsions:
REMARK  status: ('A' for Active; 'I' for Inactive)
REMARK    1  A    between atoms: C_3  and  S_7
REMARK    2  A    between atoms: S_7  and  C_8
REMARK                            x       y       z     vdW  Elec       q    Type
REMARK                         _______ _______ _______ _____ _____    ______ ____
ROOT
ATOM      1  N   UNL     1      33.336 -22.135 -19.508  0.00  0.00    -0.338 N 
ATOM      2  N   UNL     1      32.348 -20.092 -20.165  0.00  0.00    -0.280 NA
ATOM      3  C   UNL     1      33.372 -20.874 -20.036  0.00  0.00    +0.144 C 
ATOM      4  H   UNL     1      34.163 -22.665 -19.445  0.00  0.00    +0.144 HD
ATOM      5  H   UNL     1      32.484 -22.510 -19.189  0.00  0.00    +0.144 HD
ATOM      6  H   UNL     1      32.460 -19.196 -20.558  0.00  0.00    +0.189 HD
ENDROOT
BRANCH   3   7
ATOM      7  S   UNL     1      34.973 -20.359 -20.551  0.00  0.00    -0.082 S 
BRANCH   7   8
ATOM      8  C   UNL     1      34.566 -18.939 -21.621  0.00  0.00    +0.055 C 
ATOM      9  C   UNL     1      35.338 -17.709 -21.159  0.00  0.00    +0.012 C 
ATOM     10  C   UNL     1      34.885 -19.282 -23.072  0.00  0.00    +0.012 C 
ENDBRANCH   7   8
ENDBRANCH   3   7
TORSDOF 2
ENDMDL
