MODEL 1
REMARK VINA RESULT:     -11.5      0.000      0.000
REMARK  Name = 54674461
REMARK  5 active torsions:
REMARK  status: ('A' for Active; 'I' for Inactive)
REMARK    1  A    between atoms: N_2  and  C_29
REMARK    2  A    between atoms: C_7  and  C_14
REMARK    3  A    between atoms: C_15  and  N_21
REMARK    4  A    between atoms: C_22  and  O_24
REMARK    5  A    between atoms: C_29  and  C_31
REMARK                            x       y       z     vdW  Elec       q    Type
REMARK                         _______ _______ _______ _____ _____    ______ ____
ROOT
ATOM      1  F   UNL     1      29.389 -22.901 -15.472  0.00  0.00    -0.207 F 
ATOM      2  N   UNL     1      34.552 -24.384 -15.428  0.00  0.00    -0.193 N 
ATOM      3  N   UNL     1      35.119 -23.760 -16.475  0.00  0.00    -0.168 NA
ATOM      4  N   UNL     1      32.406 -24.600 -14.333  0.00  0.00    -0.251 NA
ATOM      5  C   UNL     1      32.894 -23.252 -16.318  0.00  0.00    +0.133 C 
ATOM      6  C   UNL     1      33.222 -24.117 -15.286  0.00  0.00    +0.133 C 
ATOM      7  C   UNL     1      34.106 -23.072 -17.014  0.00  0.00    +0.172 C 
ATOM      8  C   UNL     1      31.568 -22.812 -16.409  0.00  0.00    +0.015 C 
ATOM      9  C   UNL     1      30.672 -23.280 -15.447  0.00  0.00    +0.139 C 
ATOM     10  C   UNL     1      31.136 -24.147 -14.462  0.00  0.00    +0.182 C 
ENDROOT
BRANCH   7  14
ATOM     11  N   UNL     1      35.606 -22.012 -18.514  0.00  0.00    -0.326 NA
ATOM     12  N   UNL     1      33.224 -21.825 -18.827  0.00  0.00    -0.326 NA
ATOM     13  N   UNL     1      37.099 -20.951 -20.014  0.00  0.00    -0.334 N 
ATOM     14  C   UNL     1      34.324 -22.259 -18.183  0.00  0.00    +0.156 C 
ATOM     15  C   UNL     1      34.730 -20.740 -20.359  0.00  0.00    +0.210 C 
ATOM     16  C   UNL     1      35.773 -21.247 -19.612  0.00  0.00    +0.193 C 
ATOM     17  C   UNL     1      33.464 -21.065 -19.916  0.00  0.00    +0.193 C 
ATOM     18  H   UNL     1      37.860 -21.302 -19.497  0.00  0.00    +0.144 HD
ATOM     19  H   UNL     1      37.260 -20.397 -20.812  0.00  0.00    +0.144 HD
ATOM     20  N   UNL     1      32.347 -20.575 -20.637  0.00  0.00    -0.334 N 
ATOM     21  H   UNL     1      31.435 -20.794 -20.339  0.00  0.00    +0.144 HD
ATOM     22  H   UNL     1      32.484 -20.016 -21.436  0.00  0.00    +0.144 HD
BRANCH  15  24
ATOM     23  O   UNL     1      35.715 -17.913 -20.620  0.00  0.00    -0.226 OA
ATOM     24  N   UNL     1      34.940 -19.947 -21.490  0.00  0.00    -0.258 N 
ATOM     25  C   UNL     1      35.401 -18.636 -21.557  0.00  0.00    +0.402 C 
ATOM     26  H   UNL     1      34.736 -20.373 -22.354  0.00  0.00    +0.154 HD
BRANCH  25  27
ATOM     27  O   UNL     1      35.459 -18.244 -22.867  0.00  0.00    -0.431 OA
ATOM     28  C   UNL     1      34.891 -19.150 -23.821  0.00  0.00    +0.257 C 
ENDBRANCH  25  27
ENDBRANCH  15  24
ENDBRANCH   7  14
BRANCH   2  29
ATOM     29  C   UNL     1      35.357 -25.239 -14.588  0.00  0.00    +0.146 C 
BRANCH  29  31
ATOM     30  F   UNL     1      37.683 -23.622 -14.670  0.00  0.00    -0.204 F 
ATOM     31  C   UNL     1      35.913 -24.534 -13.376  0.00  0.00    +0.027 C 
ATOM     32  C   UNL     1      37.064 -23.752 -13.488  0.00  0.00    +0.138 C 
ATOM     33  C   UNL     1      35.276 -24.663 -12.142  0.00  0.00    -0.000 C 
ATOM     34  C   UNL     1      37.576 -23.101 -12.366  0.00  0.00    +0.029 C 
ATOM     35  C   UNL     1      35.789 -24.012 -11.020  0.00  0.00    -0.000 C 
ATOM     36  C   UNL     1      36.939 -23.231 -11.132  0.00  0.00    +0.002 C 
ENDBRANCH  29  31
ENDBRANCH   2  29
TORSDOF 5
ENDMDL
MODEL 2
REMARK VINA RESULT:     -11.3      0.623      1.644
REMARK  Name = 54674461
REMARK  5 active torsions:
REMARK  status: ('A' for Active; 'I' for Inactive)
REMARK    1  A    between atoms: N_2  and  C_29
REMARK    2  A    between atoms: C_7  and  C_14
REMARK    3  A    between atoms: C_15  and  N_21
REMARK    4  A    between atoms: C_22  and  O_24
REMARK    5  A    between atoms: C_29  and  C_31
REMARK                            x       y       z     vdW  Elec       q    Type
REMARK                         _______ _______ _______ _____ _____    ______ ____
ROOT
ATOM      1  F   UNL     1      29.456 -22.756 -15.258  0.00  0.00    -0.207 F 
ATOM      2  N   UNL     1      34.530 -24.510 -15.444  0.00  0.00    -0.193 N 
ATOM      3  N   UNL     1      35.087 -23.902 -16.507  0.00  0.00    -0.168 NA
ATOM      4  N   UNL     1      32.421 -24.627 -14.264  0.00  0.00    -0.251 NA
ATOM      5  C   UNL     1      32.900 -23.280 -16.252  0.00  0.00    +0.133 C 
ATOM      6  C   UNL     1      33.223 -24.174 -15.244  0.00  0.00    +0.133 C 
ATOM      7  C   UNL     1      34.091 -23.155 -16.995  0.00  0.00    +0.172 C 
ATOM      8  C   UNL     1      31.597 -22.769 -16.283  0.00  0.00    +0.015 C 
ATOM      9  C   UNL     1      30.717 -23.203 -15.290  0.00  0.00    +0.139 C 
ATOM     10  C   UNL     1      31.173 -24.106 -14.336  0.00  0.00    +0.182 C 
ENDROOT
BRANCH   7  14
ATOM     11  N   UNL     1      33.201 -21.874 -18.781  0.00  0.00    -0.326 NA
ATOM     12  N   UNL     1      35.584 -22.120 -18.518  0.00  0.00    -0.326 NA
ATOM     13  N   UNL     1      32.318 -20.593 -20.567  0.00  0.00    -0.334 N 
ATOM     14  C   UNL     1      34.304 -22.337 -18.162  0.00  0.00    +0.156 C 
ATOM     15  C   UNL     1      34.701 -20.818 -20.339  0.00  0.00    +0.210 C 
ATOM     16  C   UNL     1      33.437 -21.114 -19.870  0.00  0.00    +0.193 C 
ATOM     17  C   UNL     1      35.747 -21.353 -19.616  0.00  0.00    +0.193 C 
ATOM     18  H   UNL     1      31.407 -20.791 -20.251  0.00  0.00    +0.144 HD
ATOM     19  H   UNL     1      32.452 -20.034 -21.365  0.00  0.00    +0.144 HD
ATOM     20  N   UNL     1      37.072 -21.089 -20.045  0.00  0.00    -0.334 N 
ATOM     21  H   UNL     1      37.834 -21.460 -19.545  0.00  0.00    +0.144 HD
ATOM     22  H   UNL     1      37.229 -20.534 -20.843  0.00  0.00    +0.144 HD
BRANCH  15  24
ATOM     23  O   UNL     1      35.693 -17.995 -20.615  0.00  0.00    -0.226 OA
ATOM     24  N   UNL     1      34.908 -20.029 -21.474  0.00  0.00    -0.258 N 
ATOM     25  C   UNL     1      35.372 -18.720 -21.548  0.00  0.00    +0.402 C 
ATOM     26  H   UNL     1      34.698 -20.457 -22.336  0.00  0.00    +0.154 HD
BRANCH  25  27
ATOM     27  O   UNL     1      35.425 -18.333 -22.860  0.00  0.00    -0.431 OA
ATOM     28  C   UNL     1      34.945 -19.285 -23.816  0.00  0.00    +0.257 C 
ENDBRANCH  25  27
ENDBRANCH  15  24
ENDBRANCH   7  14
BRANCH   2  29
ATOM     29  C   UNL     1      35.322 -25.418 -14.648  0.00  0.00    +0.146 C 
BRANCH  29  31
ATOM     30  F   UNL     1      38.128 -25.817 -14.640  0.00  0.00    -0.204 F 
ATOM     31  C   UNL     1      36.251 -24.716 -13.689  0.00  0.00    +0.027 C 
ATOM     32  C   UNL     1      37.624 -24.960 -13.741  0.00  0.00    +0.138 C 
ATOM     33  C   UNL     1      35.737 -23.823 -12.749  0.00  0.00    -0.000 C 
ATOM     34  C   UNL     1      38.482 -24.310 -12.854  0.00  0.00    +0.029 C 
ATOM     35  C   UNL     1      36.595 -23.173 -11.861  0.00  0.00    -0.000 C 
ATOM     36  C   UNL     1      37.967 -23.417 -11.913  0.00  0.00    +0.002 C 
ENDBRANCH  29  31
ENDBRANCH   2  29
TORSDOF 5
ENDMDL
MODEL 3
REMARK VINA RESULT:     -11.1      1.313      4.625
REMARK  Name = 54674461
REMARK  5 active torsions:
REMARK  status: ('A' for Active; 'I' for Inactive)
REMARK    1  A    between atoms: N_2  and  C_29
REMARK    2  A    between atoms: C_7  and  C_14
REMARK    3  A    between atoms: C_15  and  N_21
REMARK    4  A    between atoms: C_22  and  O_24
REMARK    5  A    between atoms: C_29  and  C_31
REMARK                            x       y       z     vdW  Elec       q    Type
REMARK                         _______ _______ _______ _____ _____    ______ ____
ROOT
ATOM      1  F   UNL     1      37.870 -23.622 -13.977  0.00  0.00    -0.207 F 
ATOM      2  N   UNL     1      32.746 -24.087 -15.522  0.00  0.00    -0.193 N 
ATOM      3  N   UNL     1      32.661 -23.446 -16.701  0.00  0.00    -0.168 NA
ATOM      4  N   UNL     1      34.370 -24.625 -13.812  0.00  0.00    -0.251 NA
ATOM      5  C   UNL     1      34.790 -23.362 -15.867  0.00  0.00    +0.133 C 
ATOM      6  C   UNL     1      33.996 -24.068 -14.977  0.00  0.00    +0.133 C 
ATOM      7  C   UNL     1      33.908 -23.007 -16.907  0.00  0.00    +0.172 C 
ATOM      8  C   UNL     1      36.142 -23.189 -15.546  0.00  0.00    +0.015 C 
ATOM      9  C   UNL     1      36.590 -23.747 -14.348  0.00  0.00    +0.139 C 
ATOM     10  C   UNL     1      35.684 -24.433 -13.545  0.00  0.00    +0.182 C 
ENDROOT
BRANCH   7  14
ATOM     11  N   UNL     1      35.531 -22.130 -18.396  0.00  0.00    -0.326 NA
ATOM     12  N   UNL     1      33.182 -21.756 -18.786  0.00  0.00    -0.326 NA
ATOM     13  N   UNL     1      37.148 -21.252 -19.887  0.00  0.00    -0.334 N 
ATOM     14  C   UNL     1      34.224 -22.256 -18.096  0.00  0.00    +0.156 C 
ATOM     15  C   UNL     1      34.815 -20.856 -20.309  0.00  0.00    +0.210 C 
ATOM     16  C   UNL     1      35.791 -21.421 -19.514  0.00  0.00    +0.193 C 
ATOM     17  C   UNL     1      33.515 -21.058 -19.892  0.00  0.00    +0.193 C 
ATOM     18  H   UNL     1      37.863 -21.646 -19.336  0.00  0.00    +0.144 HD
ATOM     19  H   UNL     1      37.376 -20.742 -20.698  0.00  0.00    +0.144 HD
ATOM     20  N   UNL     1      32.462 -20.503 -20.662  0.00  0.00    -0.334 N 
ATOM     21  H   UNL     1      31.527 -20.634 -20.384  0.00  0.00    +0.144 HD
ATOM     22  H   UNL     1      32.667 -19.987 -21.475  0.00  0.00    +0.144 HD
BRANCH  15  24
ATOM     23  O   UNL     1      35.544 -17.962 -20.659  0.00  0.00    -0.226 OA
ATOM     24  N   UNL     1      35.121 -20.125 -21.459  0.00  0.00    -0.258 N 
ATOM     25  C   UNL     1      35.454 -18.778 -21.568  0.00  0.00    +0.402 C 
ATOM     26  H   UNL     1      35.099 -20.629 -22.304  0.00  0.00    +0.154 HD
BRANCH  25  27
ATOM     27  O   UNL     1      35.679 -18.474 -22.884  0.00  0.00    -0.431 OA
ATOM     28  C   UNL     1      34.721 -18.983 -23.819  0.00  0.00    +0.257 C 
ENDBRANCH  25  27
ENDBRANCH  15  24
ENDBRANCH   7  14
BRANCH   2  29
ATOM     29  C   UNL     1      31.567 -24.707 -14.963  0.00  0.00    +0.146 C 
BRANCH  29  31
ATOM     30  F   UNL     1      30.799 -22.101 -14.157  0.00  0.00    -0.204 F 
ATOM     31  C   UNL     1      30.282 -24.054 -15.405  0.00  0.00    +0.027 C 
ATOM     32  C   UNL     1      29.966 -22.766 -14.970  0.00  0.00    +0.138 C 
ATOM     33  C   UNL     1      29.409 -24.737 -16.251  0.00  0.00    -0.000 C 
ATOM     34  C   UNL     1      28.777 -22.164 -15.380  0.00  0.00    +0.029 C 
ATOM     35  C   UNL     1      28.219 -24.134 -16.661  0.00  0.00    -0.000 C 
ATOM     36  C   UNL     1      27.903 -22.848 -16.225  0.00  0.00    +0.002 C 
ENDBRANCH  29  31
ENDBRANCH   2  29
TORSDOF 5
ENDMDL
MODEL 4
REMARK VINA RESULT:     -10.5      3.906      7.505
REMARK  Name = 54674461
REMARK  5 active torsions:
REMARK  status: ('A' for Active; 'I' for Inactive)
REMARK    1  A    between atoms: N_2  and  C_29
REMARK    2  A    between atoms: C_7  and  C_14
REMARK    3  A    between atoms: C_15  and  N_21
REMARK    4  A    between atoms: C_22  and  O_24
REMARK    5  A    between atoms: C_29  and  C_31
REMARK                            x       y       z     vdW  Elec       q    Type
REMARK                         _______ _______ _______ _____ _____    ______ ____
ROOT
ATOM      1  F   UNL     1      30.396 -23.984 -12.913  0.00  0.00    -0.207 F 
ATOM      2  N   UNL     1      33.092 -22.824 -17.413  0.00  0.00    -0.193 N 
ATOM      3  N   UNL     1      34.357 -23.224 -17.193  0.00  0.00    -0.168 NA
ATOM      4  N   UNL     1      30.946 -22.748 -16.297  0.00  0.00    -0.251 NA
ATOM      5  C   UNL     1      33.033 -23.636 -15.373  0.00  0.00    +0.133 C 
ATOM      6  C   UNL     1      32.256 -23.046 -16.357  0.00  0.00    +0.133 C 
ATOM      7  C   UNL     1      34.315 -23.718 -15.950  0.00  0.00    +0.172 C 
ATOM      8  C   UNL     1      32.414 -23.974 -14.163  0.00  0.00    +0.015 C 
ATOM      9  C   UNL     1      31.053 -23.689 -14.040  0.00  0.00    +0.139 C 
ATOM     10  C   UNL     1      30.393 -23.092 -15.110  0.00  0.00    +0.182 C 
ENDROOT
BRANCH   7  14
ATOM     11  N   UNL     1      36.122 -23.480 -14.433  0.00  0.00    -0.326 NA
ATOM     12  N   UNL     1      35.888 -25.482 -15.755  0.00  0.00    -0.326 NA
ATOM     13  N   UNL     1      37.928 -23.249 -12.918  0.00  0.00    -0.334 N 
ATOM     14  C   UNL     1      35.507 -24.257 -15.346  0.00  0.00    +0.156 C 
ATOM     15  C   UNL     1      37.730 -25.259 -14.221  0.00  0.00    +0.210 C 
ATOM     16  C   UNL     1      37.234 -24.015 -13.888  0.00  0.00    +0.193 C 
ATOM     17  C   UNL     1      37.008 -25.955 -15.170  0.00  0.00    +0.193 C 
ATOM     18  H   UNL     1      37.594 -22.358 -12.665  0.00  0.00    +0.144 HD
ATOM     19  H   UNL     1      38.743 -23.607 -12.498  0.00  0.00    +0.144 HD
ATOM     20  N   UNL     1      37.462 -27.239 -15.559  0.00  0.00    -0.334 N 
ATOM     21  H   UNL     1      36.964 -27.754 -16.234  0.00  0.00    +0.144 HD
ATOM     22  H   UNL     1      38.277 -27.616 -15.154  0.00  0.00    +0.144 HD
BRANCH  15  24
ATOM     23  O   UNL     1      40.446 -25.793 -15.389  0.00  0.00    -0.226 OA
ATOM     24  N   UNL     1      38.887 -25.780 -13.639  0.00  0.00    -0.258 N 
ATOM     25  C   UNL     1      40.127 -26.009 -14.227  0.00  0.00    +0.402 C 
ATOM     26  H   UNL     1      38.817 -26.016 -12.685  0.00  0.00    +0.154 HD
BRANCH  25  27
ATOM     27  O   UNL     1      40.982 -26.529 -13.292  0.00  0.00    -0.431 OA
ATOM     28  C   UNL     1      41.741 -27.672 -13.702  0.00  0.00    +0.257 C 
ENDBRANCH  25  27
ENDBRANCH  15  24
ENDBRANCH   7  14
BRANCH   2  29
ATOM     29  C   UNL     1      32.745 -22.224 -18.679  0.00  0.00    +0.146 C 
BRANCH  29  31
ATOM     30  F   UNL     1      32.407 -19.982 -20.380  0.00  0.00    -0.204 F 
ATOM     31  C   UNL     1      33.898 -21.508 -19.336  0.00  0.00    +0.027 C 
ATOM     32  C   UNL     1      33.659 -20.409 -20.163  0.00  0.00    +0.138 C 
ATOM     33  C   UNL     1      35.204 -21.944 -19.117  0.00  0.00    -0.000 C 
ATOM     34  C   UNL     1      34.727 -19.747 -20.769  0.00  0.00    +0.029 C 
ATOM     35  C   UNL     1      36.272 -21.282 -19.724  0.00  0.00    -0.000 C 
ATOM     36  C   UNL     1      36.034 -20.185 -20.550  0.00  0.00    +0.002 C 
ENDBRANCH  29  31
ENDBRANCH   2  29
TORSDOF 5
ENDMDL
MODEL 5
REMARK VINA RESULT:     -10.2      7.661     11.446
REMARK  Name = 54674461
REMARK  5 active torsions:
REMARK  status: ('A' for Active; 'I' for Inactive)
REMARK    1  A    between atoms: N_2  and  C_29
REMARK    2  A    between atoms: C_7  and  C_14
REMARK    3  A    between atoms: C_15  and  N_21
REMARK    4  A    between atoms: C_22  and  O_24
REMARK    5  A    between atoms: C_29  and  C_31
REMARK                            x       y       z     vdW  Elec       q    Type
REMARK                         _______ _______ _______ _____ _____    ______ ____
ROOT
ATOM      1  F   UNL     1      32.722 -15.696 -27.329  0.00  0.00    -0.207 F 
ATOM      2  N   UNL     1      34.648 -15.670 -22.314  0.00  0.00    -0.193 N 
ATOM      3  N   UNL     1      34.301 -14.478 -21.797  0.00  0.00    -0.168 NA
ATOM      4  N   UNL     1      34.438 -16.939 -24.363  0.00  0.00    -0.251 NA
ATOM      5  C   UNL     1      33.564 -14.688 -23.953  0.00  0.00    +0.133 C 
ATOM      6  C   UNL     1      34.233 -15.850 -23.601  0.00  0.00    +0.133 C 
ATOM      7  C   UNL     1      33.642 -13.885 -22.798  0.00  0.00    +0.172 C 
ATOM      8  C   UNL     1      33.028 -14.605 -25.243  0.00  0.00    +0.015 C 
ATOM      9  C   UNL     1      33.208 -15.705 -26.082  0.00  0.00    +0.139 C 
ATOM     10  C   UNL     1      33.902 -16.811 -25.601  0.00  0.00    +0.182 C 
ENDROOT
BRANCH   7  14
ATOM     11  N   UNL     1      32.120 -12.427 -21.710  0.00  0.00    -0.326 NA
ATOM     12  N   UNL     1      33.630 -11.590 -23.392  0.00  0.00    -0.326 NA
ATOM     13  N   UNL     1      30.603 -10.966 -20.627  0.00  0.00    -0.334 N 
ATOM     14  C   UNL     1      33.101 -12.560 -22.624  0.00  0.00    +0.156 C 
ATOM     15  C   UNL     1      32.091 -10.094 -22.301  0.00  0.00    +0.210 C 
ATOM     16  C   UNL     1      31.637 -11.175 -21.574  0.00  0.00    +0.193 C 
ATOM     17  C   UNL     1      33.099 -10.363 -23.205  0.00  0.00    +0.193 C 
ATOM     18  H   UNL     1      30.262 -11.722 -20.097  0.00  0.00    +0.144 HD
ATOM     19  H   UNL     1      30.227 -10.066 -20.500  0.00  0.00    +0.144 HD
ATOM     20  N   UNL     1      33.611  -9.297 -23.986  0.00  0.00    -0.334 N 
ATOM     21  H   UNL     1      34.330  -9.465 -24.637  0.00  0.00    +0.144 HD
ATOM     22  H   UNL     1      33.247  -8.389 -23.877  0.00  0.00    +0.144 HD
BRANCH  15  24
ATOM     23  O   UNL     1      33.013  -7.796 -20.598  0.00  0.00    -0.226 OA
ATOM     24  N   UNL     1      31.564  -8.811 -22.136  0.00  0.00    -0.258 N 
ATOM     25  C   UNL     1      32.032  -7.777 -21.331  0.00  0.00    +0.402 C 
ATOM     26  H   UNL     1      30.755  -8.610 -22.660  0.00  0.00    +0.154 HD
BRANCH  25  27
ATOM     27  O   UNL     1      31.214  -6.689 -21.472  0.00  0.00    -0.431 OA
ATOM     28  C   UNL     1      30.861  -6.338 -22.815  0.00  0.00    +0.257 C 
ENDBRANCH  25  27
ENDBRANCH  15  24
ENDBRANCH   7  14
BRANCH   2  29
ATOM     29  C   UNL     1      35.391 -16.608 -21.505  0.00  0.00    +0.146 C 
BRANCH  29  31
ATOM     30  F   UNL     1      36.621 -19.148 -21.243  0.00  0.00    -0.204 F 
ATOM     31  C   UNL     1      34.622 -17.867 -21.193  0.00  0.00    +0.027 C 
ATOM     32  C   UNL     1      35.292 -19.086 -21.078  0.00  0.00    +0.138 C 
ATOM     33  C   UNL     1      33.239 -17.814 -21.019  0.00  0.00    -0.000 C 
ATOM     34  C   UNL     1      34.580 -20.249 -20.788  0.00  0.00    +0.029 C 
ATOM     35  C   UNL     1      32.526 -18.978 -20.730  0.00  0.00    -0.000 C 
ATOM     36  C   UNL     1      33.196 -20.196 -20.615  0.00  0.00    +0.002 C 
ENDBRANCH  29  31
ENDBRANCH   2  29
TORSDOF 5
ENDMDL
MODEL 6
REMARK VINA RESULT:      -9.8     10.403     15.390
REMARK  Name = 54674461
REMARK  5 active torsions:
REMARK  status: ('A' for Active; 'I' for Inactive)
REMARK    1  A    between atoms: N_2  and  C_29
REMARK    2  A    between atoms: C_7  and  C_14
REMARK    3  A    between atoms: C_15  and  N_21
REMARK    4  A    between atoms: C_22  and  O_24
REMARK    5  A    between atoms: C_29  and  C_31
REMARK                            x       y       z     vdW  Elec       q    Type
REMARK                         _______ _______ _______ _____ _____    ______ ____
ROOT
ATOM      1  F   UNL     1      30.805 -10.034 -19.195  0.00  0.00    -0.207 F 
ATOM      2  N   UNL     1      33.848  -8.395 -23.307  0.00  0.00    -0.193 N 
ATOM      3  N   UNL     1      34.055  -9.487 -24.065  0.00  0.00    -0.168 NA
ATOM      4  N   UNL     1      32.718  -7.732 -21.273  0.00  0.00    -0.251 NA
ATOM      5  C   UNL     1      32.764  -9.980 -22.241  0.00  0.00    +0.133 C 
ATOM      6  C   UNL     1      33.083  -8.632 -22.203  0.00  0.00    +0.133 C 
ATOM      7  C   UNL     1      33.393 -10.449 -23.412  0.00  0.00    +0.172 C 
ATOM      8  C   UNL     1      31.973 -10.497 -21.208  0.00  0.00    +0.015 C 
ATOM      9  C   UNL     1      31.563  -9.610 -20.213  0.00  0.00    +0.139 C 
ATOM     10  C   UNL     1      31.956  -8.278 -20.296  0.00  0.00    +0.182 C 
ENDROOT
BRANCH   7  14
ATOM     11  N   UNL     1      33.259 -12.783 -23.020  0.00  0.00    -0.326 NA
ATOM     12  N   UNL     1      33.488 -11.929 -25.262  0.00  0.00    -0.326 NA
ATOM     13  N   UNL     1      33.125 -15.116 -22.634  0.00  0.00    -0.334 N 
ATOM     14  C   UNL     1      33.379 -11.795 -23.926  0.00  0.00    +0.156 C 
ATOM     15  C   UNL     1      33.355 -14.303 -24.884  0.00  0.00    +0.210 C 
ATOM     16  C   UNL     1      33.250 -14.030 -23.535  0.00  0.00    +0.193 C 
ATOM     17  C   UNL     1      33.473 -13.202 -25.709  0.00  0.00    +0.193 C 
ATOM     18  H   UNL     1      33.049 -14.946 -21.667  0.00  0.00    +0.144 HD
ATOM     19  H   UNL     1      33.114 -16.039 -22.974  0.00  0.00    +0.144 HD
ATOM     20  N   UNL     1      33.586 -13.412 -27.106  0.00  0.00    -0.334 N 
ATOM     21  H   UNL     1      33.671 -12.642 -27.713  0.00  0.00    +0.144 HD
ATOM     22  H   UNL     1      33.581 -14.328 -27.468  0.00  0.00    +0.144 HD
BRANCH  15  24
ATOM     23  O   UNL     1      35.258 -16.586 -24.444  0.00  0.00    -0.226 OA
ATOM     24  N   UNL     1      33.346 -15.608 -25.383  0.00  0.00    -0.258 N 
ATOM     25  C   UNL     1      34.256 -16.633 -25.147  0.00  0.00    +0.402 C 
ATOM     26  H   UNL     1      32.596 -15.831 -25.980  0.00  0.00    +0.154 HD
BRANCH  25  27
ATOM     27  O   UNL     1      33.866 -17.751 -25.834  0.00  0.00    -0.431 OA
ATOM     28  C   UNL     1      34.125 -19.006 -25.194  0.00  0.00    +0.257 C 
ENDBRANCH  25  27
ENDBRANCH  15  24
ENDBRANCH   7  14
BRANCH   2  29
ATOM     29  C   UNL     1      34.425  -7.133 -23.706  0.00  0.00    +0.146 C 
BRANCH  29  31
ATOM     30  F   UNL     1      35.080  -5.939 -26.191  0.00  0.00    -0.204 F 
ATOM     31  C   UNL     1      33.469  -6.257 -24.476  0.00  0.00    +0.027 C 
ATOM     32  C   UNL     1      33.857  -5.700 -25.695  0.00  0.00    +0.138 C 
ATOM     33  C   UNL     1      32.195  -6.002 -23.969  0.00  0.00    -0.000 C 
ATOM     34  C   UNL     1      32.972  -4.891 -26.407  0.00  0.00    +0.029 C 
ATOM     35  C   UNL     1      31.309  -5.192 -24.680  0.00  0.00    -0.000 C 
ATOM     36  C   UNL     1      31.698  -4.636 -25.899  0.00  0.00    +0.002 C 
ENDBRANCH  29  31
ENDBRANCH   2  29
TORSDOF 5
ENDMDL
MODEL 7
REMARK VINA RESULT:      -9.4      3.860      7.328
REMARK  Name = 54674461
REMARK  5 active torsions:
REMARK  status: ('A' for Active; 'I' for Inactive)
REMARK    1  A    between atoms: N_2  and  C_29
REMARK    2  A    between atoms: C_7  and  C_14
REMARK    3  A    between atoms: C_15  and  N_21
REMARK    4  A    between atoms: C_22  and  O_24
REMARK    5  A    between atoms: C_29  and  C_31
REMARK                            x       y       z     vdW  Elec       q    Type
REMARK                         _______ _______ _______ _____ _____    ______ ____
ROOT
ATOM      1  F   UNL     1      35.846 -20.787 -20.806  0.00  0.00    -0.207 F 
ATOM      2  N   UNL     1      32.572 -22.863 -17.088  0.00  0.00    -0.193 N 
ATOM      3  N   UNL     1      33.371 -23.503 -16.215  0.00  0.00    -0.168 NA
ATOM      4  N   UNL     1      32.708 -21.565 -19.125  0.00  0.00    -0.251 NA
ATOM      5  C   UNL     1      34.589 -22.539 -17.896  0.00  0.00    +0.133 C 
ATOM      6  C   UNL     1      33.247 -22.268 -18.113  0.00  0.00    +0.133 C 
ATOM      7  C   UNL     1      34.597 -23.302 -16.711  0.00  0.00    +0.172 C 
ATOM      8  C   UNL     1      35.517 -22.037 -18.816  0.00  0.00    +0.015 C 
ATOM      9  C   UNL     1      35.017 -21.298 -19.888  0.00  0.00    +0.139 C 
ATOM     10  C   UNL     1      33.643 -21.101 -19.987  0.00  0.00    +0.182 C 
ENDROOT
BRANCH   7  14
ATOM     11  N   UNL     1      35.537 -24.931 -15.267  0.00  0.00    -0.326 NA
ATOM     12  N   UNL     1      36.920 -23.217 -16.246  0.00  0.00    -0.326 NA
ATOM     13  N   UNL     1      36.481 -26.556 -13.826  0.00  0.00    -0.334 N 
ATOM     14  C   UNL     1      35.749 -23.847 -16.038  0.00  0.00    +0.156 C 
ATOM     15  C   UNL     1      37.893 -24.861 -14.781  0.00  0.00    +0.210 C 
ATOM     16  C   UNL     1      36.636 -25.414 -14.651  0.00  0.00    +0.193 C 
ATOM     17  C   UNL     1      37.977 -23.753 -15.599  0.00  0.00    +0.193 C 
ATOM     18  H   UNL     1      35.593 -26.968 -13.718  0.00  0.00    +0.144 HD
ATOM     19  H   UNL     1      37.261 -26.937 -13.362  0.00  0.00    +0.144 HD
ATOM     20  N   UNL     1      39.240 -23.134 -15.774  0.00  0.00    -0.334 N 
ATOM     21  H   UNL     1      39.323 -22.342 -16.353  0.00  0.00    +0.144 HD
ATOM     22  H   UNL     1      40.033 -23.496 -15.317  0.00  0.00    +0.144 HD
BRANCH  15  24
ATOM     23  O   UNL     1      40.452 -26.003 -15.865  0.00  0.00    -0.226 OA
ATOM     24  N   UNL     1      39.009 -25.386 -14.124  0.00  0.00    -0.258 N 
ATOM     25  C   UNL     1      40.176 -25.905 -14.676  0.00  0.00    +0.402 C 
ATOM     26  H   UNL     1      38.964 -25.389 -13.140  0.00  0.00    +0.154 HD
BRANCH  25  27
ATOM     27  O   UNL     1      41.011 -26.309 -13.670  0.00  0.00    -0.431 OA
ATOM     28  C   UNL     1      41.618 -27.596 -13.836  0.00  0.00    +0.257 C 
ENDBRANCH  25  27
ENDBRANCH  15  24
ENDBRANCH   7  14
BRANCH   2  29
ATOM     29  C   UNL     1      31.144 -22.862 -16.876  0.00  0.00    +0.146 C 
BRANCH  29  31
ATOM     30  F   UNL     1      31.586 -21.940 -14.232  0.00  0.00    -0.204 F 
ATOM     31  C   UNL     1      30.721 -23.636 -15.652  0.00  0.00    +0.027 C 
ATOM     32  C   UNL     1      30.970 -23.122 -14.379  0.00  0.00    +0.138 C 
ATOM     33  C   UNL     1      30.080 -24.866 -15.794  0.00  0.00    -0.000 C 
ATOM     34  C   UNL     1      30.578 -23.839 -13.249  0.00  0.00    +0.029 C 
ATOM     35  C   UNL     1      29.688 -25.584 -14.664  0.00  0.00    -0.000 C 
ATOM     36  C   UNL     1      29.938 -25.071 -13.391  0.00  0.00    +0.002 C 
ENDBRANCH  29  31
ENDBRANCH   2  29
TORSDOF 5
ENDMDL
MODEL 8
REMARK VINA RESULT:      -9.4     10.190     14.837
REMARK  Name = 54674461
REMARK  5 active torsions:
REMARK  status: ('A' for Active; 'I' for Inactive)
REMARK    1  A    between atoms: N_2  and  C_29
REMARK    2  A    between atoms: C_7  and  C_14
REMARK    3  A    between atoms: C_15  and  N_21
REMARK    4  A    between atoms: C_22  and  O_24
REMARK    5  A    between atoms: C_29  and  C_31
REMARK                            x       y       z     vdW  Elec       q    Type
REMARK                         _______ _______ _______ _____ _____    ______ ____
ROOT
ATOM      1  F   UNL     1      31.426 -11.159 -17.681  0.00  0.00    -0.207 F 
ATOM      2  N   UNL     1      31.979  -8.468 -22.297  0.00  0.00    -0.193 N 
ATOM      3  N   UNL     1      32.318  -9.388 -23.217  0.00  0.00    -0.168 NA
ATOM      4  N   UNL     1      31.456  -8.300 -19.941  0.00  0.00    -0.251 NA
ATOM      5  C   UNL     1      32.033 -10.345 -21.158  0.00  0.00    +0.133 C 
ATOM      6  C   UNL     1      31.796  -8.984 -21.048  0.00  0.00    +0.133 C 
ATOM      7  C   UNL     1      32.349 -10.529 -22.519  0.00  0.00    +0.172 C 
ATOM      8  C   UNL     1      31.912 -11.128 -20.004  0.00  0.00    +0.015 C 
ATOM      9  C   UNL     1      31.560 -10.474 -18.823  0.00  0.00    +0.139 C 
ATOM     10  C   UNL     1      31.351  -9.099 -18.852  0.00  0.00    +0.182 C 
ENDROOT
BRANCH   7  14
ATOM     11  N   UNL     1      33.051 -11.687 -24.466  0.00  0.00    -0.326 NA
ATOM     12  N   UNL     1      32.587 -12.886 -22.428  0.00  0.00    -0.326 NA
ATOM     13  N   UNL     1      33.752 -12.848 -26.407  0.00  0.00    -0.334 N 
ATOM     14  C   UNL     1      32.681 -11.769 -23.173  0.00  0.00    +0.156 C 
ATOM     15  C   UNL     1      33.297 -14.080 -24.394  0.00  0.00    +0.210 C 
ATOM     16  C   UNL     1      33.354 -12.866 -25.047  0.00  0.00    +0.193 C 
ATOM     17  C   UNL     1      32.903 -14.029 -23.072  0.00  0.00    +0.193 C 
ATOM     18  H   UNL     1      33.800 -11.994 -26.894  0.00  0.00    +0.144 HD
ATOM     19  H   UNL     1      33.982 -13.689 -26.864  0.00  0.00    +0.144 HD
ATOM     20  N   UNL     1      32.822 -15.241 -22.342  0.00  0.00    -0.334 N 
ATOM     21  H   UNL     1      32.543 -15.229 -21.398  0.00  0.00    +0.144 HD
ATOM     22  H   UNL     1      33.044 -16.095 -22.780  0.00  0.00    +0.144 HD
BRANCH  15  24
ATOM     23  O   UNL     1      35.460 -16.087 -23.829  0.00  0.00    -0.226 OA
ATOM     24  N   UNL     1      33.614 -15.283 -25.029  0.00  0.00    -0.258 N 
ATOM     25  C   UNL     1      34.632 -16.182 -24.726  0.00  0.00    +0.402 C 
ATOM     26  H   UNL     1      33.041 -15.528 -25.791  0.00  0.00    +0.154 HD
BRANCH  25  27
ATOM     27  O   UNL     1      34.583 -17.232 -25.603  0.00  0.00    -0.431 OA
ATOM     28  C   UNL     1      34.391 -18.527 -25.022  0.00  0.00    +0.257 C 
ENDBRANCH  25  27
ENDBRANCH  15  24
ENDBRANCH   7  14
BRANCH   2  29
ATOM     29  C   UNL     1      31.846  -7.084 -22.690  0.00  0.00    +0.146 C 
BRANCH  29  31
ATOM     30  F   UNL     1      31.064  -5.419 -24.845  0.00  0.00    -0.204 F 
ATOM     31  C   UNL     1      32.780  -6.688 -23.805  0.00  0.00    +0.027 C 
ATOM     32  C   UNL     1      32.328  -5.865 -24.837  0.00  0.00    +0.138 C 
ATOM     33  C   UNL     1      34.098  -7.146 -23.806  0.00  0.00    -0.000 C 
ATOM     34  C   UNL     1      33.193  -5.499 -25.868  0.00  0.00    +0.029 C 
ATOM     35  C   UNL     1      34.963  -6.780 -24.838  0.00  0.00    -0.000 C 
ATOM     36  C   UNL     1      34.511  -5.958 -25.869  0.00  0.00    +0.002 C 
ENDBRANCH  29  31
ENDBRANCH   2  29
TORSDOF 5
ENDMDL
MODEL 9
REMARK VINA RESULT:      -9.4      1.814      4.959
REMARK  Name = 54674461
REMARK  5 active torsions:
REMARK  status: ('A' for Active; 'I' for Inactive)
REMARK    1  A    between atoms: N_2  and  C_29
REMARK    2  A    between atoms: C_7  and  C_14
REMARK    3  A    between atoms: C_15  and  N_21
REMARK    4  A    between atoms: C_22  and  O_24
REMARK    5  A    between atoms: C_29  and  C_31
REMARK                            x       y       z     vdW  Elec       q    Type
REMARK                         _______ _______ _______ _____ _____    ______ ____
ROOT
ATOM      1  F   UNL     1      37.670 -23.208 -14.950  0.00  0.00    -0.207 F 
ATOM      2  N   UNL     1      32.629 -23.758 -16.722  0.00  0.00    -0.193 N 
ATOM      3  N   UNL     1      32.529 -22.951 -17.794  0.00  0.00    -0.168 NA
ATOM      4  N   UNL     1      34.244 -24.447 -15.058  0.00  0.00    -0.251 NA
ATOM      5  C   UNL     1      34.627 -22.859 -16.883  0.00  0.00    +0.133 C 
ATOM      6  C   UNL     1      33.861 -23.743 -16.138  0.00  0.00    +0.133 C 
ATOM      7  C   UNL     1      33.748 -22.407 -17.887  0.00  0.00    +0.172 C 
ATOM      8  C   UNL     1      35.955 -22.652 -16.494  0.00  0.00    +0.015 C 
ATOM      9  C   UNL     1      36.411 -23.356 -15.379  0.00  0.00    +0.139 C 
ATOM     10  C   UNL     1      35.535 -24.213 -14.721  0.00  0.00    +0.182 C 
ENDROOT
BRANCH   7  14
ATOM     11  N   UNL     1      32.983 -20.911 -19.561  0.00  0.00    -0.326 NA
ATOM     12  N   UNL     1      35.343 -21.234 -19.192  0.00  0.00    -0.326 NA
ATOM     13  N   UNL     1      32.225 -19.416 -21.235  0.00  0.00    -0.334 N 
ATOM     14  C   UNL     1      34.041 -21.465 -18.938  0.00  0.00    +0.156 C 
ATOM     15  C   UNL     1      34.587 -19.713 -20.897  0.00  0.00    +0.210 C 
ATOM     16  C   UNL     1      33.294 -20.036 -20.540  0.00  0.00    +0.193 C 
ATOM     17  C   UNL     1      35.581 -20.349 -20.182  0.00  0.00    +0.193 C 
ATOM     18  H   UNL     1      31.294 -19.631 -20.997  0.00  0.00    +0.144 HD
ATOM     19  H   UNL     1      32.414 -18.771 -21.954  0.00  0.00    +0.144 HD
ATOM     20  N   UNL     1      36.932 -20.063 -20.500  0.00  0.00    -0.334 N 
ATOM     21  H   UNL     1      37.658 -20.505 -20.003  0.00  0.00    +0.144 HD
ATOM     22  H   UNL     1      37.144 -19.423 -21.218  0.00  0.00    +0.144 HD
BRANCH  15  24
ATOM     23  O   UNL     1      34.902 -20.120 -23.858  0.00  0.00    -0.226 OA
ATOM     24  N   UNL     1      34.872 -18.803 -21.919  0.00  0.00    -0.258 N 
ATOM     25  C   UNL     1      35.008 -19.044 -23.282  0.00  0.00    +0.402 C 
ATOM     26  H   UNL     1      34.992 -17.868 -21.637  0.00  0.00    +0.154 HD
BRANCH  25  27
ATOM     27  O   UNL     1      35.287 -17.868 -23.923  0.00  0.00    -0.431 OA
ATOM     28  C   UNL     1      35.020 -16.670 -23.184  0.00  0.00    +0.257 C 
ENDBRANCH  25  27
ENDBRANCH  15  24
ENDBRANCH   7  14
BRANCH   2  29
ATOM     29  C   UNL     1      31.483 -24.530 -16.304  0.00  0.00    +0.146 C 
BRANCH  29  31
ATOM     30  F   UNL     1      31.270 -22.590 -14.249  0.00  0.00    -0.204 F 
ATOM     31  C   UNL     1      30.247 -23.694 -16.086  0.00  0.00    +0.027 C 
ATOM     32  C   UNL     1      30.211 -22.756 -15.053  0.00  0.00    +0.138 C 
ATOM     33  C   UNL     1      29.139 -23.858 -16.917  0.00  0.00    -0.000 C 
ATOM     34  C   UNL     1      29.067 -21.983 -14.853  0.00  0.00    +0.029 C 
ATOM     35  C   UNL     1      27.995 -23.085 -16.716  0.00  0.00    -0.000 C 
ATOM     36  C   UNL     1      27.959 -22.148 -15.684  0.00  0.00    +0.002 C 
ENDBRANCH  29  31
ENDBRANCH   2  29
TORSDOF 5
ENDMDL
