MODEL 1
REMARK VINA RESULT:      -6.4      0.000      0.000
REMARK  Name = 4064
REMARK  8 active torsions:
REMARK  status: ('A' for Active; 'I' for Inactive)
REMARK    1  A    between atoms: C_1  and  C_3
REMARK    2  A    between atoms: C_1  and  C_6
REMARK    3  A    between atoms: C_1  and  C_13
REMARK    4  A    between atoms: C_3  and  C_4
REMARK    5  A    between atoms: C_6  and  O_7
REMARK    6  A    between atoms: O_7  and  C_10
REMARK    7  A    between atoms: C_13  and  O_14
REMARK    8  A    between atoms: O_14  and  C_17
REMARK                            x       y       z     vdW  Elec       q    Type
REMARK                         _______ _______ _______ _____ _____    ______ ____
ROOT
ATOM      1  C   UNL     1      35.568 -23.833 -14.805  0.00  0.00    +0.081 C 
ATOM      2  C   UNL     1      36.661 -23.135 -15.639  0.00  0.00    +0.007 C 
ENDROOT
BRANCH   1   3
ATOM      3  C   UNL     1      34.155 -23.311 -15.201  0.00  0.00    +0.007 C 
BRANCH   3   4
ATOM      4  C   UNL     1      33.849 -23.303 -16.703  0.00  0.00    +0.000 C 
ATOM      5  C   UNL     1      32.364 -23.088 -16.961  0.00  0.00    +0.000 C 
ENDBRANCH   3   4
ENDBRANCH   1   3
BRANCH   1   6
ATOM      6  C   UNL     1      35.695 -25.361 -15.020  0.00  0.00    +0.213 C 
BRANCH   6   7
ATOM      7  O   UNL     1      37.010 -25.728 -15.415  0.00  0.00    -0.435 OA
BRANCH   7  10
ATOM      8  O   UNL     1      38.819 -26.986 -14.750  0.00  0.00    -0.227 OA
ATOM      9  N   UNL     1      36.892 -26.911 -13.496  0.00  0.00    -0.295 N 
ATOM     10  C   UNL     1      37.677 -26.577 -14.572  0.00  0.00    +0.398 C 
ATOM     11  H   UNL     1      35.983 -26.545 -13.417  0.00  0.00    +0.148 HD
ATOM     12  H   UNL     1      37.242 -27.516 -12.802  0.00  0.00    +0.148 HD
ENDBRANCH   7  10
ENDBRANCH   6   7
ENDBRANCH   1   6
BRANCH   1  13
ATOM     13  C   UNL     1      35.827 -23.483 -13.315  0.00  0.00    +0.213 C 
BRANCH  13  14
ATOM     14  O   UNL     1      35.333 -24.489 -12.440  0.00  0.00    -0.435 OA
BRANCH  14  17
ATOM     15  O   UNL     1      35.264 -25.026 -10.203  0.00  0.00    -0.227 OA
ATOM     16  N   UNL     1      36.876 -23.617 -11.043  0.00  0.00    -0.295 N 
ATOM     17  C   UNL     1      35.776 -24.432 -11.146  0.00  0.00    +0.398 C 
ATOM     18  H   UNL     1      37.235 -23.170 -11.843  0.00  0.00    +0.148 HD
ATOM     19  H   UNL     1      37.306 -23.479 -10.167  0.00  0.00    +0.148 HD
ENDBRANCH  14  17
ENDBRANCH  13  14
ENDBRANCH   1  13
TORSDOF 8
ENDMDL
MODEL 2
REMARK VINA RESULT:      -6.4      1.809      3.987
REMARK  Name = 4064
REMARK  8 active torsions:
REMARK  status: ('A' for Active; 'I' for Inactive)
REMARK    1  A    between atoms: C_1  and  C_3
REMARK    2  A    between atoms: C_1  and  C_6
REMARK    3  A    between atoms: C_1  and  C_13
REMARK    4  A    between atoms: C_3  and  C_4
REMARK    5  A    between atoms: C_6  and  O_7
REMARK    6  A    between atoms: O_7  and  C_10
REMARK    7  A    between atoms: C_13  and  O_14
REMARK    8  A    between atoms: O_14  and  C_17
REMARK                            x       y       z     vdW  Elec       q    Type
REMARK                         _______ _______ _______ _____ _____    ______ ____
ROOT
ATOM      1  C   UNL     1      36.341 -23.759 -14.896  0.00  0.00    +0.081 C 
ATOM      2  C   UNL     1      35.590 -25.094 -15.075  0.00  0.00    +0.007 C 
ENDROOT
BRANCH   1   3
ATOM      3  C   UNL     1      35.835 -22.701 -15.921  0.00  0.00    +0.007 C 
BRANCH   3   4
ATOM      4  C   UNL     1      36.928 -21.930 -16.671  0.00  0.00    +0.000 C 
ATOM      5  C   UNL     1      36.529 -21.678 -18.119  0.00  0.00    +0.000 C 
ENDBRANCH   3   4
ENDBRANCH   1   3
BRANCH   1   6
ATOM      6  C   UNL     1      36.141 -23.283 -13.437  0.00  0.00    +0.213 C 
BRANCH   6   7
ATOM      7  O   UNL     1      35.433 -24.241 -12.663  0.00  0.00    -0.435 OA
BRANCH   7  10
ATOM      8  O   UNL     1      35.330 -25.124 -10.539  0.00  0.00    -0.227 OA
ATOM      9  N   UNL     1      37.113 -23.835 -11.210  0.00  0.00    -0.295 N 
ATOM     10  C   UNL     1      35.904 -24.460 -11.396  0.00  0.00    +0.398 C 
ATOM     11  H   UNL     1      37.517 -23.318 -11.943  0.00  0.00    +0.148 HD
ATOM     12  H   UNL     1      37.574 -23.905 -10.343  0.00  0.00    +0.148 HD
ENDBRANCH   7  10
ENDBRANCH   6   7
ENDBRANCH   1   6
BRANCH   1  13
ATOM     13  C   UNL     1      37.844 -24.033 -15.166  0.00  0.00    +0.213 C 
BRANCH  13  14
ATOM     14  O   UNL     1      38.555 -24.314 -13.968  0.00  0.00    -0.435 OA
BRANCH  14  17
ATOM     15  O   UNL     1      40.750 -24.997 -14.101  0.00  0.00    -0.227 OA
ATOM     16  N   UNL     1      39.025 -26.517 -14.112  0.00  0.00    -0.295 N 
ATOM     17  C   UNL     1      39.551 -25.250 -14.063  0.00  0.00    +0.398 C 
ATOM     18  H   UNL     1      38.049 -26.648 -14.078  0.00  0.00    +0.148 HD
ATOM     19  H   UNL     1      39.624 -27.296 -14.182  0.00  0.00    +0.148 HD
ENDBRANCH  14  17
ENDBRANCH  13  14
ENDBRANCH   1  13
TORSDOF 8
ENDMDL
MODEL 3
REMARK VINA RESULT:      -6.4     10.086     12.010
REMARK  Name = 4064
REMARK  8 active torsions:
REMARK  status: ('A' for Active; 'I' for Inactive)
REMARK    1  A    between atoms: C_1  and  C_3
REMARK    2  A    between atoms: C_1  and  C_6
REMARK    3  A    between atoms: C_1  and  C_13
REMARK    4  A    between atoms: C_3  and  C_4
REMARK    5  A    between atoms: C_6  and  O_7
REMARK    6  A    between atoms: O_7  and  C_10
REMARK    7  A    between atoms: C_13  and  O_14
REMARK    8  A    between atoms: O_14  and  C_17
REMARK                            x       y       z     vdW  Elec       q    Type
REMARK                         _______ _______ _______ _____ _____    ______ ____
ROOT
ATOM      1  C   UNL     1      35.311 -18.601 -21.657  0.00  0.00    +0.081 C 
ATOM      2  C   UNL     1      36.494 -19.190 -20.863  0.00  0.00    +0.007 C 
ENDROOT
BRANCH   1   3
ATOM      3  C   UNL     1      34.170 -19.651 -21.805  0.00  0.00    +0.007 C 
BRANCH   3   4
ATOM      4  C   UNL     1      33.124 -19.655 -20.684  0.00  0.00    +0.000 C 
ATOM      5  C   UNL     1      33.253 -20.900 -19.816  0.00  0.00    +0.000 C 
ENDBRANCH   3   4
ENDBRANCH   1   3
BRANCH   1   6
ATOM      6  C   UNL     1      34.824 -17.326 -20.926  0.00  0.00    +0.213 C 
BRANCH   6   7
ATOM      7  O   UNL     1      34.931 -16.174 -21.751  0.00  0.00    -0.435 OA
BRANCH   7  10
ATOM      8  O   UNL     1      33.207 -15.095 -22.829  0.00  0.00    -0.227 OA
ATOM      9  N   UNL     1      33.502 -14.899 -20.557  0.00  0.00    -0.295 N 
ATOM     10  C   UNL     1      33.826 -15.366 -21.806  0.00  0.00    +0.398 C 
ATOM     11  H   UNL     1      34.045 -15.157 -19.778  0.00  0.00    +0.148 HD
ATOM     12  H   UNL     1      32.726 -14.304 -20.440  0.00  0.00    +0.148 HD
ENDBRANCH   7  10
ENDBRANCH   6   7
ENDBRANCH   1   6
BRANCH   1  13
ATOM     13  C   UNL     1      35.836 -18.236 -23.070  0.00  0.00    +0.213 C 
BRANCH  13  14
ATOM     14  O   UNL     1      34.909 -18.589 -24.088  0.00  0.00    -0.435 OA
BRANCH  14  17
ATOM     15  O   UNL     1      33.667 -17.674 -25.797  0.00  0.00    -0.227 OA
ATOM     16  N   UNL     1      35.307 -16.464 -24.735  0.00  0.00    -0.295 N 
ATOM     17  C   UNL     1      34.547 -17.586 -24.949  0.00  0.00    +0.398 C 
ATOM     18  H   UNL     1      36.000 -16.463 -24.035  0.00  0.00    +0.148 HD
ATOM     19  H   UNL     1      35.160 -15.658 -25.283  0.00  0.00    +0.148 HD
ENDBRANCH  14  17
ENDBRANCH  13  14
ENDBRANCH   1  13
TORSDOF 8
ENDMDL
MODEL 4
REMARK VINA RESULT:      -6.4      8.752     10.276
REMARK  Name = 4064
REMARK  8 active torsions:
REMARK  status: ('A' for Active; 'I' for Inactive)
REMARK    1  A    between atoms: C_1  and  C_3
REMARK    2  A    between atoms: C_1  and  C_6
REMARK    3  A    between atoms: C_1  and  C_13
REMARK    4  A    between atoms: C_3  and  C_4
REMARK    5  A    between atoms: C_6  and  O_7
REMARK    6  A    between atoms: O_7  and  C_10
REMARK    7  A    between atoms: C_13  and  O_14
REMARK    8  A    between atoms: O_14  and  C_17
REMARK                            x       y       z     vdW  Elec       q    Type
REMARK                         _______ _______ _______ _____ _____    ______ ____
ROOT
ATOM      1  C   UNL     1      34.662 -18.929 -21.513  0.00  0.00    +0.081 C 
ATOM      2  C   UNL     1      36.142 -18.896 -21.084  0.00  0.00    +0.007 C 
ENDROOT
BRANCH   1   3
ATOM      3  C   UNL     1      33.967 -17.571 -21.196  0.00  0.00    +0.007 C 
BRANCH   3   4
ATOM      4  C   UNL     1      34.907 -16.415 -20.833  0.00  0.00    +0.000 C 
ATOM      5  C   UNL     1      34.128 -15.128 -20.594  0.00  0.00    +0.000 C 
ENDBRANCH   3   4
ENDBRANCH   1   3
BRANCH   1   6
ATOM      6  C   UNL     1      34.601 -19.264 -23.023  0.00  0.00    +0.213 C 
BRANCH   6   7
ATOM      7  O   UNL     1      35.485 -18.447 -23.778  0.00  0.00    -0.435 OA
BRANCH   7  10
ATOM      8  O   UNL     1      34.134 -17.869 -25.550  0.00  0.00    -0.227 OA
ATOM      9  N   UNL     1      35.279 -16.274 -24.353  0.00  0.00    -0.295 N 
ATOM     10  C   UNL     1      34.897 -17.561 -24.642  0.00  0.00    +0.398 C 
ATOM     11  H   UNL     1      35.897 -16.098 -23.608  0.00  0.00    +0.148 HD
ATOM     12  H   UNL     1      34.934 -15.526 -24.893  0.00  0.00    +0.148 HD
ENDBRANCH   7  10
ENDBRANCH   6   7
ENDBRANCH   1   6
BRANCH   1  13
ATOM     13  C   UNL     1      33.965 -20.046 -20.691  0.00  0.00    +0.213 C 
BRANCH  13  14
ATOM     14  O   UNL     1      34.896 -20.798 -19.923  0.00  0.00    -0.435 OA
BRANCH  14  17
ATOM     15  O   UNL     1      35.034 -22.609 -18.509  0.00  0.00    -0.227 OA
ATOM     16  N   UNL     1      33.069 -22.076 -19.576  0.00  0.00    -0.295 N 
ATOM     17  C   UNL     1      34.393 -21.890 -19.268  0.00  0.00    +0.398 C 
ATOM     18  H   UNL     1      32.615 -21.460 -20.196  0.00  0.00    +0.148 HD
ATOM     19  H   UNL     1      32.571 -22.828 -19.178  0.00  0.00    +0.148 HD
ENDBRANCH  14  17
ENDBRANCH  13  14
ENDBRANCH   1  13
TORSDOF 8
ENDMDL
MODEL 5
REMARK VINA RESULT:      -6.4      9.614     11.144
REMARK  Name = 4064
REMARK  8 active torsions:
REMARK  status: ('A' for Active; 'I' for Inactive)
REMARK    1  A    between atoms: C_1  and  C_3
REMARK    2  A    between atoms: C_1  and  C_6
REMARK    3  A    between atoms: C_1  and  C_13
REMARK    4  A    between atoms: C_3  and  C_4
REMARK    5  A    between atoms: C_6  and  O_7
REMARK    6  A    between atoms: O_7  and  C_10
REMARK    7  A    between atoms: C_13  and  O_14
REMARK    8  A    between atoms: O_14  and  C_17
REMARK                            x       y       z     vdW  Elec       q    Type
REMARK                         _______ _______ _______ _____ _____    ______ ____
ROOT
ATOM      1  C   UNL     1      34.750 -19.149 -21.411  0.00  0.00    +0.081 C 
ATOM      2  C   UNL     1      33.358 -19.537 -20.871  0.00  0.00    +0.007 C 
ENDROOT
BRANCH   1   3
ATOM      3  C   UNL     1      35.859 -20.018 -20.747  0.00  0.00    +0.007 C 
BRANCH   3   4
ATOM      4  C   UNL     1      35.361 -21.143 -19.832  0.00  0.00    +0.000 C 
ATOM      5  C   UNL     1      36.415 -21.518 -18.799  0.00  0.00    +0.000 C 
ENDBRANCH   3   4
ENDBRANCH   1   3
BRANCH   1   6
ATOM      6  C   UNL     1      34.737 -19.314 -22.949  0.00  0.00    +0.213 C 
BRANCH   6   7
ATOM      7  O   UNL     1      35.582 -18.366 -23.587  0.00  0.00    -0.435 OA
BRANCH   7  10
ATOM      8  O   UNL     1      34.380 -17.952 -25.507  0.00  0.00    -0.227 OA
ATOM      9  N   UNL     1      35.156 -16.233 -24.191  0.00  0.00    -0.295 N 
ATOM     10  C   UNL     1      34.986 -17.556 -24.517  0.00  0.00    +0.398 C 
ATOM     11  H   UNL     1      35.654 -15.986 -23.379  0.00  0.00    +0.148 HD
ATOM     12  H   UNL     1      34.779 -15.531 -24.770  0.00  0.00    +0.148 HD
ENDBRANCH   7  10
ENDBRANCH   6   7
ENDBRANCH   1   6
BRANCH   1  13
ATOM     13  C   UNL     1      34.994 -17.663 -21.037  0.00  0.00    +0.213 C 
BRANCH  13  14
ATOM     14  O   UNL     1      33.840 -16.863 -21.262  0.00  0.00    -0.435 OA
BRANCH  14  17
ATOM     15  O   UNL     1      34.886 -15.062 -20.281  0.00  0.00    -0.227 OA
ATOM     16  N   UNL     1      32.728 -14.910 -21.059  0.00  0.00    -0.295 N 
ATOM     17  C   UNL     1      33.908 -15.569 -20.819  0.00  0.00    +0.398 C 
ATOM     18  H   UNL     1      31.981 -15.379 -21.496  0.00  0.00    +0.148 HD
ATOM     19  H   UNL     1      32.629 -13.967 -20.793  0.00  0.00    +0.148 HD
ENDBRANCH  14  17
ENDBRANCH  13  14
ENDBRANCH   1  13
TORSDOF 8
ENDMDL
MODEL 6
REMARK VINA RESULT:      -6.2      8.395      9.765
REMARK  Name = 4064
REMARK  8 active torsions:
REMARK  status: ('A' for Active; 'I' for Inactive)
REMARK    1  A    between atoms: C_1  and  C_3
REMARK    2  A    between atoms: C_1  and  C_6
REMARK    3  A    between atoms: C_1  and  C_13
REMARK    4  A    between atoms: C_3  and  C_4
REMARK    5  A    between atoms: C_6  and  O_7
REMARK    6  A    between atoms: O_7  and  C_10
REMARK    7  A    between atoms: C_13  and  O_14
REMARK    8  A    between atoms: O_14  and  C_17
REMARK                            x       y       z     vdW  Elec       q    Type
REMARK                         _______ _______ _______ _____ _____    ______ ____
ROOT
ATOM      1  C   UNL     1      34.742 -19.209 -21.396  0.00  0.00    +0.081 C 
ATOM      2  C   UNL     1      36.200 -19.096 -20.907  0.00  0.00    +0.007 C 
ENDROOT
BRANCH   1   3
ATOM      3  C   UNL     1      34.695 -19.496 -22.925  0.00  0.00    +0.007 C 
BRANCH   3   4
ATOM      4  C   UNL     1      35.343 -18.433 -23.820  0.00  0.00    +0.000 C 
ATOM      5  C   UNL     1      34.445 -18.084 -24.999  0.00  0.00    +0.000 C 
ENDBRANCH   3   4
ENDBRANCH   1   3
BRANCH   1   6
ATOM      6  C   UNL     1      34.043 -20.324 -20.581  0.00  0.00    +0.213 C 
BRANCH   6   7
ATOM      7  O   UNL     1      34.984 -21.199 -19.973  0.00  0.00    -0.435 OA
BRANCH   7  10
ATOM      8  O   UNL     1      35.115 -22.601 -18.152  0.00  0.00    -0.227 OA
ATOM      9  N   UNL     1      33.153 -22.350 -19.326  0.00  0.00    -0.295 N 
ATOM     10  C   UNL     1      34.478 -22.094 -19.069  0.00  0.00    +0.398 C 
ATOM     11  H   UNL     1      32.704 -21.907 -20.080  0.00  0.00    +0.148 HD
ATOM     12  H   UNL     1      32.654 -22.978 -18.754  0.00  0.00    +0.148 HD
ENDBRANCH   7  10
ENDBRANCH   6   7
ENDBRANCH   1   6
BRANCH   1  13
ATOM     13  C   UNL     1      34.056 -17.843 -21.126  0.00  0.00    +0.213 C 
BRANCH  13  14
ATOM     14  O   UNL     1      34.978 -16.869 -20.658  0.00  0.00    -0.435 OA
BRANCH  14  17
ATOM     15  O   UNL     1      34.984 -14.596 -20.292  0.00  0.00    -0.227 OA
ATOM     16  N   UNL     1      34.051 -15.497 -22.191  0.00  0.00    -0.295 N 
ATOM     17  C   UNL     1      34.699 -15.568 -20.983  0.00  0.00    +0.398 C 
ATOM     18  H   UNL     1      33.852 -16.319 -22.694  0.00  0.00    +0.148 HD
ATOM     19  H   UNL     1      33.785 -14.621 -22.555  0.00  0.00    +0.148 HD
ENDBRANCH  14  17
ENDBRANCH  13  14
ENDBRANCH   1  13
TORSDOF 8
ENDMDL
MODEL 7
REMARK VINA RESULT:      -6.2      8.430     10.071
REMARK  Name = 4064
REMARK  8 active torsions:
REMARK  status: ('A' for Active; 'I' for Inactive)
REMARK    1  A    between atoms: C_1  and  C_3
REMARK    2  A    between atoms: C_1  and  C_6
REMARK    3  A    between atoms: C_1  and  C_13
REMARK    4  A    between atoms: C_3  and  C_4
REMARK    5  A    between atoms: C_6  and  O_7
REMARK    6  A    between atoms: O_7  and  C_10
REMARK    7  A    between atoms: C_13  and  O_14
REMARK    8  A    between atoms: O_14  and  C_17
REMARK                            x       y       z     vdW  Elec       q    Type
REMARK                         _______ _______ _______ _____ _____    ______ ____
ROOT
ATOM      1  C   UNL     1      34.658 -19.278 -21.512  0.00  0.00    +0.081 C 
ATOM      2  C   UNL     1      33.278 -19.546 -20.878  0.00  0.00    +0.007 C 
ENDROOT
BRANCH   1   3
ATOM      3  C   UNL     1      34.581 -19.388 -23.064  0.00  0.00    +0.007 C 
BRANCH   3   4
ATOM      4  C   UNL     1      35.383 -18.338 -23.843  0.00  0.00    +0.000 C 
ATOM      5  C   UNL     1      34.543 -17.717 -24.952  0.00  0.00    +0.000 C 
ENDBRANCH   3   4
ENDBRANCH   1   3
BRANCH   1   6
ATOM      6  C   UNL     1      35.134 -17.876 -21.060  0.00  0.00    +0.213 C 
BRANCH   6   7
ATOM      7  O   UNL     1      34.111 -16.901 -21.206  0.00  0.00    -0.435 OA
BRANCH   7  10
ATOM      8  O   UNL     1      34.923 -14.998 -20.196  0.00  0.00    -0.227 OA
ATOM      9  N   UNL     1      34.411 -15.033 -22.438  0.00  0.00    -0.295 N 
ATOM     10  C   UNL     1      34.518 -15.593 -21.189  0.00  0.00    +0.398 C 
ATOM     11  H   UNL     1      34.077 -15.570 -23.191  0.00  0.00    +0.148 HD
ATOM     12  H   UNL     1      34.670 -14.093 -22.579  0.00  0.00    +0.148 HD
ENDBRANCH   7  10
ENDBRANCH   6   7
ENDBRANCH   1   6
BRANCH   1  13
ATOM     13  C   UNL     1      35.630 -20.366 -20.985  0.00  0.00    +0.213 C 
BRANCH  13  14
ATOM     14  O   UNL     1      35.637 -20.429 -19.565  0.00  0.00    -0.435 OA
BRANCH  14  17
ATOM     15  O   UNL     1      35.020 -22.635 -19.336  0.00  0.00    -0.227 OA
ATOM     16  N   UNL     1      36.701 -21.727 -18.056  0.00  0.00    -0.295 N 
ATOM     17  C   UNL     1      35.721 -21.681 -19.017  0.00  0.00    +0.398 C 
ATOM     18  H   UNL     1      37.227 -20.922 -17.849  0.00  0.00    +0.148 HD
ATOM     19  H   UNL     1      36.876 -22.567 -17.573  0.00  0.00    +0.148 HD
ENDBRANCH  14  17
ENDBRANCH  13  14
ENDBRANCH   1  13
TORSDOF 8
ENDMDL
MODEL 8
REMARK VINA RESULT:      -6.1     10.915     12.454
REMARK  Name = 4064
REMARK  8 active torsions:
REMARK  status: ('A' for Active; 'I' for Inactive)
REMARK    1  A    between atoms: C_1  and  C_3
REMARK    2  A    between atoms: C_1  and  C_6
REMARK    3  A    between atoms: C_1  and  C_13
REMARK    4  A    between atoms: C_3  and  C_4
REMARK    5  A    between atoms: C_6  and  O_7
REMARK    6  A    between atoms: O_7  and  C_10
REMARK    7  A    between atoms: C_13  and  O_14
REMARK    8  A    between atoms: O_14  and  C_17
REMARK                            x       y       z     vdW  Elec       q    Type
REMARK                         _______ _______ _______ _____ _____    ______ ____
ROOT
ATOM      1  C   UNL     1      33.996 -15.449 -21.663  0.00  0.00    +0.081 C 
ATOM      2  C   UNL     1      34.874 -14.766 -20.596  0.00  0.00    +0.007 C 
ENDROOT
BRANCH   1   3
ATOM      3  C   UNL     1      32.514 -14.991 -21.533  0.00  0.00    +0.007 C 
BRANCH   3   4
ATOM      4  C   UNL     1      32.297 -13.634 -20.851  0.00  0.00    +0.000 C 
ATOM      5  C   UNL     1      31.961 -12.554 -21.871  0.00  0.00    +0.000 C 
ENDBRANCH   3   4
ENDBRANCH   1   3
BRANCH   1   6
ATOM      6  C   UNL     1      34.579 -15.113 -23.057  0.00  0.00    +0.213 C 
BRANCH   6   7
ATOM      7  O   UNL     1      34.859 -16.288 -23.807  0.00  0.00    -0.435 OA
BRANCH   7  10
ATOM      8  O   UNL     1      34.741 -17.097 -25.959  0.00  0.00    -0.227 OA
ATOM      9  N   UNL     1      33.413 -15.351 -25.265  0.00  0.00    -0.295 N 
ATOM     10  C   UNL     1      34.373 -16.317 -25.087  0.00  0.00    +0.398 C 
ATOM     11  H   UNL     1      33.167 -14.759 -24.520  0.00  0.00    +0.148 HD
ATOM     12  H   UNL     1      32.971 -15.253 -26.140  0.00  0.00    +0.148 HD
ENDBRANCH   7  10
ENDBRANCH   6   7
ENDBRANCH   1   6
BRANCH   1  13
ATOM     13  C   UNL     1      34.066 -16.979 -21.411  0.00  0.00    +0.213 C 
BRANCH  13  14
ATOM     14  O   UNL     1      35.237 -17.345 -20.693  0.00  0.00    -0.435 OA
BRANCH  14  17
ATOM     15  O   UNL     1      36.067 -19.485 -20.514  0.00  0.00    -0.227 OA
ATOM     16  N   UNL     1      36.372 -18.243 -22.425  0.00  0.00    -0.295 N 
ATOM     17  C   UNL     1      35.905 -18.450 -21.151  0.00  0.00    +0.398 C 
ATOM     18  H   UNL     1      36.206 -17.385 -22.878  0.00  0.00    +0.148 HD
ATOM     19  H   UNL     1      36.875 -18.954 -22.886  0.00  0.00    +0.148 HD
ENDBRANCH  14  17
ENDBRANCH  13  14
ENDBRANCH   1  13
TORSDOF 8
ENDMDL
MODEL 9
REMARK VINA RESULT:      -6.1      1.174      3.843
REMARK  Name = 4064
REMARK  8 active torsions:
REMARK  status: ('A' for Active; 'I' for Inactive)
REMARK    1  A    between atoms: C_1  and  C_3
REMARK    2  A    between atoms: C_1  and  C_6
REMARK    3  A    between atoms: C_1  and  C_13
REMARK    4  A    between atoms: C_3  and  C_4
REMARK    5  A    between atoms: C_6  and  O_7
REMARK    6  A    between atoms: O_7  and  C_10
REMARK    7  A    between atoms: C_13  and  O_14
REMARK    8  A    between atoms: O_14  and  C_17
REMARK                            x       y       z     vdW  Elec       q    Type
REMARK                         _______ _______ _______ _____ _____    ______ ____
ROOT
ATOM      1  C   UNL     1      34.523 -24.067 -14.484  0.00  0.00    +0.081 C 
ATOM      2  C   UNL     1      33.153 -24.434 -13.878  0.00  0.00    +0.007 C 
ENDROOT
BRANCH   1   3
ATOM      3  C   UNL     1      34.357 -23.022 -15.626  0.00  0.00    +0.007 C 
BRANCH   3   4
ATOM      4  C   UNL     1      33.174 -23.257 -16.573  0.00  0.00    +0.000 C 
ATOM      5  C   UNL     1      33.545 -22.923 -18.011  0.00  0.00    +0.000 C 
ENDBRANCH   3   4
ENDBRANCH   1   3
BRANCH   1   6
ATOM      6  C   UNL     1      35.428 -23.534 -13.347  0.00  0.00    +0.213 C 
BRANCH   6   7
ATOM      7  O   UNL     1      34.832 -23.717 -12.070  0.00  0.00    -0.435 OA
BRANCH   7  10
ATOM      8  O   UNL     1      35.309 -25.215 -10.389  0.00  0.00    -0.227 OA
ATOM      9  N   UNL     1      36.844 -23.636 -11.051  0.00  0.00    -0.295 N 
ATOM     10  C   UNL     1      35.630 -24.275 -11.107  0.00  0.00    +0.398 C 
ATOM     11  H   UNL     1      37.035 -22.887 -11.659  0.00  0.00    +0.148 HD
ATOM     12  H   UNL     1      37.525 -23.930 -10.403  0.00  0.00    +0.148 HD
ENDBRANCH   7  10
ENDBRANCH   6   7
ENDBRANCH   1   6
BRANCH   1  13
ATOM     13  C   UNL     1      35.128 -25.364 -15.082  0.00  0.00    +0.213 C 
BRANCH  13  14
ATOM     14  O   UNL     1      36.314 -25.758 -14.404  0.00  0.00    -0.435 OA
BRANCH  14  17
ATOM     15  O   UNL     1      36.795 -27.269 -16.073  0.00  0.00    -0.227 OA
ATOM     16  N   UNL     1      38.321 -26.790 -14.421  0.00  0.00    -0.295 N 
ATOM     17  C   UNL     1      37.112 -26.659 -15.058  0.00  0.00    +0.398 C 
ATOM     18  H   UNL     1      38.509 -26.270 -13.607  0.00  0.00    +0.148 HD
ATOM     19  H   UNL     1      39.000 -27.408 -14.778  0.00  0.00    +0.148 HD
ENDBRANCH  14  17
ENDBRANCH  13  14
ENDBRANCH   1  13
TORSDOF 8
ENDMDL
