MODEL 1
REMARK VINA RESULT:     -10.8      0.000      0.000
REMARK  Name = 11749858
REMARK  9 active torsions:
REMARK  status: ('A' for Active; 'I' for Inactive)
REMARK    1  A    between atoms: N_2  and  C_19
REMARK    2  A    between atoms: C_3  and  C_8
REMARK    3  A    between atoms: C_6  and  C_14
REMARK    4  A    between atoms: C_14  and  N_15
REMARK    5  A    between atoms: C_19  and  C_20
REMARK    6  A    between atoms: C_20  and  O_21
REMARK    7  A    between atoms: O_21  and  C_22
REMARK    8  A    between atoms: C_25  and  C_30
REMARK    9  A    between atoms: N_29  and  O_32
REMARK                            x       y       z     vdW  Elec       q    Type
REMARK                         _______ _______ _______ _____ _____    ______ ____
ROOT
ATOM      1  O   UNL     1      32.981 -13.787 -25.149  0.00  0.00    -0.267 OA
ATOM      2  N   UNL     1      34.268 -14.118 -23.276  0.00  0.00    -0.295 N 
ATOM      3  C   UNL     1      33.558 -13.273 -24.158  0.00  0.00    +0.280 C 
ATOM      4  H   UNL     1      34.717 -13.708 -22.502  0.00  0.00    +0.150 HD
ENDROOT
BRANCH   3   8
ATOM      5  O   UNL     1      34.429 -11.077 -24.455  0.00  0.00    -0.449 OA
ATOM      6  C   UNL     1      32.707 -11.156 -23.009  0.00  0.00    -0.001 A 
ATOM      7  C   UNL     1      33.139  -9.807 -23.103  0.00  0.00    +0.032 A 
ATOM      8  C   UNL     1      33.520 -11.884 -23.846  0.00  0.00    +0.192 A 
ATOM      9  C   UNL     1      34.199  -9.811 -24.003  0.00  0.00    +0.145 A 
ATOM     10  C   UNL     1      32.752  -8.585 -22.527  0.00  0.00    +0.003 C 
ATOM     11  C   UNL     1      34.912  -8.674 -24.377  0.00  0.00    +0.037 C 
ATOM     12  C   UNL     1      33.450  -7.423 -22.884  0.00  0.00    +0.000 C 
ATOM     13  C   UNL     1      34.510  -7.469 -23.793  0.00  0.00    +0.003 C 
BRANCH   6  14
ATOM     14  C   UNL     1      31.603 -11.675 -22.177  0.00  0.00    -0.047 C 
BRANCH  14  15
ATOM     15  N   UNL     1      32.063 -11.865 -20.799  0.00  0.00    +0.387 N 
ATOM     16  C   UNL     1      32.191 -13.289 -20.497  0.00  0.00    -0.100 C 
ATOM     17  C   UNL     1      31.144 -11.223 -19.863  0.00  0.00    -0.100 C 
ATOM     18  H   UNL     1      32.981 -11.431 -20.699  0.00  0.00    -0.079 HD
ENDBRANCH  14  15
ENDBRANCH   6  14
ENDBRANCH   3   8
BRANCH   2  19
ATOM     19  C   UNL     1      34.371 -15.551 -23.444  0.00  0.00    +0.137 C 
BRANCH  19  20
ATOM     20  C   UNL     1      34.653 -16.247 -22.125  0.00  0.00    +0.227 C 
BRANCH  20  21
ATOM     21  O   UNL     1      35.580 -17.303 -22.337  0.00  0.00    -0.474 OA
BRANCH  21  22
ATOM     22  C   UNL     1      35.415 -18.432 -21.579  0.00  0.00    +0.139 C 
ATOM     23  C   UNL     1      34.136 -18.941 -21.354  0.00  0.00    +0.037 C 
ATOM     24  C   UNL     1      36.526 -19.071 -21.028  0.00  0.00    +0.037 C 
ATOM     25  C   UNL     1      35.079 -20.729 -20.030  0.00  0.00    +0.056 C 
ATOM     26  C   UNL     1      33.968 -20.090 -20.581  0.00  0.00    +0.008 C 
ATOM     27  C   UNL     1      36.358 -20.219 -20.254  0.00  0.00    +0.008 C 
BRANCH  25  30
ATOM     28  O   UNL     1      35.748 -22.244 -18.366  0.00  0.00    -0.268 OA
ATOM     29  N   UNL     1      33.772 -22.692 -19.465  0.00  0.00    -0.193 N 
ATOM     30  C   UNL     1      34.903 -21.926 -19.224  0.00  0.00    +0.268 C 
ATOM     31  H   UNL     1      33.110 -22.434 -20.146  0.00  0.00    +0.183 HD
BRANCH  29  32
ATOM     32  O   UNL     1      33.617 -23.853 -18.693  0.00  0.00    -0.295 OA
ATOM     33  H   UNL     1      32.840 -23.759 -18.120  0.00  0.00    +0.241 HD
ENDBRANCH  29  32
ENDBRANCH  25  30
ENDBRANCH  21  22
ENDBRANCH  20  21
ENDBRANCH  19  20
ENDBRANCH   2  19
TORSDOF 9
ENDMDL
MODEL 2
REMARK VINA RESULT:     -10.8      3.560     11.610
REMARK  Name = 11749858
REMARK  9 active torsions:
REMARK  status: ('A' for Active; 'I' for Inactive)
REMARK    1  A    between atoms: N_2  and  C_19
REMARK    2  A    between atoms: C_3  and  C_8
REMARK    3  A    between atoms: C_6  and  C_14
REMARK    4  A    between atoms: C_14  and  N_15
REMARK    5  A    between atoms: C_19  and  C_20
REMARK    6  A    between atoms: C_20  and  O_21
REMARK    7  A    between atoms: O_21  and  C_22
REMARK    8  A    between atoms: C_25  and  C_30
REMARK    9  A    between atoms: N_29  and  O_32
REMARK                            x       y       z     vdW  Elec       q    Type
REMARK                         _______ _______ _______ _____ _____    ______ ____
ROOT
ATOM      1  O   UNL     1      34.121 -23.554 -19.785  0.00  0.00    -0.267 OA
ATOM      2  N   UNL     1      34.906 -21.615 -18.837  0.00  0.00    -0.295 N 
ATOM      3  C   UNL     1      34.080 -22.761 -18.810  0.00  0.00    +0.280 C 
ATOM      4  H   UNL     1      34.869 -20.999 -18.071  0.00  0.00    +0.150 HD
ENDROOT
BRANCH   3   8
ATOM      5  O   UNL     1      31.955 -22.628 -17.746  0.00  0.00    -0.449 OA
ATOM      6  C   UNL     1      33.566 -23.442 -16.402  0.00  0.00    -0.001 A 
ATOM      7  C   UNL     1      32.354 -23.409 -15.664  0.00  0.00    +0.032 A 
ATOM      8  C   UNL     1      33.270 -22.959 -17.656  0.00  0.00    +0.192 A 
ATOM      9  C   UNL     1      31.395 -22.901 -16.533  0.00  0.00    +0.145 A 
ATOM     10  C   UNL     1      31.963 -23.751 -14.358  0.00  0.00    +0.003 C 
ATOM     11  C   UNL     1      30.057 -22.706 -16.195  0.00  0.00    +0.037 C 
ATOM     12  C   UNL     1      30.624 -23.566 -13.988  0.00  0.00    +0.000 C 
ATOM     13  C   UNL     1      29.690 -23.053 -14.892  0.00  0.00    +0.003 C 
BRANCH   6  14
ATOM     14  C   UNL     1      34.883 -23.903 -15.921  0.00  0.00    -0.047 C 
BRANCH  14  15
ATOM     15  N   UNL     1      35.540 -22.833 -15.165  0.00  0.00    +0.387 N 
ATOM     16  C   UNL     1      36.768 -22.416 -15.838  0.00  0.00    -0.100 C 
ATOM     17  C   UNL     1      35.827 -23.276 -13.802  0.00  0.00    -0.100 C 
ATOM     18  H   UNL     1      34.911 -22.032 -15.118  0.00  0.00    -0.079 HD
ENDBRANCH  14  15
ENDBRANCH   6  14
ENDBRANCH   3   8
BRANCH   2  19
ATOM     19  C   UNL     1      35.804 -21.296 -19.925  0.00  0.00    +0.137 C 
BRANCH  19  20
ATOM     20  C   UNL     1      35.209 -20.248 -20.849  0.00  0.00    +0.227 C 
BRANCH  20  21
ATOM     21  O   UNL     1      35.861 -19.004 -20.633  0.00  0.00    -0.474 OA
BRANCH  21  22
ATOM     22  C   UNL     1      35.436 -17.945 -21.393  0.00  0.00    +0.139 C 
ATOM     23  C   UNL     1      35.480 -18.022 -22.785  0.00  0.00    +0.037 C 
ATOM     24  C   UNL     1      34.964 -16.787 -20.773  0.00  0.00    +0.037 C 
ATOM     25  C   UNL     1      34.578 -15.786 -22.938  0.00  0.00    +0.056 C 
ATOM     26  C   UNL     1      35.051 -16.943 -23.557  0.00  0.00    +0.008 C 
ATOM     27  C   UNL     1      34.535 -15.709 -21.545  0.00  0.00    +0.008 C 
BRANCH  25  30
ATOM     28  O   UNL     1      33.584 -14.847 -24.846  0.00  0.00    -0.268 OA
ATOM     29  N   UNL     1      34.353 -13.389 -23.235  0.00  0.00    -0.193 N 
ATOM     30  C   UNL     1      34.130 -14.661 -23.743  0.00  0.00    +0.268 C 
ATOM     31  H   UNL     1      34.787 -13.252 -22.362  0.00  0.00    +0.183 HD
BRANCH  29  32
ATOM     32  O   UNL     1      33.932 -12.310 -24.024  0.00  0.00    -0.295 OA
ATOM     33  H   UNL     1      34.006 -12.546 -24.962  0.00  0.00    +0.241 HD
ENDBRANCH  29  32
ENDBRANCH  25  30
ENDBRANCH  21  22
ENDBRANCH  20  21
ENDBRANCH  19  20
ENDBRANCH   2  19
TORSDOF 9
ENDMDL
MODEL 3
REMARK VINA RESULT:     -10.4      1.393      2.977
REMARK  Name = 11749858
REMARK  9 active torsions:
REMARK  status: ('A' for Active; 'I' for Inactive)
REMARK    1  A    between atoms: N_2  and  C_19
REMARK    2  A    between atoms: C_3  and  C_8
REMARK    3  A    between atoms: C_6  and  C_14
REMARK    4  A    between atoms: C_14  and  N_15
REMARK    5  A    between atoms: C_19  and  C_20
REMARK    6  A    between atoms: C_20  and  O_21
REMARK    7  A    between atoms: O_21  and  C_22
REMARK    8  A    between atoms: C_25  and  C_30
REMARK    9  A    between atoms: N_29  and  O_32
REMARK                            x       y       z     vdW  Elec       q    Type
REMARK                         _______ _______ _______ _____ _____    ______ ____
ROOT
ATOM      1  O   UNL     1      32.847 -14.219 -24.931  0.00  0.00    -0.267 OA
ATOM      2  N   UNL     1      34.394 -14.739 -23.315  0.00  0.00    -0.295 N 
ATOM      3  C   UNL     1      33.350 -13.930 -23.816  0.00  0.00    +0.280 C 
ATOM      4  H   UNL     1      34.782 -14.507 -22.441  0.00  0.00    +0.150 HD
ENDROOT
BRANCH   3   8
ATOM      5  O   UNL     1      32.456 -13.140 -21.756  0.00  0.00    -0.449 OA
ATOM      6  C   UNL     1      32.854 -11.492 -23.235  0.00  0.00    -0.001 A 
ATOM      7  C   UNL     1      32.326 -10.904 -22.055  0.00  0.00    +0.032 A 
ATOM      8  C   UNL     1      32.912 -12.846 -23.002  0.00  0.00    +0.192 A 
ATOM      9  C   UNL     1      32.099 -11.958 -21.177  0.00  0.00    +0.145 A 
ATOM     10  C   UNL     1      32.017  -9.600 -21.634  0.00  0.00    +0.003 C 
ATOM     11  C   UNL     1      31.579 -11.807 -19.893  0.00  0.00    +0.037 C 
ATOM     12  C   UNL     1      31.492  -9.416 -20.347  0.00  0.00    +0.000 C 
ATOM     13  C   UNL     1      31.277 -10.502 -19.494  0.00  0.00    +0.003 C 
BRANCH   6  14
ATOM     14  C   UNL     1      33.259 -10.789 -24.469  0.00  0.00    -0.047 C 
BRANCH  14  15
ATOM     15  N   UNL     1      34.662 -10.380 -24.372  0.00  0.00    +0.387 N 
ATOM     16  C   UNL     1      34.756  -8.975 -23.980  0.00  0.00    -0.100 C 
ATOM     17  C   UNL     1      35.346 -10.604 -25.643  0.00  0.00    -0.100 C 
ATOM     18  H   UNL     1      35.119 -10.945 -23.656  0.00  0.00    -0.079 HD
ENDBRANCH  14  15
ENDBRANCH   6  14
ENDBRANCH   3   8
BRANCH   2  19
ATOM     19  C   UNL     1      34.924 -15.891 -24.011  0.00  0.00    +0.137 C 
BRANCH  19  20
ATOM     20  C   UNL     1      34.594 -17.182 -23.285  0.00  0.00    +0.227 C 
BRANCH  20  21
ATOM     21  O   UNL     1      35.604 -17.454 -22.323  0.00  0.00    -0.474 OA
BRANCH  21  22
ATOM     22  C   UNL     1      35.431 -18.567 -21.543  0.00  0.00    +0.139 C 
ATOM     23  C   UNL     1      34.154 -19.094 -21.351  0.00  0.00    +0.037 C 
ATOM     24  C   UNL     1      36.533 -19.173 -20.938  0.00  0.00    +0.037 C 
ATOM     25  C   UNL     1      35.080 -20.832 -19.951  0.00  0.00    +0.056 C 
ATOM     26  C   UNL     1      33.979 -20.226 -20.556  0.00  0.00    +0.008 C 
ATOM     27  C   UNL     1      36.357 -20.304 -20.143  0.00  0.00    +0.008 C 
BRANCH  25  30
ATOM     28  O   UNL     1      35.752 -22.335 -18.278  0.00  0.00    -0.268 OA
ATOM     29  N   UNL     1      33.745 -22.758 -19.328  0.00  0.00    -0.193 N 
ATOM     30  C   UNL     1      34.897 -22.012 -19.122  0.00  0.00    +0.268 C 
ATOM     31  H   UNL     1      33.074 -22.496 -19.999  0.00  0.00    +0.183 HD
BRANCH  29  32
ATOM     32  O   UNL     1      33.582 -23.903 -18.534  0.00  0.00    -0.295 OA
ATOM     33  H   UNL     1      32.638 -24.044 -18.360  0.00  0.00    +0.241 HD
ENDBRANCH  29  32
ENDBRANCH  25  30
ENDBRANCH  21  22
ENDBRANCH  20  21
ENDBRANCH  19  20
ENDBRANCH   2  19
TORSDOF 9
ENDMDL
MODEL 4
REMARK VINA RESULT:     -10.2      4.753     12.267
REMARK  Name = 11749858
REMARK  9 active torsions:
REMARK  status: ('A' for Active; 'I' for Inactive)
REMARK    1  A    between atoms: N_2  and  C_19
REMARK    2  A    between atoms: C_3  and  C_8
REMARK    3  A    between atoms: C_6  and  C_14
REMARK    4  A    between atoms: C_14  and  N_15
REMARK    5  A    between atoms: C_19  and  C_20
REMARK    6  A    between atoms: C_20  and  O_21
REMARK    7  A    between atoms: O_21  and  C_22
REMARK    8  A    between atoms: C_25  and  C_30
REMARK    9  A    between atoms: N_29  and  O_32
REMARK                            x       y       z     vdW  Elec       q    Type
REMARK                         _______ _______ _______ _____ _____    ______ ____
ROOT
ATOM      1  O   UNL     1      32.841 -23.122 -18.023  0.00  0.00    -0.267 OA
ATOM      2  N   UNL     1      34.854 -22.060 -18.324  0.00  0.00    -0.295 N 
ATOM      3  C   UNL     1      33.977 -22.857 -17.556  0.00  0.00    +0.280 C 
ATOM      4  H   UNL     1      35.743 -21.857 -17.952  0.00  0.00    +0.150 HD
ENDROOT
BRANCH   3   8
ATOM      5  O   UNL     1      35.738 -23.784 -16.249  0.00  0.00    -0.449 OA
ATOM      6  C   UNL     1      33.849 -23.447 -15.073  0.00  0.00    -0.001 A 
ATOM      7  C   UNL     1      34.819 -23.999 -14.196  0.00  0.00    +0.032 A 
ATOM      8  C   UNL     1      34.455 -23.338 -16.303  0.00  0.00    +0.192 A 
ATOM      9  C   UNL     1      35.961 -24.187 -14.965  0.00  0.00    +0.145 A 
ATOM     10  C   UNL     1      34.856 -24.359 -12.838  0.00  0.00    +0.003 C 
ATOM     11  C   UNL     1      37.155 -24.715 -14.477  0.00  0.00    +0.037 C 
ATOM     12  C   UNL     1      36.043 -24.893 -12.317  0.00  0.00    +0.000 C 
ATOM     13  C   UNL     1      37.171 -25.067 -13.124  0.00  0.00    +0.003 C 
BRANCH   6  14
ATOM     14  C   UNL     1      32.463 -23.067 -14.734  0.00  0.00    -0.047 C 
BRANCH  14  15
ATOM     15  N   UNL     1      31.540 -24.130 -15.141  0.00  0.00    +0.387 N 
ATOM     16  C   UNL     1      30.318 -23.557 -15.700  0.00  0.00    -0.100 C 
ATOM     17  C   UNL     1      31.228 -24.995 -14.005  0.00  0.00    -0.100 C 
ATOM     18  H   UNL     1      31.990 -24.695 -15.862  0.00  0.00    -0.079 HD
ENDBRANCH  14  15
ENDBRANCH   6  14
ENDBRANCH   3   8
BRANCH   2  19
ATOM     19  C   UNL     1      34.523 -21.525 -19.627  0.00  0.00    +0.137 C 
BRANCH  19  20
ATOM     20  C   UNL     1      35.750 -20.977 -20.332  0.00  0.00    +0.227 C 
BRANCH  20  21
ATOM     21  O   UNL     1      35.785 -19.564 -20.191  0.00  0.00    -0.474 OA
BRANCH  21  22
ATOM     22  C   UNL     1      35.448 -18.823 -21.293  0.00  0.00    +0.139 C 
ATOM     23  C   UNL     1      35.158 -17.465 -21.161  0.00  0.00    +0.037 C 
ATOM     24  C   UNL     1      35.391 -19.429 -22.549  0.00  0.00    +0.037 C 
ATOM     25  C   UNL     1      34.756 -17.318 -23.539  0.00  0.00    +0.056 C 
ATOM     26  C   UNL     1      34.813 -16.713 -22.283  0.00  0.00    +0.008 C 
ATOM     27  C   UNL     1      35.045 -18.677 -23.671  0.00  0.00    +0.008 C 
BRANCH  25  30
ATOM     28  O   UNL     1      34.760 -16.884 -25.846  0.00  0.00    -0.268 OA
ATOM     29  N   UNL     1      33.650 -15.383 -24.494  0.00  0.00    -0.193 N 
ATOM     30  C   UNL     1      34.396 -16.534 -24.708  0.00  0.00    +0.268 C 
ATOM     31  H   UNL     1      33.367 -15.113 -23.591  0.00  0.00    +0.183 HD
BRANCH  29  32
ATOM     32  O   UNL     1      33.319 -14.624 -25.626  0.00  0.00    -0.295 OA
ATOM     33  H   UNL     1      33.218 -15.212 -26.392  0.00  0.00    +0.241 HD
ENDBRANCH  29  32
ENDBRANCH  25  30
ENDBRANCH  21  22
ENDBRANCH  20  21
ENDBRANCH  19  20
ENDBRANCH   2  19
TORSDOF 9
ENDMDL
MODEL 5
REMARK VINA RESULT:     -10.2      1.292      1.553
REMARK  Name = 11749858
REMARK  9 active torsions:
REMARK  status: ('A' for Active; 'I' for Inactive)
REMARK    1  A    between atoms: N_2  and  C_19
REMARK    2  A    between atoms: C_3  and  C_8
REMARK    3  A    between atoms: C_6  and  C_14
REMARK    4  A    between atoms: C_14  and  N_15
REMARK    5  A    between atoms: C_19  and  C_20
REMARK    6  A    between atoms: C_20  and  O_21
REMARK    7  A    between atoms: O_21  and  C_22
REMARK    8  A    between atoms: C_25  and  C_30
REMARK    9  A    between atoms: N_29  and  O_32
REMARK                            x       y       z     vdW  Elec       q    Type
REMARK                         _______ _______ _______ _____ _____    ______ ____
ROOT
ATOM      1  O   UNL     1      32.882 -15.084 -25.957  0.00  0.00    -0.267 OA
ATOM      2  N   UNL     1      34.252 -15.576 -24.180  0.00  0.00    -0.295 N 
ATOM      3  C   UNL     1      33.536 -14.652 -24.974  0.00  0.00    +0.280 C 
ATOM      4  H   UNL     1      34.761 -15.230 -23.413  0.00  0.00    +0.150 HD
ENDROOT
BRANCH   3   8
ATOM      5  O   UNL     1      34.396 -12.455 -25.289  0.00  0.00    -0.449 OA
ATOM      6  C   UNL     1      32.927 -12.592 -23.590  0.00  0.00    -0.001 A 
ATOM      7  C   UNL     1      33.368 -11.246 -23.681  0.00  0.00    +0.032 A 
ATOM      8  C   UNL     1      33.579 -13.282 -24.586  0.00  0.00    +0.192 A 
ATOM      9  C   UNL     1      34.269 -11.214 -24.739  0.00  0.00    +0.145 A 
ATOM     10  C   UNL     1      33.105 -10.054 -22.986  0.00  0.00    +0.003 C 
ATOM     11  C   UNL     1      34.937 -10.066 -25.163  0.00  0.00    +0.037 C 
ATOM     12  C   UNL     1      33.763  -8.883 -23.388  0.00  0.00    +0.000 C 
ATOM     13  C   UNL     1      34.662  -8.891 -24.457  0.00  0.00    +0.003 C 
BRANCH   6  14
ATOM     14  C   UNL     1      31.960 -13.143 -22.620  0.00  0.00    -0.047 C 
BRANCH  14  15
ATOM     15  N   UNL     1      32.595 -13.282 -21.307  0.00  0.00    +0.387 N 
ATOM     16  C   UNL     1      32.598 -14.682 -20.889  0.00  0.00    -0.100 C 
ATOM     17  C   UNL     1      31.907 -12.454 -20.319  0.00  0.00    -0.100 C 
ATOM     18  H   UNL     1      33.562 -12.965 -21.377  0.00  0.00    -0.079 HD
ENDBRANCH  14  15
ENDBRANCH   6  14
ENDBRANCH   3   8
BRANCH   2  19
ATOM     19  C   UNL     1      34.279 -17.000 -24.430  0.00  0.00    +0.137 C 
BRANCH  19  20
ATOM     20  C   UNL     1      35.096 -17.734 -23.383  0.00  0.00    +0.227 C 
BRANCH  20  21
ATOM     21  O   UNL     1      34.420 -17.680 -22.134  0.00  0.00    -0.474 OA
BRANCH  21  22
ATOM     22  C   UNL     1      34.421 -18.825 -21.380  0.00  0.00    +0.139 C 
ATOM     23  C   UNL     1      33.216 -19.379 -20.950  0.00  0.00    +0.037 C 
ATOM     24  C   UNL     1      35.630 -19.434 -21.041  0.00  0.00    +0.037 C 
ATOM     25  C   UNL     1      34.426 -21.153 -19.842  0.00  0.00    +0.056 C 
ATOM     26  C   UNL     1      33.218 -20.543 -20.182  0.00  0.00    +0.008 C 
ATOM     27  C   UNL     1      35.632 -20.598 -20.272  0.00  0.00    +0.008 C 
BRANCH  25  30
ATOM     28  O   UNL     1      33.928 -23.419 -19.480  0.00  0.00    -0.268 OA
ATOM     29  N   UNL     1      34.993 -22.289 -17.776  0.00  0.00    -0.193 N 
ATOM     30  C   UNL     1      34.428 -22.366 -19.041  0.00  0.00    +0.268 C 
ATOM     31  H   UNL     1      35.385 -21.452 -17.437  0.00  0.00    +0.183 HD
BRANCH  29  32
ATOM     32  O   UNL     1      34.977 -23.459 -17.004  0.00  0.00    -0.295 OA
ATOM     33  H   UNL     1      35.687 -24.052 -17.300  0.00  0.00    +0.241 HD
ENDBRANCH  29  32
ENDBRANCH  25  30
ENDBRANCH  21  22
ENDBRANCH  20  21
ENDBRANCH  19  20
ENDBRANCH   2  19
TORSDOF 9
ENDMDL
MODEL 6
REMARK VINA RESULT:     -10.1      3.014      5.241
REMARK  Name = 11749858
REMARK  9 active torsions:
REMARK  status: ('A' for Active; 'I' for Inactive)
REMARK    1  A    between atoms: N_2  and  C_19
REMARK    2  A    between atoms: C_3  and  C_8
REMARK    3  A    between atoms: C_6  and  C_14
REMARK    4  A    between atoms: C_14  and  N_15
REMARK    5  A    between atoms: C_19  and  C_20
REMARK    6  A    between atoms: C_20  and  O_21
REMARK    7  A    between atoms: O_21  and  C_22
REMARK    8  A    between atoms: C_25  and  C_30
REMARK    9  A    between atoms: N_29  and  O_32
REMARK                            x       y       z     vdW  Elec       q    Type
REMARK                         _______ _______ _______ _____ _____    ______ ____
ROOT
ATOM      1  O   UNL     1      35.554 -17.245 -20.406  0.00  0.00    -0.267 OA
ATOM      2  N   UNL     1      33.751 -18.256 -21.407  0.00  0.00    -0.295 N 
ATOM      3  C   UNL     1      34.471 -17.101 -21.029  0.00  0.00    +0.280 C 
ATOM      4  H   UNL     1      32.904 -18.135 -21.894  0.00  0.00    +0.150 HD
ENDROOT
BRANCH   3   8
ATOM      5  O   UNL     1      33.174 -15.178 -20.492  0.00  0.00    -0.449 OA
ATOM      6  C   UNL     1      34.028 -15.114 -22.573  0.00  0.00    -0.001 A 
ATOM      7  C   UNL     1      33.280 -13.925 -22.370  0.00  0.00    +0.032 A 
ATOM      8  C   UNL     1      33.932 -15.838 -21.407  0.00  0.00    +0.192 A 
ATOM      9  C   UNL     1      32.776 -14.012 -21.077  0.00  0.00    +0.145 A 
ATOM     10  C   UNL     1      32.974 -12.787 -23.134  0.00  0.00    +0.003 C 
ATOM     11  C   UNL     1      31.978 -13.037 -20.480  0.00  0.00    +0.037 C 
ATOM     12  C   UNL     1      32.174 -11.788 -22.562  0.00  0.00    +0.000 C 
ATOM     13  C   UNL     1      31.686 -11.914 -21.259  0.00  0.00    +0.003 C 
BRANCH   6  14
ATOM     14  C   UNL     1      34.764 -15.499 -23.794  0.00  0.00    -0.047 C 
BRANCH  14  15
ATOM     15  N   UNL     1      33.892 -16.280 -24.676  0.00  0.00    +0.387 N 
ATOM     16  C   UNL     1      34.577 -17.490 -25.126  0.00  0.00    -0.100 C 
ATOM     17  C   UNL     1      33.472 -15.473 -25.820  0.00  0.00    -0.100 C 
ATOM     18  H   UNL     1      33.061 -16.556 -24.153  0.00  0.00    -0.079 HD
ENDBRANCH  14  15
ENDBRANCH   6  14
ENDBRANCH   3   8
BRANCH   2  19
ATOM     19  C   UNL     1      34.185 -19.605 -21.122  0.00  0.00    +0.137 C 
BRANCH  19  20
ATOM     20  C   UNL     1      33.206 -20.325 -20.212  0.00  0.00    +0.227 C 
BRANCH  20  21
ATOM     21  O   UNL     1      33.589 -21.689 -20.092  0.00  0.00    -0.474 OA
BRANCH  21  22
ATOM     22  C   UNL     1      34.285 -22.038 -18.965  0.00  0.00    +0.139 C 
ATOM     23  C   UNL     1      35.625 -21.675 -18.831  0.00  0.00    +0.037 C 
ATOM     24  C   UNL     1      33.654 -22.761 -17.952  0.00  0.00    +0.037 C 
ATOM     25  C   UNL     1      35.703 -22.755 -16.671  0.00  0.00    +0.056 C 
ATOM     26  C   UNL     1      36.333 -22.033 -17.685  0.00  0.00    +0.008 C 
ATOM     27  C   UNL     1      34.363 -23.119 -16.806  0.00  0.00    +0.008 C 
BRANCH  25  30
ATOM     28  O   UNL     1      35.920 -23.033 -14.350  0.00  0.00    -0.268 OA
ATOM     29  N   UNL     1      37.744 -23.576 -15.651  0.00  0.00    -0.193 N 
ATOM     30  C   UNL     1      36.442 -23.129 -15.476  0.00  0.00    +0.268 C 
ATOM     31  H   UNL     1      38.149 -23.648 -16.545  0.00  0.00    +0.183 HD
BRANCH  29  32
ATOM     32  O   UNL     1      38.455 -23.920 -14.492  0.00  0.00    -0.295 OA
ATOM     33  H   UNL     1      38.778 -24.832 -14.569  0.00  0.00    +0.241 HD
ENDBRANCH  29  32
ENDBRANCH  25  30
ENDBRANCH  21  22
ENDBRANCH  20  21
ENDBRANCH  19  20
ENDBRANCH   2  19
TORSDOF 9
ENDMDL
MODEL 7
REMARK VINA RESULT:     -10.1      3.599     10.702
REMARK  Name = 11749858
REMARK  9 active torsions:
REMARK  status: ('A' for Active; 'I' for Inactive)
REMARK    1  A    between atoms: N_2  and  C_19
REMARK    2  A    between atoms: C_3  and  C_8
REMARK    3  A    between atoms: C_6  and  C_14
REMARK    4  A    between atoms: C_14  and  N_15
REMARK    5  A    between atoms: C_19  and  C_20
REMARK    6  A    between atoms: C_20  and  O_21
REMARK    7  A    between atoms: O_21  and  C_22
REMARK    8  A    between atoms: C_25  and  C_30
REMARK    9  A    between atoms: N_29  and  O_32
REMARK                            x       y       z     vdW  Elec       q    Type
REMARK                         _______ _______ _______ _____ _____    ______ ____
ROOT
ATOM      1  O   UNL     1      32.656 -13.799 -26.140  0.00  0.00    -0.267 OA
ATOM      2  N   UNL     1      34.050 -12.692 -24.689  0.00  0.00    -0.295 N 
ATOM      3  C   UNL     1      33.458 -13.879 -25.176  0.00  0.00    +0.280 C 
ATOM      4  H   UNL     1      34.677 -12.763 -23.934  0.00  0.00    +0.150 HD
ENDROOT
BRANCH   3   8
ATOM      5  O   UNL     1      33.974 -16.196 -25.350  0.00  0.00    -0.449 OA
ATOM      6  C   UNL     1      34.106 -15.418 -23.243  0.00  0.00    -0.001 A 
ATOM      7  C   UNL     1      34.431 -16.800 -23.221  0.00  0.00    +0.032 A 
ATOM      8  C   UNL     1      33.837 -15.103 -24.554  0.00  0.00    +0.192 A 
ATOM      9  C   UNL     1      34.335 -17.231 -24.539  0.00  0.00    +0.145 A 
ATOM     10  C   UNL     1      34.795 -17.732 -22.234  0.00  0.00    +0.003 C 
ATOM     11  C   UNL     1      34.578 -18.540 -24.954  0.00  0.00    +0.037 C 
ATOM     12  C   UNL     1      35.046 -19.056 -22.620  0.00  0.00    +0.000 C 
ATOM     13  C   UNL     1      34.938 -19.450 -23.956  0.00  0.00    +0.003 C 
BRANCH   6  14
ATOM     14  C   UNL     1      34.064 -14.501 -22.087  0.00  0.00    -0.047 C 
BRANCH  14  15
ATOM     15  N   UNL     1      32.698 -14.416 -21.566  0.00  0.00    +0.387 N 
ATOM     16  C   UNL     1      32.262 -13.023 -21.507  0.00  0.00    -0.100 C 
ATOM     17  C   UNL     1      32.617 -15.035 -20.245  0.00  0.00    -0.100 C 
ATOM     18  H   UNL     1      32.076 -14.921 -22.197  0.00  0.00    -0.079 HD
ENDBRANCH  14  15
ENDBRANCH   6  14
ENDBRANCH   3   8
BRANCH   2  19
ATOM     19  C   UNL     1      33.788 -11.379 -25.237  0.00  0.00    +0.137 C 
BRANCH  19  20
ATOM     20  C   UNL     1      34.352 -10.283 -24.350  0.00  0.00    +0.227 C 
BRANCH  20  21
ATOM     21  O   UNL     1      33.428  -9.996 -23.309  0.00  0.00    -0.474 OA
BRANCH  21  22
ATOM     22  C   UNL     1      32.823  -8.767 -23.342  0.00  0.00    +0.139 C 
ATOM     23  C   UNL     1      33.598  -7.608 -23.400  0.00  0.00    +0.037 C 
ATOM     24  C   UNL     1      31.431  -8.674 -23.313  0.00  0.00    +0.037 C 
ATOM     25  C   UNL     1      31.590  -6.264 -23.403  0.00  0.00    +0.056 C 
ATOM     26  C   UNL     1      32.981  -6.358 -23.431  0.00  0.00    +0.008 C 
ATOM     27  C   UNL     1      30.815  -7.423 -23.343  0.00  0.00    +0.008 C 
BRANCH  25  30
ATOM     28  O   UNL     1      30.625  -4.437 -24.517  0.00  0.00    -0.268 OA
ATOM     29  N   UNL     1      30.731  -4.331 -22.217  0.00  0.00    -0.193 N 
ATOM     30  C   UNL     1      30.948  -4.960 -23.435  0.00  0.00    +0.268 C 
ATOM     31  H   UNL     1      30.991  -4.752 -21.366  0.00  0.00    +0.183 HD
BRANCH  29  32
ATOM     32  O   UNL     1      30.125  -3.067 -22.258  0.00  0.00    -0.295 OA
ATOM     33  H   UNL     1      29.969  -2.812 -23.181  0.00  0.00    +0.241 HD
ENDBRANCH  29  32
ENDBRANCH  25  30
ENDBRANCH  21  22
ENDBRANCH  20  21
ENDBRANCH  19  20
ENDBRANCH   2  19
TORSDOF 9
ENDMDL
MODEL 8
REMARK VINA RESULT:      -9.9      3.815      6.757
REMARK  Name = 11749858
REMARK  9 active torsions:
REMARK  status: ('A' for Active; 'I' for Inactive)
REMARK    1  A    between atoms: N_2  and  C_19
REMARK    2  A    between atoms: C_3  and  C_8
REMARK    3  A    between atoms: C_6  and  C_14
REMARK    4  A    between atoms: C_14  and  N_15
REMARK    5  A    between atoms: C_19  and  C_20
REMARK    6  A    between atoms: C_20  and  O_21
REMARK    7  A    between atoms: O_21  and  C_22
REMARK    8  A    between atoms: C_25  and  C_30
REMARK    9  A    between atoms: N_29  and  O_32
REMARK                            x       y       z     vdW  Elec       q    Type
REMARK                         _______ _______ _______ _____ _____    ______ ____
ROOT
ATOM      1  O   UNL     1      37.231 -18.865 -21.375  0.00  0.00    -0.267 OA
ATOM      2  N   UNL     1      35.382 -19.729 -20.321  0.00  0.00    -0.295 N 
ATOM      3  C   UNL     1      36.028 -18.703 -21.046  0.00  0.00    +0.280 C 
ATOM      4  H   UNL     1      34.441 -19.596 -20.068  0.00  0.00    +0.150 HD
ENDROOT
BRANCH   3   8
ATOM      5  O   UNL     1      34.690 -16.855 -20.367  0.00  0.00    -0.449 OA
ATOM      6  C   UNL     1      34.955 -16.981 -22.598  0.00  0.00    -0.001 A 
ATOM      7  C   UNL     1      34.145 -15.849 -22.316  0.00  0.00    +0.032 A 
ATOM      8  C   UNL     1      35.257 -17.555 -21.385  0.00  0.00    +0.192 A 
ATOM      9  C   UNL     1      34.012 -15.816 -20.932  0.00  0.00    +0.145 A 
ATOM     10  C   UNL     1      33.512 -14.852 -23.076  0.00  0.00    +0.003 C 
ATOM     11  C   UNL     1      33.284 -14.849 -20.239  0.00  0.00    +0.037 C 
ATOM     12  C   UNL     1      32.773 -13.866 -22.408  0.00  0.00    +0.000 C 
ATOM     13  C   UNL     1      32.662 -13.867 -21.015  0.00  0.00    +0.003 C 
BRANCH   6  14
ATOM     14  C   UNL     1      35.387 -17.450 -23.930  0.00  0.00    -0.047 C 
BRANCH  14  15
ATOM     15  N   UNL     1      34.269 -18.104 -24.615  0.00  0.00    +0.387 N 
ATOM     16  C   UNL     1      34.642 -19.459 -25.016  0.00  0.00    -0.100 C 
ATOM     17  C   UNL     1      33.856 -17.320 -25.777  0.00  0.00    -0.100 C 
ATOM     18  H   UNL     1      33.481 -18.165 -23.970  0.00  0.00    -0.079 HD
ENDBRANCH  14  15
ENDBRANCH   6  14
ENDBRANCH   3   8
BRANCH   2  19
ATOM     19  C   UNL     1      36.023 -20.966 -19.931  0.00  0.00    +0.137 C 
BRANCH  19  20
ATOM     20  C   UNL     1      35.009 -22.003 -19.486  0.00  0.00    +0.227 C 
BRANCH  20  21
ATOM     21  O   UNL     1      35.388 -22.521 -18.218  0.00  0.00    -0.474 OA
BRANCH  21  22
ATOM     22  C   UNL     1      34.376 -22.824 -17.346  0.00  0.00    +0.139 C 
ATOM     23  C   UNL     1      33.049 -22.786 -17.776  0.00  0.00    +0.037 C 
ATOM     24  C   UNL     1      34.671 -23.167 -16.026  0.00  0.00    +0.037 C 
ATOM     25  C   UNL     1      32.314 -23.436 -15.568  0.00  0.00    +0.056 C 
ATOM     26  C   UNL     1      32.019 -23.092 -16.888  0.00  0.00    +0.008 C 
ATOM     27  C   UNL     1      33.641 -23.472 -15.138  0.00  0.00    +0.008 C 
BRANCH  25  30
ATOM     28  O   UNL     1      30.124 -23.213 -14.752  0.00  0.00    -0.268 OA
ATOM     29  N   UNL     1      31.521 -24.668 -13.636  0.00  0.00    -0.193 N 
ATOM     30  C   UNL     1      31.239 -23.754 -14.642  0.00  0.00    +0.268 C 
ATOM     31  H   UNL     1      32.406 -25.090 -13.556  0.00  0.00    +0.183 HD
BRANCH  29  32
ATOM     32  O   UNL     1      30.483 -24.959 -12.738  0.00  0.00    -0.295 OA
ATOM     33  H   UNL     1      30.817 -24.901 -11.829  0.00  0.00    +0.241 HD
ENDBRANCH  29  32
ENDBRANCH  25  30
ENDBRANCH  21  22
ENDBRANCH  20  21
ENDBRANCH  19  20
ENDBRANCH   2  19
TORSDOF 9
ENDMDL
MODEL 9
REMARK VINA RESULT:      -9.9      3.288      5.809
REMARK  Name = 11749858
REMARK  9 active torsions:
REMARK  status: ('A' for Active; 'I' for Inactive)
REMARK    1  A    between atoms: N_2  and  C_19
REMARK    2  A    between atoms: C_3  and  C_8
REMARK    3  A    between atoms: C_6  and  C_14
REMARK    4  A    between atoms: C_14  and  N_15
REMARK    5  A    between atoms: C_19  and  C_20
REMARK    6  A    between atoms: C_20  and  O_21
REMARK    7  A    between atoms: O_21  and  C_22
REMARK    8  A    between atoms: C_25  and  C_30
REMARK    9  A    between atoms: N_29  and  O_32
REMARK                            x       y       z     vdW  Elec       q    Type
REMARK                         _______ _______ _______ _____ _____    ______ ____
ROOT
ATOM      1  O   UNL     1      32.685  -7.568 -19.689  0.00  0.00    -0.267 OA
ATOM      2  N   UNL     1      31.990  -9.366 -20.938  0.00  0.00    -0.295 N 
ATOM      3  C   UNL     1      32.387  -8.015 -20.826  0.00  0.00    +0.280 C 
ATOM      4  H   UNL     1      31.759  -9.708 -21.831  0.00  0.00    +0.150 HD
ENDROOT
BRANCH   3   8
ATOM      5  O   UNL     1      31.525  -6.270 -22.197  0.00  0.00    -0.449 OA
ATOM      6  C   UNL     1      33.309  -7.303 -23.100  0.00  0.00    -0.001 A 
ATOM      7  C   UNL     1      32.885  -6.291 -24.001  0.00  0.00    +0.032 A 
ATOM      8  C   UNL     1      32.452  -7.249 -22.025  0.00  0.00    +0.192 A 
ATOM      9  C   UNL     1      31.787  -5.686 -23.401  0.00  0.00    +0.145 A 
ATOM     10  C   UNL     1      33.309  -5.821 -25.256  0.00  0.00    +0.003 C 
ATOM     11  C   UNL     1      31.069  -4.632 -23.965  0.00  0.00    +0.037 C 
ATOM     12  C   UNL     1      32.607  -4.763 -25.849  0.00  0.00    +0.000 C 
ATOM     13  C   UNL     1      31.507  -4.181 -25.213  0.00  0.00    +0.003 C 
BRANCH   6  14
ATOM     14  C   UNL     1      34.443  -8.231 -23.281  0.00  0.00    -0.047 C 
BRANCH  14  15
ATOM     15  N   UNL     1      34.176  -9.133 -24.404  0.00  0.00    +0.387 N 
ATOM     16  C   UNL     1      33.175 -10.130 -24.029  0.00  0.00    -0.100 C 
ATOM     17  C   UNL     1      35.410  -9.783 -24.839  0.00  0.00    -0.100 C 
ATOM     18  H   UNL     1      33.808  -8.585 -25.182  0.00  0.00    -0.079 HD
ENDBRANCH  14  15
ENDBRANCH   6  14
ENDBRANCH   3   8
BRANCH   2  19
ATOM     19  C   UNL     1      31.906 -10.275 -19.817  0.00  0.00    +0.137 C 
BRANCH  19  20
ATOM     20  C   UNL     1      31.208 -11.568 -20.199  0.00  0.00    +0.227 C 
BRANCH  20  21
ATOM     21  O   UNL     1      31.641 -11.974 -21.491  0.00  0.00    -0.474 OA
BRANCH  21  22
ATOM     22  C   UNL     1      32.438 -13.087 -21.554  0.00  0.00    +0.139 C 
ATOM     23  C   UNL     1      32.672 -13.844 -20.406  0.00  0.00    +0.037 C 
ATOM     24  C   UNL     1      33.019 -13.460 -22.766  0.00  0.00    +0.037 C 
ATOM     25  C   UNL     1      34.066 -15.349 -21.682  0.00  0.00    +0.056 C 
ATOM     26  C   UNL     1      33.486 -14.975 -20.470  0.00  0.00    +0.008 C 
ATOM     27  C   UNL     1      33.833 -14.591 -22.830  0.00  0.00    +0.008 C 
BRANCH  25  30
ATOM     28  O   UNL     1      35.156 -17.196 -20.726  0.00  0.00    -0.268 OA
ATOM     29  N   UNL     1      35.444 -16.858 -22.988  0.00  0.00    -0.193 N 
ATOM     30  C   UNL     1      34.914 -16.528 -21.749  0.00  0.00    +0.268 C 
ATOM     31  H   UNL     1      35.249 -16.323 -23.791  0.00  0.00    +0.183 HD
BRANCH  29  32
ATOM     32  O   UNL     1      36.273 -17.988 -23.041  0.00  0.00    -0.295 OA
ATOM     33  H   UNL     1      35.734 -18.789 -22.952  0.00  0.00    +0.241 HD
ENDBRANCH  29  32
ENDBRANCH  25  30
ENDBRANCH  21  22
ENDBRANCH  20  21
ENDBRANCH  19  20
ENDBRANCH   2  19
TORSDOF 9
ENDMDL
