MODEL 1
REMARK VINA RESULT:      -7.6      0.000      0.000
REMARK  Name = 2312
REMARK  7 active torsions:
REMARK  status: ('A' for Active; 'I' for Inactive)
REMARK    1  A    between atoms: C_1  and  O_8
REMARK    2  A    between atoms: C_1  and  C_16
REMARK    3  A    between atoms: O_8  and  C_9
REMARK    4  A    between atoms: C_9  and  C_10
REMARK    5  A    between atoms: C_10  and  C_11
REMARK    6  A    between atoms: C_11  and  N_12
REMARK    7  A    between atoms: C_16  and  C_17
REMARK                            x       y       z     vdW  Elec       q    Type
REMARK                         _______ _______ _______ _____ _____    ______ ____
ROOT
ATOM      1  C   UNL     1      34.448 -23.518 -15.687  0.00  0.00    +0.097 C 
ATOM      2  C   UNL     1      33.359 -23.266 -16.747  0.00  0.00    +0.028 C 
ATOM      3  C   UNL     1      35.325 -22.275 -15.458  0.00  0.00    +0.028 C 
ATOM      4  C   UNL     1      33.831 -23.077 -18.187  0.00  0.00    +0.002 C 
ATOM      5  C   UNL     1      36.478 -22.040 -16.433  0.00  0.00    +0.002 C 
ATOM      6  C   UNL     1      34.820 -21.936 -18.402  0.00  0.00    +0.000 C 
ATOM      7  C   UNL     1      36.223 -22.276 -17.918  0.00  0.00    +0.000 C 
ENDROOT
BRANCH   1   8
ATOM      8  O   UNL     1      35.268 -24.620 -16.071  0.00  0.00    -0.358 OA
BRANCH   8   9
ATOM      9  C   UNL     1      35.646 -25.388 -14.943  0.00  0.00    +0.140 C 
BRANCH   9  10
ATOM     10  C   UNL     1      37.145 -25.650 -15.004  0.00  0.00    +0.009 C 
BRANCH  10  11
ATOM     11  C   UNL     1      37.602 -26.545 -13.857  0.00  0.00    -0.075 C 
BRANCH  11  12
ATOM     12  N   UNL     1      38.750 -25.952 -13.181  0.00  0.00    +0.384 N 
ATOM     13  C   UNL     1      38.353 -24.746 -12.453  0.00  0.00    -0.101 C 
ATOM     14  C   UNL     1      39.810 -25.639 -14.141  0.00  0.00    -0.101 C 
ATOM     15  H   UNL     1      39.110 -26.631 -12.510  0.00  0.00    -0.080 HD
ENDBRANCH  11  12
ENDBRANCH  10  11
ENDBRANCH   9  10
ENDBRANCH   8   9
ENDBRANCH   1   8
BRANCH   1  16
ATOM     16  C   UNL     1      33.762 -23.895 -14.364  0.00  0.00    +0.054 C 
BRANCH  16  17
ATOM     17  C   UNL     1      32.270 -23.938 -14.515  0.00  0.00    -0.020 C 
ATOM     18  C   UNL     1      31.556 -22.753 -14.645  0.00  0.00    -0.004 C 
ATOM     19  C   UNL     1      31.615 -25.165 -14.523  0.00  0.00    -0.004 C 
ATOM     20  C   UNL     1      30.169 -22.793 -14.786  0.00  0.00    -0.000 C 
ATOM     21  C   UNL     1      30.227 -25.205 -14.663  0.00  0.00    -0.000 C 
ATOM     22  C   UNL     1      29.505 -24.020 -14.795  0.00  0.00    -0.000 C 
ENDBRANCH  16  17
ENDBRANCH   1  16
TORSDOF 7
ENDMDL
MODEL 2
REMARK VINA RESULT:      -7.4      7.396     10.690
REMARK  Name = 2312
REMARK  7 active torsions:
REMARK  status: ('A' for Active; 'I' for Inactive)
REMARK    1  A    between atoms: C_1  and  O_8
REMARK    2  A    between atoms: C_1  and  C_16
REMARK    3  A    between atoms: O_8  and  C_9
REMARK    4  A    between atoms: C_9  and  C_10
REMARK    5  A    between atoms: C_10  and  C_11
REMARK    6  A    between atoms: C_11  and  N_12
REMARK    7  A    between atoms: C_16  and  C_17
REMARK                            x       y       z     vdW  Elec       q    Type
REMARK                         _______ _______ _______ _____ _____    ______ ____
ROOT
ATOM      1  C   UNL     1      35.163 -18.110 -22.397  0.00  0.00    +0.097 C 
ATOM      2  C   UNL     1      35.906 -16.879 -22.952  0.00  0.00    +0.028 C 
ATOM      3  C   UNL     1      35.117 -19.262 -23.415  0.00  0.00    +0.028 C 
ATOM      4  C   UNL     1      35.227 -16.123 -24.091  0.00  0.00    +0.002 C 
ATOM      5  C   UNL     1      34.023 -19.214 -24.480  0.00  0.00    +0.002 C 
ATOM      6  C   UNL     1      34.921 -16.955 -25.332  0.00  0.00    +0.000 C 
ATOM      7  C   UNL     1      33.722 -17.873 -25.141  0.00  0.00    +0.000 C 
ENDROOT
BRANCH   1   8
ATOM      8  O   UNL     1      33.836 -17.755 -22.013  0.00  0.00    -0.358 OA
BRANCH   8   9
ATOM      9  C   UNL     1      33.838 -16.617 -21.170  0.00  0.00    +0.140 C 
BRANCH   9  10
ATOM     10  C   UNL     1      32.562 -15.822 -21.412  0.00  0.00    +0.009 C 
BRANCH  10  11
ATOM     11  C   UNL     1      32.776 -14.333 -21.162  0.00  0.00    -0.075 C 
BRANCH  11  12
ATOM     12  N   UNL     1      32.004 -13.544 -22.115  0.00  0.00    +0.384 N 
ATOM     13  C   UNL     1      32.719 -13.432 -23.388  0.00  0.00    -0.101 C 
ATOM     14  C   UNL     1      31.720 -12.214 -21.574  0.00  0.00    -0.101 C 
ATOM     15  H   UNL     1      31.119 -14.023 -22.283  0.00  0.00    -0.080 HD
ENDBRANCH  11  12
ENDBRANCH  10  11
ENDBRANCH   9  10
ENDBRANCH   8   9
ENDBRANCH   1   8
BRANCH   1  16
ATOM     16  C   UNL     1      35.894 -18.590 -21.132  0.00  0.00    +0.054 C 
BRANCH  16  17
ATOM     17  C   UNL     1      35.243 -19.814 -20.557  0.00  0.00    -0.020 C 
ATOM     18  C   UNL     1      33.857 -19.920 -20.553  0.00  0.00    -0.004 C 
ATOM     19  C   UNL     1      36.033 -20.831 -20.033  0.00  0.00    -0.004 C 
ATOM     20  C   UNL     1      33.252 -21.057 -20.019  0.00  0.00    -0.000 C 
ATOM     21  C   UNL     1      35.428 -21.969 -19.498  0.00  0.00    -0.000 C 
ATOM     22  C   UNL     1      34.039 -22.082 -19.491  0.00  0.00    -0.000 C 
ENDBRANCH  16  17
ENDBRANCH   1  16
TORSDOF 7
ENDMDL
MODEL 3
REMARK VINA RESULT:      -7.3      7.983     11.268
REMARK  Name = 2312
REMARK  7 active torsions:
REMARK  status: ('A' for Active; 'I' for Inactive)
REMARK    1  A    between atoms: C_1  and  O_8
REMARK    2  A    between atoms: C_1  and  C_16
REMARK    3  A    between atoms: O_8  and  C_9
REMARK    4  A    between atoms: C_9  and  C_10
REMARK    5  A    between atoms: C_10  and  C_11
REMARK    6  A    between atoms: C_11  and  N_12
REMARK    7  A    between atoms: C_16  and  C_17
REMARK                            x       y       z     vdW  Elec       q    Type
REMARK                         _______ _______ _______ _____ _____    ______ ____
ROOT
ATOM      1  C   UNL     1      34.069 -17.250 -21.886  0.00  0.00    +0.097 C 
ATOM      2  C   UNL     1      32.803 -17.590 -21.076  0.00  0.00    +0.028 C 
ATOM      3  C   UNL     1      35.071 -16.420 -21.066  0.00  0.00    +0.028 C 
ATOM      4  C   UNL     1      31.876 -16.427 -20.729  0.00  0.00    +0.002 C 
ATOM      5  C   UNL     1      34.841 -14.912 -20.993  0.00  0.00    +0.002 C 
ATOM      6  C   UNL     1      32.522 -15.295 -19.937  0.00  0.00    +0.000 C 
ATOM      7  C   UNL     1      33.413 -14.411 -20.800  0.00  0.00    +0.000 C 
ENDROOT
BRANCH   1   8
ATOM      8  O   UNL     1      33.721 -16.543 -23.075  0.00  0.00    -0.358 OA
BRANCH   8   9
ATOM      9  C   UNL     1      34.541 -16.939 -24.159  0.00  0.00    +0.140 C 
BRANCH   9  10
ATOM     10  C   UNL     1      34.567 -15.820 -25.192  0.00  0.00    +0.009 C 
BRANCH  10  11
ATOM     11  C   UNL     1      33.202 -15.635 -25.847  0.00  0.00    -0.075 C 
BRANCH  11  12
ATOM     12  N   UNL     1      32.838 -14.223 -25.866  0.00  0.00    +0.384 N 
ATOM     13  C   UNL     1      33.335 -13.579 -27.083  0.00  0.00    -0.101 C 
ATOM     14  C   UNL     1      33.361 -13.540 -24.681  0.00  0.00    -0.101 C 
ATOM     15  H   UNL     1      31.820 -14.156 -25.857  0.00  0.00    -0.080 HD
ENDBRANCH  11  12
ENDBRANCH  10  11
ENDBRANCH   9  10
ENDBRANCH   8   9
ENDBRANCH   1   8
BRANCH   1  16
ATOM     16  C   UNL     1      34.741 -18.565 -22.314  0.00  0.00    +0.054 C 
BRANCH  16  17
ATOM     17  C   UNL     1      34.635 -19.607 -21.240  0.00  0.00    -0.020 C 
ATOM     18  C   UNL     1      35.788 -20.083 -20.625  0.00  0.00    -0.004 C 
ATOM     19  C   UNL     1      33.384 -20.088 -20.869  0.00  0.00    -0.004 C 
ATOM     20  C   UNL     1      35.690 -21.052 -19.628  0.00  0.00    -0.000 C 
ATOM     21  C   UNL     1      33.286 -21.058 -19.871  0.00  0.00    -0.000 C 
ATOM     22  C   UNL     1      34.438 -21.539 -19.251  0.00  0.00    -0.000 C 
ENDBRANCH  16  17
ENDBRANCH   1  16
TORSDOF 7
ENDMDL
MODEL 4
REMARK VINA RESULT:      -7.3      8.690     12.094
REMARK  Name = 2312
REMARK  7 active torsions:
REMARK  status: ('A' for Active; 'I' for Inactive)
REMARK    1  A    between atoms: C_1  and  O_8
REMARK    2  A    between atoms: C_1  and  C_16
REMARK    3  A    between atoms: O_8  and  C_9
REMARK    4  A    between atoms: C_9  and  C_10
REMARK    5  A    between atoms: C_10  and  C_11
REMARK    6  A    between atoms: C_11  and  N_12
REMARK    7  A    between atoms: C_16  and  C_17
REMARK                            x       y       z     vdW  Elec       q    Type
REMARK                         _______ _______ _______ _____ _____    ______ ____
ROOT
ATOM      1  C   UNL     1      34.356 -16.357 -22.232  0.00  0.00    +0.097 C 
ATOM      2  C   UNL     1      33.544 -16.896 -21.039  0.00  0.00    +0.028 C 
ATOM      3  C   UNL     1      35.022 -15.008 -21.912  0.00  0.00    +0.028 C 
ATOM      4  C   UNL     1      32.281 -16.125 -20.664  0.00  0.00    +0.002 C 
ATOM      5  C   UNL     1      34.167 -13.750 -22.061  0.00  0.00    +0.002 C 
ATOM      6  C   UNL     1      32.494 -14.653 -20.324  0.00  0.00    +0.000 C 
ATOM      7  C   UNL     1      32.728 -13.795 -21.559  0.00  0.00    +0.000 C 
ENDROOT
BRANCH   1   8
ATOM      8  O   UNL     1      33.520 -16.219 -23.379  0.00  0.00    -0.358 OA
BRANCH   8   9
ATOM      9  C   UNL     1      34.268 -16.365 -24.573  0.00  0.00    +0.140 C 
BRANCH   9  10
ATOM     10  C   UNL     1      33.520 -15.683 -25.710  0.00  0.00    +0.009 C 
BRANCH  10  11
ATOM     11  C   UNL     1      33.003 -14.310 -25.293  0.00  0.00    -0.075 C 
BRANCH  11  12
ATOM     12  N   UNL     1      33.725 -13.260 -26.003  0.00  0.00    +0.384 N 
ATOM     13  C   UNL     1      33.681 -12.005 -25.250  0.00  0.00    -0.101 C 
ATOM     14  C   UNL     1      33.169 -13.068 -27.343  0.00  0.00    -0.101 C 
ATOM     15  H   UNL     1      34.699 -13.549 -26.093  0.00  0.00    -0.080 HD
ENDBRANCH  11  12
ENDBRANCH  10  11
ENDBRANCH   9  10
ENDBRANCH   8   9
ENDBRANCH   1   8
BRANCH   1  16
ATOM     16  C   UNL     1      35.448 -17.381 -22.580  0.00  0.00    +0.054 C 
BRANCH  16  17
ATOM     17  C   UNL     1      35.364 -18.592 -21.697  0.00  0.00    -0.020 C 
ATOM     18  C   UNL     1      34.172 -19.303 -21.615  0.00  0.00    -0.004 C 
ATOM     19  C   UNL     1      36.479 -18.990 -20.968  0.00  0.00    -0.004 C 
ATOM     20  C   UNL     1      34.093 -20.427 -20.794  0.00  0.00    -0.000 C 
ATOM     21  C   UNL     1      36.400 -20.115 -20.146  0.00  0.00    -0.000 C 
ATOM     22  C   UNL     1      35.208 -20.833 -20.060  0.00  0.00    -0.000 C 
ENDBRANCH  16  17
ENDBRANCH   1  16
TORSDOF 7
ENDMDL
MODEL 5
REMARK VINA RESULT:      -7.2     14.309     17.110
REMARK  Name = 2312
REMARK  7 active torsions:
REMARK  status: ('A' for Active; 'I' for Inactive)
REMARK    1  A    between atoms: C_1  and  O_8
REMARK    2  A    between atoms: C_1  and  C_16
REMARK    3  A    between atoms: O_8  and  C_9
REMARK    4  A    between atoms: C_9  and  C_10
REMARK    5  A    between atoms: C_10  and  C_11
REMARK    6  A    between atoms: C_11  and  N_12
REMARK    7  A    between atoms: C_16  and  C_17
REMARK                            x       y       z     vdW  Elec       q    Type
REMARK                         _______ _______ _______ _____ _____    ______ ____
ROOT
ATOM      1  C   UNL     1      31.932  -9.351 -22.546  0.00  0.00    +0.097 C 
ATOM      2  C   UNL     1      32.179  -8.331 -21.418  0.00  0.00    +0.028 C 
ATOM      3  C   UNL     1      30.649 -10.167 -22.313  0.00  0.00    +0.028 C 
ATOM      4  C   UNL     1      32.539  -8.897 -20.047  0.00  0.00    +0.002 C 
ATOM      5  C   UNL     1      30.745 -11.376 -21.384  0.00  0.00    +0.002 C 
ATOM      6  C   UNL     1      31.516  -9.858 -19.451  0.00  0.00    +0.000 C 
ATOM      7  C   UNL     1      31.557 -11.234 -20.101  0.00  0.00    +0.000 C 
ENDROOT
BRANCH   1   8
ATOM      8  O   UNL     1      33.046 -10.233 -22.669  0.00  0.00    -0.358 OA
BRANCH   8   9
ATOM      9  C   UNL     1      33.601 -10.171 -23.971  0.00  0.00    +0.140 C 
BRANCH   9  10
ATOM     10  C   UNL     1      33.806 -11.589 -24.487  0.00  0.00    +0.009 C 
BRANCH  10  11
ATOM     11  C   UNL     1      33.391 -12.626 -23.449  0.00  0.00    -0.075 C 
BRANCH  11  12
ATOM     12  N   UNL     1      34.206 -13.828 -23.581  0.00  0.00    +0.384 N 
ATOM     13  C   UNL     1      33.590 -14.768 -24.520  0.00  0.00    -0.101 C 
ATOM     14  C   UNL     1      34.399 -14.467 -22.278  0.00  0.00    -0.101 C 
ATOM     15  H   UNL     1      35.118 -13.556 -23.948  0.00  0.00    -0.080 HD
ENDBRANCH  11  12
ENDBRANCH  10  11
ENDBRANCH   9  10
ENDBRANCH   8   9
ENDBRANCH   1   8
BRANCH   1  16
ATOM     16  C   UNL     1      31.802  -8.587 -23.874  0.00  0.00    +0.054 C 
BRANCH  16  17
ATOM     17  C   UNL     1      31.615  -7.116 -23.642  0.00  0.00    -0.020 C 
ATOM     18  C   UNL     1      30.766  -6.681 -22.631  0.00  0.00    -0.004 C 
ATOM     19  C   UNL     1      32.293  -6.202 -24.442  0.00  0.00    -0.004 C 
ATOM     20  C   UNL     1      30.592  -5.315 -22.416  0.00  0.00    -0.000 C 
ATOM     21  C   UNL     1      32.118  -4.835 -24.226  0.00  0.00    -0.000 C 
ATOM     22  C   UNL     1      31.269  -4.391 -23.214  0.00  0.00    -0.000 C 
ENDBRANCH  16  17
ENDBRANCH   1  16
TORSDOF 7
ENDMDL
MODEL 6
REMARK VINA RESULT:      -7.2      2.243      5.871
REMARK  Name = 2312
REMARK  7 active torsions:
REMARK  status: ('A' for Active; 'I' for Inactive)
REMARK    1  A    between atoms: C_1  and  O_8
REMARK    2  A    between atoms: C_1  and  C_16
REMARK    3  A    between atoms: O_8  and  C_9
REMARK    4  A    between atoms: C_9  and  C_10
REMARK    5  A    between atoms: C_10  and  C_11
REMARK    6  A    between atoms: C_11  and  N_12
REMARK    7  A    between atoms: C_16  and  C_17
REMARK                            x       y       z     vdW  Elec       q    Type
REMARK                         _______ _______ _______ _____ _____    ______ ____
ROOT
ATOM      1  C   UNL     1      35.747 -24.050 -14.241  0.00  0.00    +0.097 C 
ATOM      2  C   UNL     1      35.972 -24.953 -15.469  0.00  0.00    +0.028 C 
ATOM      3  C   UNL     1      37.070 -23.674 -13.553  0.00  0.00    +0.028 C 
ATOM      4  C   UNL     1      36.474 -26.369 -15.197  0.00  0.00    +0.002 C 
ATOM      5  C   UNL     1      37.661 -24.683 -12.569  0.00  0.00    +0.002 C 
ATOM      6  C   UNL     1      37.792 -26.456 -14.433  0.00  0.00    +0.000 C 
ATOM      7  C   UNL     1      37.629 -26.160 -12.948  0.00  0.00    +0.000 C 
ENDROOT
BRANCH   1   8
ATOM      8  O   UNL     1      34.884 -24.692 -13.305  0.00  0.00    -0.358 OA
BRANCH   8   9
ATOM      9  C   UNL     1      33.601 -24.092 -13.301  0.00  0.00    +0.140 C 
BRANCH   9  10
ATOM     10  C   UNL     1      32.580 -25.107 -13.797  0.00  0.00    +0.009 C 
BRANCH  10  11
ATOM     11  C   UNL     1      31.165 -24.542 -13.752  0.00  0.00    -0.075 C 
BRANCH  11  12
ATOM     12  N   UNL     1      30.501 -24.738 -15.036  0.00  0.00    +0.384 N 
ATOM     13  C   UNL     1      30.725 -23.587 -15.913  0.00  0.00    -0.101 C 
ATOM     14  C   UNL     1      29.066 -24.959 -14.846  0.00  0.00    -0.101 C 
ATOM     15  H   UNL     1      30.902 -25.565 -15.479  0.00  0.00    -0.080 HD
ENDBRANCH  11  12
ENDBRANCH  10  11
ENDBRANCH   9  10
ENDBRANCH   8   9
ENDBRANCH   1   8
BRANCH   1  16
ATOM     16  C   UNL     1      35.043 -22.764 -14.705  0.00  0.00    +0.054 C 
BRANCH  16  17
ATOM     17  C   UNL     1      35.283 -22.506 -16.164  0.00  0.00    -0.020 C 
ATOM     18  C   UNL     1      36.496 -21.967 -16.578  0.00  0.00    -0.004 C 
ATOM     19  C   UNL     1      34.289 -22.809 -17.088  0.00  0.00    -0.004 C 
ATOM     20  C   UNL     1      36.718 -21.727 -17.934  0.00  0.00    -0.000 C 
ATOM     21  C   UNL     1      34.512 -22.569 -18.445  0.00  0.00    -0.000 C 
ATOM     22  C   UNL     1      35.726 -22.029 -18.867  0.00  0.00    -0.000 C 
ENDBRANCH  16  17
ENDBRANCH   1  16
TORSDOF 7
ENDMDL
MODEL 7
REMARK VINA RESULT:      -7.1     10.313     13.541
REMARK  Name = 2312
REMARK  7 active torsions:
REMARK  status: ('A' for Active; 'I' for Inactive)
REMARK    1  A    between atoms: C_1  and  O_8
REMARK    2  A    between atoms: C_1  and  C_16
REMARK    3  A    between atoms: O_8  and  C_9
REMARK    4  A    between atoms: C_9  and  C_10
REMARK    5  A    between atoms: C_10  and  C_11
REMARK    6  A    between atoms: C_11  and  N_12
REMARK    7  A    between atoms: C_16  and  C_17
REMARK                            x       y       z     vdW  Elec       q    Type
REMARK                         _______ _______ _______ _____ _____    ______ ____
ROOT
ATOM      1  C   UNL     1      33.862 -14.318 -23.442  0.00  0.00    +0.097 C 
ATOM      2  C   UNL     1      34.380 -12.912 -23.801  0.00  0.00    +0.028 C 
ATOM      3  C   UNL     1      34.108 -15.328 -24.576  0.00  0.00    +0.028 C 
ATOM      4  C   UNL     1      33.637 -12.167 -24.907  0.00  0.00    +0.002 C 
ATOM      5  C   UNL     1      33.095 -15.361 -25.719  0.00  0.00    +0.002 C 
ATOM      6  C   UNL     1      33.580 -12.888 -26.250  0.00  0.00    +0.000 C 
ATOM      7  C   UNL     1      32.576 -14.033 -26.259  0.00  0.00    +0.000 C 
ENDROOT
BRANCH   1   8
ATOM      8  O   UNL     1      32.470 -14.270 -23.137  0.00  0.00    -0.358 OA
BRANCH   8   9
ATOM      9  C   UNL     1      32.254 -13.762 -21.833  0.00  0.00    +0.140 C 
BRANCH   9  10
ATOM     10  C   UNL     1      31.650 -12.368 -21.941  0.00  0.00    +0.009 C 
BRANCH  10  11
ATOM     11  C   UNL     1      31.568 -11.688 -20.579  0.00  0.00    -0.075 C 
BRANCH  11  12
ATOM     12  N   UNL     1      31.383 -10.250 -20.741  0.00  0.00    +0.384 N 
ATOM     13  C   UNL     1      31.972  -9.795 -22.002  0.00  0.00    -0.101 C 
ATOM     14  C   UNL     1      31.972  -9.524 -19.615  0.00  0.00    -0.101 C 
ATOM     15  H   UNL     1      30.382 -10.059 -20.764  0.00  0.00    -0.080 HD
ENDBRANCH  11  12
ENDBRANCH  10  11
ENDBRANCH   9  10
ENDBRANCH   8   9
ENDBRANCH   1   8
BRANCH   1  16
ATOM     16  C   UNL     1      34.593 -14.799 -22.178  0.00  0.00    +0.054 C 
BRANCH  16  17
ATOM     17  C   UNL     1      34.700 -16.296 -22.145  0.00  0.00    -0.020 C 
ATOM     18  C   UNL     1      35.590 -16.942 -22.996  0.00  0.00    -0.004 C 
ATOM     19  C   UNL     1      33.908 -17.023 -21.263  0.00  0.00    -0.004 C 
ATOM     20  C   UNL     1      35.689 -18.332 -22.966  0.00  0.00    -0.000 C 
ATOM     21  C   UNL     1      34.007 -18.414 -21.233  0.00  0.00    -0.000 C 
ATOM     22  C   UNL     1      34.897 -19.068 -22.083  0.00  0.00    -0.000 C 
ENDBRANCH  16  17
ENDBRANCH   1  16
TORSDOF 7
ENDMDL
MODEL 8
REMARK VINA RESULT:      -7.1     16.559     19.216
REMARK  Name = 2312
REMARK  7 active torsions:
REMARK  status: ('A' for Active; 'I' for Inactive)
REMARK    1  A    between atoms: C_1  and  O_8
REMARK    2  A    between atoms: C_1  and  C_16
REMARK    3  A    between atoms: O_8  and  C_9
REMARK    4  A    between atoms: C_9  and  C_10
REMARK    5  A    between atoms: C_10  and  C_11
REMARK    6  A    between atoms: C_11  and  N_12
REMARK    7  A    between atoms: C_16  and  C_17
REMARK                            x       y       z     vdW  Elec       q    Type
REMARK                         _______ _______ _______ _____ _____    ______ ____
ROOT
ATOM      1  C   UNL     1      32.139  -7.167 -23.396  0.00  0.00    +0.097 C 
ATOM      2  C   UNL     1      31.746  -8.620 -23.726  0.00  0.00    +0.028 C 
ATOM      3  C   UNL     1      33.150  -6.601 -24.407  0.00  0.00    +0.028 C 
ATOM      4  C   UNL     1      32.829  -9.681 -23.554  0.00  0.00    +0.002 C 
ATOM      5  C   UNL     1      34.624  -6.938 -24.191  0.00  0.00    +0.002 C 
ATOM      6  C   UNL     1      34.098  -9.453 -24.369  0.00  0.00    +0.000 C 
ATOM      7  C   UNL     1      34.983  -8.362 -23.782  0.00  0.00    +0.000 C 
ENDROOT
BRANCH   1   8
ATOM      8  O   UNL     1      32.683  -7.088 -22.079  0.00  0.00    -0.358 OA
BRANCH   8   9
ATOM      9  C   UNL     1      31.657  -7.128 -21.104  0.00  0.00    +0.140 C 
BRANCH   9  10
ATOM     10  C   UNL     1      32.157  -7.905 -19.894  0.00  0.00    +0.009 C 
BRANCH  10  11
ATOM     11  C   UNL     1      32.344  -9.384 -20.218  0.00  0.00    -0.075 C 
BRANCH  11  12
ATOM     12  N   UNL     1      31.159 -10.140 -19.829  0.00  0.00    +0.384 N 
ATOM     13  C   UNL     1      31.373 -10.805 -18.542  0.00  0.00    -0.101 C 
ATOM     14  C   UNL     1      30.814 -11.124 -20.856  0.00  0.00    -0.101 C 
ATOM     15  H   UNL     1      30.382  -9.487 -19.730  0.00  0.00    -0.080 HD
ENDBRANCH  11  12
ENDBRANCH  10  11
ENDBRANCH   9  10
ENDBRANCH   8   9
ENDBRANCH   1   8
BRANCH   1  16
ATOM     16  C   UNL     1      30.869  -6.300 -23.421  0.00  0.00    +0.054 C 
BRANCH  16  17
ATOM     17  C   UNL     1      31.172  -4.900 -23.868  0.00  0.00    -0.020 C 
ATOM     18  C   UNL     1      31.356  -3.899 -22.920  0.00  0.00    -0.004 C 
ATOM     19  C   UNL     1      31.265  -4.617 -25.226  0.00  0.00    -0.004 C 
ATOM     20  C   UNL     1      31.637  -2.599 -23.335  0.00  0.00    -0.000 C 
ATOM     21  C   UNL     1      31.546  -3.315 -25.641  0.00  0.00    -0.000 C 
ATOM     22  C   UNL     1      31.732  -2.307 -24.697  0.00  0.00    -0.000 C 
ENDBRANCH  16  17
ENDBRANCH   1  16
TORSDOF 7
ENDMDL
MODEL 9
REMARK VINA RESULT:      -7.0      2.239      4.902
REMARK  Name = 2312
REMARK  7 active torsions:
REMARK  status: ('A' for Active; 'I' for Inactive)
REMARK    1  A    between atoms: C_1  and  O_8
REMARK    2  A    between atoms: C_1  and  C_16
REMARK    3  A    between atoms: O_8  and  C_9
REMARK    4  A    between atoms: C_9  and  C_10
REMARK    5  A    between atoms: C_10  and  C_11
REMARK    6  A    between atoms: C_11  and  N_12
REMARK    7  A    between atoms: C_16  and  C_17
REMARK                            x       y       z     vdW  Elec       q    Type
REMARK                         _______ _______ _______ _____ _____    ______ ____
ROOT
ATOM      1  C   UNL     1      35.632 -24.375 -14.040  0.00  0.00    +0.097 C 
ATOM      2  C   UNL     1      34.925 -24.174 -12.686  0.00  0.00    +0.028 C 
ATOM      3  C   UNL     1      36.688 -25.491 -13.977  0.00  0.00    +0.028 C 
ATOM      4  C   UNL     1      35.767 -23.599 -11.549  0.00  0.00    +0.002 C 
ATOM      5  C   UNL     1      38.067 -25.123 -13.431  0.00  0.00    +0.002 C 
ATOM      6  C   UNL     1      37.013 -24.403 -11.194  0.00  0.00    +0.000 C 
ATOM      7  C   UNL     1      38.137 -24.220 -12.204  0.00  0.00    +0.000 C 
ENDROOT
BRANCH   1   8
ATOM      8  O   UNL     1      36.245 -23.158 -14.464  0.00  0.00    -0.358 OA
BRANCH   8   9
ATOM      9  C   UNL     1      36.585 -23.214 -15.838  0.00  0.00    +0.140 C 
BRANCH   9  10
ATOM     10  C   UNL     1      36.301 -21.858 -16.471  0.00  0.00    +0.009 C 
BRANCH  10  11
ATOM     11  C   UNL     1      36.852 -21.779 -17.891  0.00  0.00    -0.075 C 
BRANCH  11  12
ATOM     12  N   UNL     1      35.834 -21.267 -18.801  0.00  0.00    +0.384 N 
ATOM     13  C   UNL     1      34.689 -22.178 -18.858  0.00  0.00    -0.101 C 
ATOM     14  C   UNL     1      36.391 -21.068 -20.140  0.00  0.00    -0.101 C 
ATOM     15  H   UNL     1      35.513 -20.366 -18.445  0.00  0.00    -0.080 HD
ENDBRANCH  11  12
ENDBRANCH  10  11
ENDBRANCH   9  10
ENDBRANCH   8   9
ENDBRANCH   1   8
BRANCH   1  16
ATOM     16  C   UNL     1      34.575 -24.747 -15.092  0.00  0.00    +0.054 C 
BRANCH  16  17
ATOM     17  C   UNL     1      33.205 -24.304 -14.670  0.00  0.00    -0.020 C 
ATOM     18  C   UNL     1      32.397 -25.167 -13.938  0.00  0.00    -0.004 C 
ATOM     19  C   UNL     1      32.755 -23.035 -15.016  0.00  0.00    -0.004 C 
ATOM     20  C   UNL     1      31.124 -24.756 -13.545  0.00  0.00    -0.000 C 
ATOM     21  C   UNL     1      31.481 -22.623 -14.623  0.00  0.00    -0.000 C 
ATOM     22  C   UNL     1      30.666 -23.483 -13.889  0.00  0.00    -0.000 C 
ENDBRANCH  16  17
ENDBRANCH   1  16
TORSDOF 7
ENDMDL
