MODEL 1
REMARK VINA RESULT:      -8.8      0.000      0.000
REMARK  Name = 8966
REMARK  2 active torsions:
REMARK  status: ('A' for Active; 'I' for Inactive)
REMARK    1  A    between atoms: N_1  and  C_17
REMARK    2  A    between atoms: C_17  and  C_18
REMARK                            x       y       z     vdW  Elec       q    Type
REMARK                         _______ _______ _______ _____ _____    ______ ____
ROOT
ATOM      1  N   UNL     1      34.529 -16.763 -24.981  0.00  0.00    +0.395 N 
ATOM      2  C   UNL     1      33.325 -16.076 -25.480  0.00  0.00    -0.049 C 
ATOM      3  C   UNL     1      35.216 -16.091 -23.865  0.00  0.00    -0.049 C 
ATOM      4  C   UNL     1      33.462 -14.571 -25.617  0.00  0.00    -0.043 C 
ATOM      5  C   UNL     1      34.318 -15.478 -22.807  0.00  0.00    -0.043 C 
ATOM      6  C   UNL     1      33.530 -13.748 -24.465  0.00  0.00    -0.006 C 
ATOM      7  C   UNL     1      33.531 -14.338 -23.104  0.00  0.00    -0.006 C 
ATOM      8  C   UNL     1      33.503 -13.994 -26.896  0.00  0.00    -0.006 C 
ATOM      9  C   UNL     1      34.282 -16.044 -21.523  0.00  0.00    -0.006 C 
ATOM     10  C   UNL     1      33.630 -12.355 -24.646  0.00  0.00    -0.000 C 
ATOM     11  C   UNL     1      32.730 -13.798 -22.082  0.00  0.00    -0.000 C 
ATOM     12  C   UNL     1      33.603 -12.612 -27.047  0.00  0.00    -0.000 C 
ATOM     13  C   UNL     1      33.480 -15.489 -20.528  0.00  0.00    -0.000 C 
ATOM     14  C   UNL     1      33.665 -11.795 -25.924  0.00  0.00    -0.000 C 
ATOM     15  C   UNL     1      32.706 -14.367 -20.807  0.00  0.00    -0.000 C 
ATOM     16  H   UNL     1      35.203 -16.728 -25.745  0.00  0.00    -0.078 HD
ENDROOT
BRANCH   1  17
ATOM     17  C   UNL     1      34.217 -18.156 -24.659  0.00  0.00    -0.049 C 
BRANCH  17  18
ATOM     18  C   UNL     1      35.229 -18.747 -23.726  0.00  0.00    -0.049 C 
ATOM     19  C   UNL     1      34.916 -19.481 -22.652  0.00  0.00    -0.007 C 
ENDBRANCH  17  18
ENDBRANCH   1  17
TORSDOF 2
ENDMDL
MODEL 2
REMARK VINA RESULT:      -8.5      2.416      6.385
REMARK  Name = 8966
REMARK  2 active torsions:
REMARK  status: ('A' for Active; 'I' for Inactive)
REMARK    1  A    between atoms: N_1  and  C_17
REMARK    2  A    between atoms: C_17  and  C_18
REMARK                            x       y       z     vdW  Elec       q    Type
REMARK                         _______ _______ _______ _____ _____    ______ ____
ROOT
ATOM      1  N   UNL     1      32.989 -10.823 -22.940  0.00  0.00    +0.395 N 
ATOM      2  C   UNL     1      31.950 -11.795 -22.561  0.00  0.00    -0.049 C 
ATOM      3  C   UNL     1      34.088 -11.367 -23.756  0.00  0.00    -0.049 C 
ATOM      4  C   UNL     1      32.474 -13.147 -22.118  0.00  0.00    -0.043 C 
ATOM      5  C   UNL     1      33.686 -12.358 -24.832  0.00  0.00    -0.043 C 
ATOM      6  C   UNL     1      33.051 -14.037 -23.059  0.00  0.00    -0.006 C 
ATOM      7  C   UNL     1      33.211 -13.646 -24.481  0.00  0.00    -0.006 C 
ATOM      8  C   UNL     1      32.370 -13.522 -20.769  0.00  0.00    -0.006 C 
ATOM      9  C   UNL     1      33.800 -11.994 -26.182  0.00  0.00    -0.006 C 
ATOM     10  C   UNL     1      33.499 -15.292 -22.602  0.00  0.00    -0.000 C 
ATOM     11  C   UNL     1      32.869 -14.534 -25.517  0.00  0.00    -0.000 C 
ATOM     12  C   UNL     1      32.821 -14.770 -20.344  0.00  0.00    -0.000 C 
ATOM     13  C   UNL     1      33.455 -12.892 -27.189  0.00  0.00    -0.000 C 
ATOM     14  C   UNL     1      33.384 -15.653 -21.259  0.00  0.00    -0.000 C 
ATOM     15  C   UNL     1      32.991 -14.161 -26.856  0.00  0.00    -0.000 C 
ATOM     16  H   UNL     1      33.441 -10.547 -22.069  0.00  0.00    -0.078 HD
ENDROOT
BRANCH   1  17
ATOM     17  C   UNL     1      32.379  -9.653 -23.573  0.00  0.00    -0.049 C 
BRANCH  17  18
ATOM     18  C   UNL     1      32.877  -8.376 -22.969  0.00  0.00    -0.049 C 
ATOM     19  C   UNL     1      34.038  -7.798 -23.296  0.00  0.00    -0.007 C 
ENDBRANCH  17  18
ENDBRANCH   1  17
TORSDOF 2
ENDMDL
MODEL 3
REMARK VINA RESULT:      -8.5      5.150      7.563
REMARK  Name = 8966
REMARK  2 active torsions:
REMARK  status: ('A' for Active; 'I' for Inactive)
REMARK    1  A    between atoms: N_1  and  C_17
REMARK    2  A    between atoms: C_17  and  C_18
REMARK                            x       y       z     vdW  Elec       q    Type
REMARK                         _______ _______ _______ _____ _____    ______ ____
ROOT
ATOM      1  N   UNL     1      31.541  -9.490 -21.112  0.00  0.00    +0.395 N 
ATOM      2  C   UNL     1      32.334  -8.276 -20.855  0.00  0.00    -0.049 C 
ATOM      3  C   UNL     1      31.489  -9.918 -22.520  0.00  0.00    -0.049 C 
ATOM      4  C   UNL     1      32.135  -7.160 -21.863  0.00  0.00    -0.043 C 
ATOM      5  C   UNL     1      32.787  -9.801 -23.296  0.00  0.00    -0.043 C 
ATOM      6  C   UNL     1      32.638  -7.286 -23.183  0.00  0.00    -0.006 C 
ATOM      7  C   UNL     1      33.315  -8.528 -23.626  0.00  0.00    -0.006 C 
ATOM      8  C   UNL     1      31.462  -5.991 -21.476  0.00  0.00    -0.006 C 
ATOM      9  C   UNL     1      33.459 -10.967 -23.696  0.00  0.00    -0.006 C 
ATOM     10  C   UNL     1      32.451  -6.211 -24.072  0.00  0.00    -0.000 C 
ATOM     11  C   UNL     1      34.512  -8.475 -24.363  0.00  0.00    -0.000 C 
ATOM     12  C   UNL     1      31.289  -4.942 -22.377  0.00  0.00    -0.000 C 
ATOM     13  C   UNL     1      34.642 -10.887 -24.425  0.00  0.00    -0.000 C 
ATOM     14  C   UNL     1      31.784  -5.051 -23.672  0.00  0.00    -0.000 C 
ATOM     15  C   UNL     1      35.168  -9.643 -24.759  0.00  0.00    -0.000 C 
ATOM     16  H   UNL     1      30.577  -9.241 -20.893  0.00  0.00    -0.078 HD
ENDROOT
BRANCH   1  17
ATOM     17  C   UNL     1      31.983 -10.576 -20.235  0.00  0.00    -0.049 C 
BRANCH  17  18
ATOM     18  C   UNL     1      31.449 -11.900 -20.687  0.00  0.00    -0.049 C 
ATOM     19  C   UNL     1      32.178 -13.021 -20.739  0.00  0.00    -0.007 C 
ENDBRANCH  17  18
ENDBRANCH   1  17
TORSDOF 2
ENDMDL
MODEL 4
REMARK VINA RESULT:      -8.4     10.978     13.146
REMARK  Name = 8966
REMARK  2 active torsions:
REMARK  status: ('A' for Active; 'I' for Inactive)
REMARK    1  A    between atoms: N_1  and  C_17
REMARK    2  A    between atoms: C_17  and  C_18
REMARK                            x       y       z     vdW  Elec       q    Type
REMARK                         _______ _______ _______ _____ _____    ______ ____
ROOT
ATOM      1  N   UNL     1      35.097 -25.033 -13.153  0.00  0.00    +0.395 N 
ATOM      2  C   UNL     1      34.219 -23.851 -13.127  0.00  0.00    -0.049 C 
ATOM      3  C   UNL     1      35.731 -25.314 -14.452  0.00  0.00    -0.049 C 
ATOM      4  C   UNL     1      33.312 -23.704 -14.334  0.00  0.00    -0.043 C 
ATOM      5  C   UNL     1      36.229 -24.105 -15.221  0.00  0.00    -0.043 C 
ATOM      6  C   UNL     1      33.849 -23.355 -15.598  0.00  0.00    -0.006 C 
ATOM      7  C   UNL     1      35.311 -23.184 -15.785  0.00  0.00    -0.006 C 
ATOM      8  C   UNL     1      31.930 -23.901 -14.188  0.00  0.00    -0.006 C 
ATOM      9  C   UNL     1      37.609 -23.909 -15.380  0.00  0.00    -0.006 C 
ATOM     10  C   UNL     1      32.962 -23.205 -16.681  0.00  0.00    -0.000 C 
ATOM     11  C   UNL     1      35.824 -22.089 -16.504  0.00  0.00    -0.000 C 
ATOM     12  C   UNL     1      31.073 -23.747 -15.277  0.00  0.00    -0.000 C 
ATOM     13  C   UNL     1      38.091 -22.817 -16.098  0.00  0.00    -0.000 C 
ATOM     14  C   UNL     1      31.589 -23.399 -16.520  0.00  0.00    -0.000 C 
ATOM     15  C   UNL     1      37.199 -21.909 -16.660  0.00  0.00    -0.000 C 
ATOM     16  H   UNL     1      34.485 -25.834 -12.997  0.00  0.00    -0.078 HD
ENDROOT
BRANCH   1  17
ATOM     17  C   UNL     1      36.087 -24.950 -12.078  0.00  0.00    -0.049 C 
BRANCH  17  18
ATOM     18  C   UNL     1      36.346 -23.530 -11.677  0.00  0.00    -0.049 C 
ATOM     19  C   UNL     1      37.523 -22.913 -11.832  0.00  0.00    -0.007 C 
ENDBRANCH  17  18
ENDBRANCH   1  17
TORSDOF 2
ENDMDL
MODEL 5
REMARK VINA RESULT:      -8.4      1.947      5.778
REMARK  Name = 8966
REMARK  2 active torsions:
REMARK  status: ('A' for Active; 'I' for Inactive)
REMARK    1  A    between atoms: N_1  and  C_17
REMARK    2  A    between atoms: C_17  and  C_18
REMARK                            x       y       z     vdW  Elec       q    Type
REMARK                         _______ _______ _______ _____ _____    ______ ____
ROOT
ATOM      1  N   UNL     1      32.826 -12.620 -22.224  0.00  0.00    +0.395 N 
ATOM      2  C   UNL     1      32.299 -13.984 -22.050  0.00  0.00    -0.049 C 
ATOM      3  C   UNL     1      33.834 -12.468 -23.286  0.00  0.00    -0.049 C 
ATOM      4  C   UNL     1      33.343 -15.083 -22.111  0.00  0.00    -0.043 C 
ATOM      5  C   UNL     1      33.570 -13.242 -24.564  0.00  0.00    -0.043 C 
ATOM      6  C   UNL     1      33.967 -15.413 -23.341  0.00  0.00    -0.006 C 
ATOM      7  C   UNL     1      33.660 -14.657 -24.579  0.00  0.00    -0.006 C 
ATOM      8  C   UNL     1      33.678 -15.785 -20.943  0.00  0.00    -0.006 C 
ATOM      9  C   UNL     1      33.247 -12.545 -25.738  0.00  0.00    -0.006 C 
ATOM     10  C   UNL     1      34.910 -16.458 -23.350  0.00  0.00    -0.000 C 
ATOM     11  C   UNL     1      33.424 -15.325 -25.795  0.00  0.00    -0.000 C 
ATOM     12  C   UNL     1      34.615 -16.816 -20.980  0.00  0.00    -0.000 C 
ATOM     13  C   UNL     1      33.019 -13.231 -26.929  0.00  0.00    -0.000 C 
ATOM     14  C   UNL     1      35.229 -17.152 -22.182  0.00  0.00    -0.000 C 
ATOM     15  C   UNL     1      33.108 -14.619 -26.957  0.00  0.00    -0.000 C 
ATOM     16  H   UNL     1      33.337 -12.410 -21.366  0.00  0.00    -0.078 HD
ENDROOT
BRANCH   1  17
ATOM     17  C   UNL     1      31.724 -11.671 -22.388  0.00  0.00    -0.049 C 
BRANCH  17  18
ATOM     18  C   UNL     1      30.954 -11.494 -21.116  0.00  0.00    -0.049 C 
ATOM     19  C   UNL     1      31.486 -11.031 -19.979  0.00  0.00    -0.007 C 
ENDBRANCH  17  18
ENDBRANCH   1  17
TORSDOF 2
ENDMDL
MODEL 6
REMARK VINA RESULT:      -8.3      2.151      4.648
REMARK  Name = 8966
REMARK  2 active torsions:
REMARK  status: ('A' for Active; 'I' for Inactive)
REMARK    1  A    between atoms: N_1  and  C_17
REMARK    2  A    between atoms: C_17  and  C_18
REMARK                            x       y       z     vdW  Elec       q    Type
REMARK                         _______ _______ _______ _____ _____    ______ ____
ROOT
ATOM      1  N   UNL     1      32.244 -11.504 -22.830  0.00  0.00    +0.395 N 
ATOM      2  C   UNL     1      33.450 -11.568 -23.672  0.00  0.00    -0.049 C 
ATOM      3  C   UNL     1      31.701 -12.809 -22.415  0.00  0.00    -0.049 C 
ATOM      4  C   UNL     1      33.415 -12.628 -24.757  0.00  0.00    -0.043 C 
ATOM      5  C   UNL     1      32.724 -13.858 -22.025  0.00  0.00    -0.043 C 
ATOM      6  C   UNL     1      33.502 -14.002 -24.421  0.00  0.00    -0.006 C 
ATOM      7  C   UNL     1      33.568 -14.439 -23.005  0.00  0.00    -0.006 C 
ATOM      8  C   UNL     1      33.313 -12.238 -26.102  0.00  0.00    -0.006 C 
ATOM      9  C   UNL     1      32.823 -14.260 -20.684  0.00  0.00    -0.006 C 
ATOM     10  C   UNL     1      33.492 -14.946 -25.466  0.00  0.00    -0.000 C 
ATOM     11  C   UNL     1      34.487 -15.421 -22.594  0.00  0.00    -0.000 C 
ATOM     12  C   UNL     1      33.305 -13.193 -27.117  0.00  0.00    -0.000 C 
ATOM     13  C   UNL     1      33.742 -15.235 -20.304  0.00  0.00    -0.000 C 
ATOM     14  C   UNL     1      33.395 -14.544 -26.799  0.00  0.00    -0.000 C 
ATOM     15  C   UNL     1      34.572 -15.816 -21.258  0.00  0.00    -0.000 C 
ATOM     16  H   UNL     1      31.514 -11.109 -23.423  0.00  0.00    -0.078 HD
ENDROOT
BRANCH   1  17
ATOM     17  C   UNL     1      32.477 -10.628 -21.681  0.00  0.00    -0.049 C 
BRANCH  17  18
ATOM     18  C   UNL     1      31.396 -10.768 -20.654  0.00  0.00    -0.049 C 
ATOM     19  C   UNL     1      31.615 -10.769 -19.334  0.00  0.00    -0.007 C 
ENDBRANCH  17  18
ENDBRANCH   1  17
TORSDOF 2
ENDMDL
MODEL 7
REMARK VINA RESULT:      -8.2      2.832      5.457
REMARK  Name = 8966
REMARK  2 active torsions:
REMARK  status: ('A' for Active; 'I' for Inactive)
REMARK    1  A    between atoms: N_1  and  C_17
REMARK    2  A    between atoms: C_17  and  C_18
REMARK                            x       y       z     vdW  Elec       q    Type
REMARK                         _______ _______ _______ _____ _____    ______ ____
ROOT
ATOM      1  N   UNL     1      32.747 -10.164 -23.614  0.00  0.00    +0.395 N 
ATOM      2  C   UNL     1      33.927 -10.868 -24.144  0.00  0.00    -0.049 C 
ATOM      3  C   UNL     1      31.682 -11.035 -23.089  0.00  0.00    -0.049 C 
ATOM      4  C   UNL     1      33.614 -12.089 -24.990  0.00  0.00    -0.043 C 
ATOM      5  C   UNL     1      32.144 -12.240 -22.293  0.00  0.00    -0.043 C 
ATOM      6  C   UNL     1      33.103 -13.267 -24.388  0.00  0.00    -0.006 C 
ATOM      7  C   UNL     1      32.807 -13.315 -22.936  0.00  0.00    -0.006 C 
ATOM      8  C   UNL     1      33.849 -12.051 -26.373  0.00  0.00    -0.006 C 
ATOM      9  C   UNL     1      31.901 -12.289 -20.911  0.00  0.00    -0.006 C 
ATOM     10  C   UNL     1      32.854 -14.381 -25.213  0.00  0.00    -0.000 C 
ATOM     11  C   UNL     1      33.199 -14.418 -22.156  0.00  0.00    -0.000 C 
ATOM     12  C   UNL     1      33.593 -13.168 -27.166  0.00  0.00    -0.000 C 
ATOM     13  C   UNL     1      32.299 -13.394 -20.162  0.00  0.00    -0.000 C 
ATOM     14  C   UNL     1      33.098 -14.330 -26.586  0.00  0.00    -0.000 C 
ATOM     15  C   UNL     1      32.946 -14.457 -20.783  0.00  0.00    -0.000 C 
ATOM     16  H   UNL     1      32.317  -9.703 -24.415  0.00  0.00    -0.078 HD
ENDROOT
BRANCH   1  17
ATOM     17  C   UNL     1      33.158  -9.163 -22.629  0.00  0.00    -0.049 C 
BRANCH  17  18
ATOM     18  C   UNL     1      33.534  -7.869 -23.282  0.00  0.00    -0.049 C 
ATOM     19  C   UNL     1      34.796  -7.490 -23.520  0.00  0.00    -0.007 C 
ENDBRANCH  17  18
ENDBRANCH   1  17
TORSDOF 2
ENDMDL
MODEL 8
REMARK VINA RESULT:      -8.0      1.576      4.470
REMARK  Name = 8966
REMARK  2 active torsions:
REMARK  status: ('A' for Active; 'I' for Inactive)
REMARK    1  A    between atoms: N_1  and  C_17
REMARK    2  A    between atoms: C_17  and  C_18
REMARK                            x       y       z     vdW  Elec       q    Type
REMARK                         _______ _______ _______ _____ _____    ______ ____
ROOT
ATOM      1  N   UNL     1      33.228 -14.913 -24.900  0.00  0.00    +0.395 N 
ATOM      2  C   UNL     1      33.799 -14.460 -23.621  0.00  0.00    -0.049 C 
ATOM      3  C   UNL     1      32.813 -13.837 -25.816  0.00  0.00    -0.049 C 
ATOM      4  C   UNL     1      33.064 -13.304 -22.969  0.00  0.00    -0.043 C 
ATOM      5  C   UNL     1      33.740 -12.639 -25.894  0.00  0.00    -0.043 C 
ATOM      6  C   UNL     1      33.130 -12.004 -23.530  0.00  0.00    -0.006 C 
ATOM      7  C   UNL     1      33.865 -11.754 -24.793  0.00  0.00    -0.006 C 
ATOM      8  C   UNL     1      32.330 -13.526 -21.793  0.00  0.00    -0.006 C 
ATOM      9  C   UNL     1      34.469 -12.405 -27.070  0.00  0.00    -0.006 C 
ATOM     10  C   UNL     1      32.452 -10.960 -22.872  0.00  0.00    -0.000 C 
ATOM     11  C   UNL     1      34.724 -10.648 -24.923  0.00  0.00    -0.000 C 
ATOM     12  C   UNL     1      31.667 -12.475 -21.163  0.00  0.00    -0.000 C 
ATOM     13  C   UNL     1      35.312 -11.301 -27.173  0.00  0.00    -0.000 C 
ATOM     14  C   UNL     1      31.729 -11.194 -21.700  0.00  0.00    -0.000 C 
ATOM     15  C   UNL     1      35.438 -10.424 -26.101  0.00  0.00    -0.000 C 
ATOM     16  H   UNL     1      32.357 -15.386 -24.662  0.00  0.00    -0.078 HD
ENDROOT
BRANCH   1  17
ATOM     17  C   UNL     1      34.139 -15.854 -25.554  0.00  0.00    -0.049 C 
BRANCH  17  18
ATOM     18  C   UNL     1      34.776 -16.782 -24.565  0.00  0.00    -0.049 C 
ATOM     19  C   UNL     1      34.624 -18.111 -24.582  0.00  0.00    -0.007 C 
ENDBRANCH  17  18
ENDBRANCH   1  17
TORSDOF 2
ENDMDL
MODEL 9
REMARK VINA RESULT:      -7.9      5.859      8.405
REMARK  Name = 8966
REMARK  2 active torsions:
REMARK  status: ('A' for Active; 'I' for Inactive)
REMARK    1  A    between atoms: N_1  and  C_17
REMARK    2  A    between atoms: C_17  and  C_18
REMARK                            x       y       z     vdW  Elec       q    Type
REMARK                         _______ _______ _______ _____ _____    ______ ____
ROOT
ATOM      1  N   UNL     1      31.614  -8.176 -21.359  0.00  0.00    +0.395 N 
ATOM      2  C   UNL     1      32.386  -6.922 -21.387  0.00  0.00    -0.049 C 
ATOM      3  C   UNL     1      31.555  -8.904 -22.638  0.00  0.00    -0.049 C 
ATOM      4  C   UNL     1      32.153  -6.058 -22.612  0.00  0.00    -0.043 C 
ATOM      5  C   UNL     1      32.842  -8.938 -23.440  0.00  0.00    -0.043 C 
ATOM      6  C   UNL     1      32.644  -6.462 -23.880  0.00  0.00    -0.006 C 
ATOM      7  C   UNL     1      33.340  -7.760 -24.050  0.00  0.00    -0.006 C 
ATOM      8  C   UNL     1      31.461  -4.844 -22.481  0.00  0.00    -0.006 C 
ATOM      9  C   UNL     1      33.532 -10.152 -23.585  0.00  0.00    -0.006 C 
ATOM     10  C   UNL     1      32.424  -5.612 -24.980  0.00  0.00    -0.000 C 
ATOM     11  C   UNL     1      34.528  -7.850 -24.799  0.00  0.00    -0.000 C 
ATOM     12  C   UNL     1      31.257  -4.021 -23.587  0.00  0.00    -0.000 C 
ATOM     13  C   UNL     1      34.705 -10.213 -24.332  0.00  0.00    -0.000 C 
ATOM     14  C   UNL     1      31.739  -4.404 -24.834  0.00  0.00    -0.000 C 
ATOM     15  C   UNL     1      35.202  -9.064 -24.939  0.00  0.00    -0.000 C 
ATOM     16  H   UNL     1      30.648  -7.901 -21.185  0.00  0.00    -0.078 HD
ENDROOT
BRANCH   1  17
ATOM     17  C   UNL     1      32.088  -9.035 -20.272  0.00  0.00    -0.049 C 
BRANCH  17  18
ATOM     18  C   UNL     1      31.470 -10.398 -20.338  0.00  0.00    -0.049 C 
ATOM     19  C   UNL     1      31.316 -11.200 -19.278  0.00  0.00    -0.007 C 
ENDBRANCH  17  18
ENDBRANCH   1  17
TORSDOF 2
ENDMDL
