MODEL 1
REMARK VINA RESULT:     -10.3      0.000      0.000
REMARK  Name = 57920094
REMARK  11 active torsions:
REMARK  status: ('A' for Active; 'I' for Inactive)
REMARK    1  A    between atoms: C_1  and  C_6
REMARK    2  A    between atoms: C_1  and  N_19
REMARK    3  A    between atoms: C_1  and  C_32
REMARK    4  A    between atoms: N_4  and  C_11
REMARK    5  A    between atoms: C_11  and  C_12
REMARK    6  A    between atoms: C_12  and  O_13
REMARK    7  A    between atoms: C_12  and  C_15
REMARK    8  A    between atoms: C_15  and  O_16
REMARK    9  A    between atoms: C_22  and  O_24
REMARK   10  A    between atoms: O_24  and  C_26
REMARK   11  A    between atoms: C_32  and  C_33
REMARK                            x       y       z     vdW  Elec       q    Type
REMARK                         _______ _______ _______ _____ _____    ______ ____
ROOT
ATOM      1  C   UNL     1      33.828 -14.417 -24.410  0.00  0.00    +0.153 C 
ENDROOT
BRANCH   1   6
ATOM      2  O   UNL     1      32.263 -14.508 -22.573  0.00  0.00    -0.273 OA
ATOM      3  N   UNL     1      33.111 -12.427 -23.253  0.00  0.00    -0.267 N 
ATOM      4  N   UNL     1      31.837  -9.735 -21.472  0.00  0.00    -0.206 N 
ATOM      5  N   UNL     1      32.646 -10.198 -22.440  0.00  0.00    -0.163 NA
ATOM      6  C   UNL     1      32.981 -13.813 -23.288  0.00  0.00    +0.245 C 
ATOM      7  C   UNL     1      32.451 -11.519 -22.394  0.00  0.00    +0.153 C 
ATOM      8  C   UNL     1      31.524 -11.896 -21.402  0.00  0.00    +0.054 C 
ATOM      9  C   UNL     1      31.144 -10.712 -20.819  0.00  0.00    +0.087 C 
ATOM     10  H   UNL     1      33.736 -12.033 -23.904  0.00  0.00    +0.156 HD
BRANCH   4  11
ATOM     11  C   UNL     1      31.771  -8.318 -21.210  0.00  0.00    +0.148 C 
BRANCH  11  12
ATOM     12  C   UNL     1      31.776  -7.488 -22.498  0.00  0.00    +0.161 C 
BRANCH  12  13
ATOM     13  O   UNL     1      30.869  -8.086 -23.427  0.00  0.00    -0.380 OA
ATOM     14  H   UNL     1      31.201  -7.960 -24.329  0.00  0.00    +0.211 HD
ENDBRANCH  12  13
BRANCH  12  15
ATOM     15  C   UNL     1      31.316  -6.057 -22.229  0.00  0.00    +0.168 C 
BRANCH  15  16
ATOM     16  O   UNL     1      31.947  -5.560 -21.052  0.00  0.00    -0.379 OA
ATOM     17  H   UNL     1      32.646  -6.173 -20.777  0.00  0.00    +0.211 HD
ENDBRANCH  15  16
ENDBRANCH  12  15
ENDBRANCH  11  12
ENDBRANCH   4  11
ENDBRANCH   1   6
BRANCH   1  19
ATOM     18  O   UNL     1      34.397 -16.929 -25.903  0.00  0.00    -0.270 OA
ATOM     19  N   UNL     1      34.370 -15.656 -23.915  0.00  0.00    -0.262 N 
ATOM     20  C   UNL     1      34.741 -15.881 -22.535  0.00  0.00    +0.159 C 
ATOM     21  C   UNL     1      34.596 -16.778 -24.709  0.00  0.00    +0.253 C 
ATOM     22  C   UNL     1      35.220 -17.285 -22.609  0.00  0.00    +0.147 C 
ATOM     23  C   UNL     1      35.152 -17.825 -23.829  0.00  0.00    +0.093 C 
BRANCH  22  24
ATOM     24  O   UNL     1      35.681 -17.921 -21.492  0.00  0.00    -0.455 OA
BRANCH  24  26
ATOM     25 CL   UNL     1      37.226 -20.193 -20.264  0.00  0.00    -0.079 Cl
ATOM     26  C   UNL     1      34.920 -18.948 -20.992  0.00  0.00    +0.155 C 
ATOM     27  C   UNL     1      35.512 -20.063 -20.398  0.00  0.00    +0.092 C 
ATOM     28  C   UNL     1      33.532 -18.864 -21.089  0.00  0.00    +0.038 C 
ATOM     29  C   UNL     1      34.714 -21.094 -19.900  0.00  0.00    +0.014 C 
ATOM     30  C   UNL     1      32.734 -19.895 -20.591  0.00  0.00    +0.003 C 
ATOM     31  C   UNL     1      33.325 -21.010 -19.997  0.00  0.00    +0.001 C 
ENDBRANCH  24  26
ENDBRANCH  22  24
ENDBRANCH   1  19
BRANCH   1  32
ATOM     32  C   UNL     1      32.975 -14.618 -25.669  0.00  0.00    +0.029 C 
BRANCH  32  33
ATOM     33  C   UNL     1      33.304 -13.660 -26.832  0.00  0.00    +0.002 C 
ATOM     34  C   UNL     1      33.983 -12.376 -26.356  0.00  0.00    +0.000 C 
ATOM     35  C   UNL     1      32.019 -13.312 -27.591  0.00  0.00    +0.000 C 
ENDBRANCH  32  33
ENDBRANCH   1  32
TORSDOF 11
ENDMDL
MODEL 2
REMARK VINA RESULT:     -10.1      6.852     11.533
REMARK  Name = 57920094
REMARK  11 active torsions:
REMARK  status: ('A' for Active; 'I' for Inactive)
REMARK    1  A    between atoms: C_1  and  C_6
REMARK    2  A    between atoms: C_1  and  N_19
REMARK    3  A    between atoms: C_1  and  C_32
REMARK    4  A    between atoms: N_4  and  C_11
REMARK    5  A    between atoms: C_11  and  C_12
REMARK    6  A    between atoms: C_12  and  O_13
REMARK    7  A    between atoms: C_12  and  C_15
REMARK    8  A    between atoms: C_15  and  O_16
REMARK    9  A    between atoms: C_22  and  O_24
REMARK   10  A    between atoms: O_24  and  C_26
REMARK   11  A    between atoms: C_32  and  C_33
REMARK                            x       y       z     vdW  Elec       q    Type
REMARK                         _______ _______ _______ _____ _____    ______ ____
ROOT
ATOM      1  C   UNL     1      31.559 -23.659 -16.783  0.00  0.00    +0.153 C 
ENDROOT
BRANCH   1   6
ATOM      2  O   UNL     1      33.871 -23.764 -17.472  0.00  0.00    -0.273 OA
ATOM      3  N   UNL     1      32.470 -22.129 -18.408  0.00  0.00    -0.267 N 
ATOM      4  N   UNL     1      34.071 -20.015 -20.646  0.00  0.00    -0.206 N 
ATOM      5  N   UNL     1      32.946 -20.379 -20.006  0.00  0.00    -0.163 NA
ATOM      6  C   UNL     1      32.777 -23.218 -17.596  0.00  0.00    +0.245 C 
ATOM      7  C   UNL     1      33.342 -21.416 -19.263  0.00  0.00    +0.153 C 
ATOM      8  C   UNL     1      34.708 -21.712 -19.428  0.00  0.00    +0.054 C 
ATOM      9  C   UNL     1      35.155 -20.783 -20.336  0.00  0.00    +0.087 C 
ATOM     10  H   UNL     1      31.536 -21.819 -18.384  0.00  0.00    +0.156 HD
BRANCH   4  11
ATOM     11  C   UNL     1      34.044 -18.902 -21.564  0.00  0.00    +0.148 C 
BRANCH  11  12
ATOM     12  C   UNL     1      35.279 -18.006 -21.428  0.00  0.00    +0.161 C 
BRANCH  12  13
ATOM     13  O   UNL     1      36.112 -18.201 -22.573  0.00  0.00    -0.380 OA
ATOM     14  H   UNL     1      35.774 -18.945 -23.095  0.00  0.00    +0.211 HD
ENDBRANCH  12  13
BRANCH  12  15
ATOM     15  C   UNL     1      34.883 -16.533 -21.366  0.00  0.00    +0.168 C 
BRANCH  15  16
ATOM     16  O   UNL     1      34.979 -16.062 -20.024  0.00  0.00    -0.379 OA
ATOM     17  H   UNL     1      34.985 -16.818 -19.417  0.00  0.00    +0.211 HD
ENDBRANCH  15  16
ENDBRANCH  12  15
ENDBRANCH  11  12
ENDBRANCH   4  11
ENDBRANCH   1   6
BRANCH   1  19
ATOM     18  O   UNL     1      30.469 -25.700 -14.909  0.00  0.00    -0.270 OA
ATOM     19  N   UNL     1      32.030 -24.021 -15.471  0.00  0.00    -0.262 N 
ATOM     20  C   UNL     1      33.174 -23.411 -14.827  0.00  0.00    +0.159 C 
ATOM     21  C   UNL     1      31.439 -24.999 -14.675  0.00  0.00    +0.253 C 
ATOM     22  C   UNL     1      33.188 -24.153 -13.541  0.00  0.00    +0.147 C 
ATOM     23  C   UNL     1      32.216 -25.063 -13.421  0.00  0.00    +0.093 C 
BRANCH  22  24
ATOM     24  O   UNL     1      34.137 -23.887 -12.595  0.00  0.00    -0.455 OA
BRANCH  24  26
ATOM     25 CL   UNL     1      35.780 -24.274 -10.104  0.00  0.00    -0.079 Cl
ATOM     26  C   UNL     1      35.389 -24.412 -12.792  0.00  0.00    +0.155 C 
ATOM     27  C   UNL     1      36.254 -24.640 -11.721  0.00  0.00    +0.092 C 
ATOM     28  C   UNL     1      35.793 -24.716 -14.092  0.00  0.00    +0.038 C 
ATOM     29  C   UNL     1      37.522 -25.173 -11.951  0.00  0.00    +0.014 C 
ATOM     30  C   UNL     1      37.062 -25.249 -14.321  0.00  0.00    +0.003 C 
ATOM     31  C   UNL     1      37.927 -25.477 -13.251  0.00  0.00    +0.001 C 
ENDBRANCH  24  26
ENDBRANCH  22  24
ENDBRANCH   1  19
BRANCH   1  32
ATOM     32  C   UNL     1      30.518 -22.534 -16.735  0.00  0.00    +0.029 C 
BRANCH  32  33
ATOM     33  C   UNL     1      29.129 -22.959 -16.217  0.00  0.00    +0.002 C 
ATOM     34  C   UNL     1      28.039 -22.807 -17.278  0.00  0.00    +0.000 C 
ATOM     35  C   UNL     1      28.764 -22.131 -14.981  0.00  0.00    +0.000 C 
ENDBRANCH  32  33
ENDBRANCH   1  32
TORSDOF 11
ENDMDL
MODEL 3
REMARK VINA RESULT:      -9.8      3.159      9.458
REMARK  Name = 57920094
REMARK  11 active torsions:
REMARK  status: ('A' for Active; 'I' for Inactive)
REMARK    1  A    between atoms: C_1  and  C_6
REMARK    2  A    between atoms: C_1  and  N_19
REMARK    3  A    between atoms: C_1  and  C_32
REMARK    4  A    between atoms: N_4  and  C_11
REMARK    5  A    between atoms: C_11  and  C_12
REMARK    6  A    between atoms: C_12  and  O_13
REMARK    7  A    between atoms: C_12  and  C_15
REMARK    8  A    between atoms: C_15  and  O_16
REMARK    9  A    between atoms: C_22  and  O_24
REMARK   10  A    between atoms: O_24  and  C_26
REMARK   11  A    between atoms: C_32  and  C_33
REMARK                            x       y       z     vdW  Elec       q    Type
REMARK                         _______ _______ _______ _____ _____    ______ ____
ROOT
ATOM      1  C   UNL     1      33.106 -14.825 -23.478  0.00  0.00    +0.153 C 
ENDROOT
BRANCH   1   6
ATOM      2  O   UNL     1      35.318 -15.073 -22.542  0.00  0.00    -0.273 OA
ATOM      3  N   UNL     1      33.817 -16.873 -22.423  0.00  0.00    -0.267 N 
ATOM      4  N   UNL     1      35.141 -19.716 -20.936  0.00  0.00    -0.206 N 
ATOM      5  N   UNL     1      34.101 -19.099 -21.523  0.00  0.00    -0.163 NA
ATOM      6  C   UNL     1      34.218 -15.580 -22.747  0.00  0.00    +0.245 C 
ATOM      7  C   UNL     1      34.581 -17.882 -21.792  0.00  0.00    +0.153 C 
ATOM      8  C   UNL     1      35.918 -17.723 -21.379  0.00  0.00    +0.054 C 
ATOM      9  C   UNL     1      36.253 -18.934 -20.824  0.00  0.00    +0.087 C 
ATOM     10  H   UNL     1      32.893 -17.114 -22.662  0.00  0.00    +0.156 HD
BRANCH   4  11
ATOM     11  C   UNL     1      35.006 -21.081 -20.490  0.00  0.00    +0.148 C 
BRANCH  11  12
ATOM     12  C   UNL     1      33.834 -21.263 -19.520  0.00  0.00    +0.161 C 
BRANCH  12  13
ATOM     13  O   UNL     1      32.646 -21.494 -20.280  0.00  0.00    -0.380 OA
ATOM     14  H   UNL     1      32.363 -20.666 -20.697  0.00  0.00    +0.211 HD
ENDBRANCH  12  13
BRANCH  12  15
ATOM     15  C   UNL     1      34.062 -22.464 -18.605  0.00  0.00    +0.168 C 
BRANCH  15  16
ATOM     16  O   UNL     1      33.882 -23.671 -19.339  0.00  0.00    -0.379 OA
ATOM     17  H   UNL     1      34.079 -23.513 -20.275  0.00  0.00    +0.211 HD
ENDBRANCH  15  16
ENDBRANCH  12  15
ENDBRANCH  11  12
ENDBRANCH   4  11
ENDBRANCH   1   6
BRANCH   1  19
ATOM     18  O   UNL     1      33.016 -14.953 -20.505  0.00  0.00    -0.270 OA
ATOM     19  N   UNL     1      32.559 -13.869 -22.551  0.00  0.00    -0.262 N 
ATOM     20  C   UNL     1      31.932 -12.626 -22.948  0.00  0.00    +0.159 C 
ATOM     21  C   UNL     1      32.570 -14.031 -21.168  0.00  0.00    +0.253 C 
ATOM     22  C   UNL     1      31.571 -12.068 -21.621  0.00  0.00    +0.147 C 
ATOM     23  C   UNL     1      31.919 -12.841 -20.587  0.00  0.00    +0.093 C 
BRANCH  22  24
ATOM     24  O   UNL     1      30.937 -10.863 -21.523  0.00  0.00    -0.455 OA
BRANCH  24  26
ATOM     25 CL   UNL     1      31.928  -9.526 -19.015  0.00  0.00    -0.079 Cl
ATOM     26  C   UNL     1      31.693  -9.734 -21.717  0.00  0.00    +0.155 C 
ATOM     27  C   UNL     1      32.212  -9.018 -20.638  0.00  0.00    +0.092 C 
ATOM     28  C   UNL     1      31.936  -9.305 -23.021  0.00  0.00    +0.038 C 
ATOM     29  C   UNL     1      32.976  -7.872 -20.864  0.00  0.00    +0.014 C 
ATOM     30  C   UNL     1      32.699  -8.159 -23.248  0.00  0.00    +0.003 C 
ATOM     31  C   UNL     1      33.218  -7.442 -22.169  0.00  0.00    +0.001 C 
ENDBRANCH  24  26
ENDBRANCH  22  24
ENDBRANCH   1  19
BRANCH   1  32
ATOM     32  C   UNL     1      33.660 -14.157 -24.742  0.00  0.00    +0.029 C 
BRANCH  32  33
ATOM     33  C   UNL     1      32.796 -14.345 -26.005  0.00  0.00    +0.002 C 
ATOM     34  C   UNL     1      32.786 -15.793 -26.495  0.00  0.00    +0.000 C 
ATOM     35  C   UNL     1      33.306 -13.428 -27.121  0.00  0.00    +0.000 C 
ENDBRANCH  32  33
ENDBRANCH   1  32
TORSDOF 11
ENDMDL
MODEL 4
REMARK VINA RESULT:      -9.7      9.724     13.411
REMARK  Name = 57920094
REMARK  11 active torsions:
REMARK  status: ('A' for Active; 'I' for Inactive)
REMARK    1  A    between atoms: C_1  and  C_6
REMARK    2  A    between atoms: C_1  and  N_19
REMARK    3  A    between atoms: C_1  and  C_32
REMARK    4  A    between atoms: N_4  and  C_11
REMARK    5  A    between atoms: C_11  and  C_12
REMARK    6  A    between atoms: C_12  and  O_13
REMARK    7  A    between atoms: C_12  and  C_15
REMARK    8  A    between atoms: C_15  and  O_16
REMARK    9  A    between atoms: C_22  and  O_24
REMARK   10  A    between atoms: O_24  and  C_26
REMARK   11  A    between atoms: C_32  and  C_33
REMARK                            x       y       z     vdW  Elec       q    Type
REMARK                         _______ _______ _______ _____ _____    ______ ____
ROOT
ATOM      1  C   UNL     1      35.676 -24.804 -14.144  0.00  0.00    +0.153 C 
ENDROOT
BRANCH   1   6
ATOM      2  O   UNL     1      34.215 -23.705 -12.566  0.00  0.00    -0.273 OA
ATOM      3  N   UNL     1      33.300 -24.636 -14.517  0.00  0.00    -0.267 N 
ATOM      4  N   UNL     1      29.852 -24.324 -14.746  0.00  0.00    -0.206 N 
ATOM      5  N   UNL     1      31.009 -24.755 -15.278  0.00  0.00    -0.163 NA
ATOM      6  C   UNL     1      34.325 -24.294 -13.639  0.00  0.00    +0.245 C 
ATOM      7  C   UNL     1      31.917 -24.383 -14.371  0.00  0.00    +0.153 C 
ATOM      8  C   UNL     1      31.344 -23.720 -13.269  0.00  0.00    +0.054 C 
ATOM      9  C   UNL     1      29.998 -23.697 -13.543  0.00  0.00    +0.087 C 
ATOM     10  H   UNL     1      33.571 -25.110 -15.337  0.00  0.00    +0.156 HD
BRANCH   4  11
ATOM     11  C   UNL     1      28.613 -24.544 -15.452  0.00  0.00    +0.148 C 
BRANCH  11  12
ATOM     12  C   UNL     1      28.381 -23.509 -16.556  0.00  0.00    +0.161 C 
BRANCH  12  13
ATOM     13  O   UNL     1      27.693 -24.143 -17.637  0.00  0.00    -0.380 OA
ATOM     14  H   UNL     1      28.151 -23.949 -18.470  0.00  0.00    +0.211 HD
ENDBRANCH  12  13
BRANCH  12  15
ATOM     15  C   UNL     1      27.522 -22.352 -16.051  0.00  0.00    +0.168 C 
BRANCH  15  16
ATOM     16  O   UNL     1      27.183 -21.492 -17.135  0.00  0.00    -0.379 OA
ATOM     17  H   UNL     1      27.574 -20.617 -16.988  0.00  0.00    +0.211 HD
ENDBRANCH  15  16
ENDBRANCH  12  15
ENDBRANCH  11  12
ENDBRANCH   4  11
ENDBRANCH   1   6
BRANCH   1  19
ATOM     18  O   UNL     1      37.426 -22.491 -13.473  0.00  0.00    -0.270 OA
ATOM     19  N   UNL     1      36.212 -23.796 -15.021  0.00  0.00    -0.262 N 
ATOM     20  C   UNL     1      35.967 -23.752 -16.446  0.00  0.00    +0.159 C 
ATOM     21  C   UNL     1      37.027 -22.750 -14.597  0.00  0.00    +0.253 C 
ATOM     22  C   UNL     1      36.742 -22.542 -16.818  0.00  0.00    +0.147 C 
ATOM     23  C   UNL     1      37.357 -21.947 -15.791  0.00  0.00    +0.093 C 
BRANCH  22  24
ATOM     24  O   UNL     1      36.787 -22.117 -18.115  0.00  0.00    -0.455 OA
BRANCH  24  26
ATOM     25 CL   UNL     1      36.988 -20.021 -20.265  0.00  0.00    -0.079 Cl
ATOM     26  C   UNL     1      35.600 -21.764 -18.705  0.00  0.00    +0.155 C 
ATOM     27  C   UNL     1      35.552 -20.803 -19.715  0.00  0.00    +0.092 C 
ATOM     28  C   UNL     1      34.427 -22.384 -18.277  0.00  0.00    +0.038 C 
ATOM     29  C   UNL     1      34.331 -20.461 -20.297  0.00  0.00    +0.014 C 
ATOM     30  C   UNL     1      33.205 -22.042 -18.857  0.00  0.00    +0.003 C 
ATOM     31  C   UNL     1      33.157 -21.080 -19.867  0.00  0.00    +0.001 C 
ENDBRANCH  24  26
ENDBRANCH  22  24
ENDBRANCH   1  19
BRANCH   1  32
ATOM     32  C   UNL     1      36.607 -25.099 -12.961  0.00  0.00    +0.029 C 
BRANCH  32  33
ATOM     33  C   UNL     1      37.679 -26.174 -13.234  0.00  0.00    +0.002 C 
ATOM     34  C   UNL     1      39.078 -25.576 -13.387  0.00  0.00    +0.000 C 
ATOM     35  C   UNL     1      37.313 -26.958 -14.498  0.00  0.00    +0.000 C 
ENDBRANCH  32  33
ENDBRANCH   1  32
TORSDOF 11
ENDMDL
MODEL 5
REMARK VINA RESULT:      -9.6      4.335     11.117
REMARK  Name = 57920094
REMARK  11 active torsions:
REMARK  status: ('A' for Active; 'I' for Inactive)
REMARK    1  A    between atoms: C_1  and  C_6
REMARK    2  A    between atoms: C_1  and  N_19
REMARK    3  A    between atoms: C_1  and  C_32
REMARK    4  A    between atoms: N_4  and  C_11
REMARK    5  A    between atoms: C_11  and  C_12
REMARK    6  A    between atoms: C_12  and  O_13
REMARK    7  A    between atoms: C_12  and  C_15
REMARK    8  A    between atoms: C_15  and  O_16
REMARK    9  A    between atoms: C_22  and  O_24
REMARK   10  A    between atoms: O_24  and  C_26
REMARK   11  A    between atoms: C_32  and  C_33
REMARK                            x       y       z     vdW  Elec       q    Type
REMARK                         _______ _______ _______ _____ _____    ______ ____
ROOT
ATOM      1  C   UNL     1      32.237  -9.689 -21.692  0.00  0.00    +0.153 C 
ENDROOT
BRANCH   1   6
ATOM      2  O   UNL     1      33.190  -9.461 -23.899  0.00  0.00    -0.273 OA
ATOM      3  N   UNL     1      32.738 -11.607 -23.063  0.00  0.00    -0.267 N 
ATOM      4  N   UNL     1      33.475 -14.169 -25.286  0.00  0.00    -0.206 N 
ATOM      5  N   UNL     1      33.020 -13.782 -24.081  0.00  0.00    -0.163 NA
ATOM      6  C   UNL     1      32.797 -10.217 -23.014  0.00  0.00    +0.245 C 
ATOM      7  C   UNL     1      33.115 -12.451 -24.134  0.00  0.00    +0.153 C 
ATOM      8  C   UNL     1      33.628 -11.991 -25.362  0.00  0.00    +0.054 C 
ATOM      9  C   UNL     1      33.853 -13.134 -26.090  0.00  0.00    +0.087 C 
ATOM     10  H   UNL     1      32.393 -12.056 -22.257  0.00  0.00    +0.156 HD
BRANCH   4  11
ATOM     11  C   UNL     1      33.528 -15.573 -25.614  0.00  0.00    +0.148 C 
BRANCH  11  12
ATOM     12  C   UNL     1      34.805 -16.243 -25.096  0.00  0.00    +0.161 C 
BRANCH  12  13
ATOM     13  O   UNL     1      35.209 -15.583 -23.894  0.00  0.00    -0.380 OA
ATOM     14  H   UNL     1      36.164 -15.699 -23.767  0.00  0.00    +0.211 HD
ENDBRANCH  12  13
BRANCH  12  15
ATOM     15  C   UNL     1      34.559 -17.716 -24.777  0.00  0.00    +0.168 C 
BRANCH  15  16
ATOM     16  O   UNL     1      35.613 -18.215 -23.959  0.00  0.00    -0.379 OA
ATOM     17  H   UNL     1      35.605 -17.755 -23.105  0.00  0.00    +0.211 HD
ENDBRANCH  15  16
ENDBRANCH  12  15
ENDBRANCH  11  12
ENDBRANCH   4  11
ENDBRANCH   1   6
BRANCH   1  19
ATOM     18  O   UNL     1      33.102  -7.371 -20.036  0.00  0.00    -0.270 OA
ATOM     19  N   UNL     1      31.949  -8.290 -21.879  0.00  0.00    -0.262 N 
ATOM     20  C   UNL     1      31.147  -7.769 -22.965  0.00  0.00    +0.159 C 
ATOM     21  C   UNL     1      32.408  -7.282 -21.036  0.00  0.00    +0.253 C 
ATOM     22  C   UNL     1      31.188  -6.317 -22.660  0.00  0.00    +0.147 C 
ATOM     23  C   UNL     1      31.896  -6.004 -21.570  0.00  0.00    +0.093 C 
BRANCH  22  24
ATOM     24  O   UNL     1      30.539  -5.420 -23.459  0.00  0.00    -0.455 OA
BRANCH  24  26
ATOM     25 CL   UNL     1      30.613  -2.464 -22.900  0.00  0.00    -0.079 Cl
ATOM     26  C   UNL     1      31.301  -4.677 -24.324  0.00  0.00    +0.155 C 
ATOM     27  C   UNL     1      31.420  -3.294 -24.178  0.00  0.00    +0.092 C 
ATOM     28  C   UNL     1      31.963  -5.328 -25.365  0.00  0.00    +0.038 C 
ATOM     29  C   UNL     1      32.200  -2.563 -25.074  0.00  0.00    +0.014 C 
ATOM     30  C   UNL     1      32.743  -4.596 -26.261  0.00  0.00    +0.003 C 
ATOM     31  C   UNL     1      32.861  -3.214 -26.115  0.00  0.00    +0.001 C 
ENDBRANCH  24  26
ENDBRANCH  22  24
ENDBRANCH   1  19
BRANCH   1  32
ATOM     32  C   UNL     1      30.993 -10.488 -21.285  0.00  0.00    +0.029 C 
BRANCH  32  33
ATOM     33  C   UNL     1      31.104 -11.212 -19.928  0.00  0.00    +0.002 C 
ATOM     34  C   UNL     1      31.759 -10.342 -18.855  0.00  0.00    +0.000 C 
ATOM     35  C   UNL     1      31.904 -12.508 -20.099  0.00  0.00    +0.000 C 
ENDBRANCH  32  33
ENDBRANCH   1  32
TORSDOF 11
ENDMDL
MODEL 6
REMARK VINA RESULT:      -9.5      8.677     12.995
REMARK  Name = 57920094
REMARK  11 active torsions:
REMARK  status: ('A' for Active; 'I' for Inactive)
REMARK    1  A    between atoms: C_1  and  C_6
REMARK    2  A    between atoms: C_1  and  N_19
REMARK    3  A    between atoms: C_1  and  C_32
REMARK    4  A    between atoms: N_4  and  C_11
REMARK    5  A    between atoms: C_11  and  C_12
REMARK    6  A    between atoms: C_12  and  O_13
REMARK    7  A    between atoms: C_12  and  C_15
REMARK    8  A    between atoms: C_15  and  O_16
REMARK    9  A    between atoms: C_22  and  O_24
REMARK   10  A    between atoms: O_24  and  C_26
REMARK   11  A    between atoms: C_32  and  C_33
REMARK                            x       y       z     vdW  Elec       q    Type
REMARK                         _______ _______ _______ _____ _____    ______ ____
ROOT
ATOM      1  C   UNL     1      35.919 -24.171 -15.041  0.00  0.00    +0.153 C 
ENDROOT
BRANCH   1   6
ATOM      2  O   UNL     1      34.622 -23.613 -13.083  0.00  0.00    -0.273 OA
ATOM      3  N   UNL     1      33.509 -24.190 -15.067  0.00  0.00    -0.267 N 
ATOM      4  N   UNL     1      30.050 -24.220 -14.784  0.00  0.00    -0.206 N 
ATOM      5  N   UNL     1      31.147 -24.393 -15.542  0.00  0.00    -0.163 NA
ATOM      6  C   UNL     1      34.621 -23.937 -14.268  0.00  0.00    +0.245 C 
ATOM      7  C   UNL     1      32.145 -24.131 -14.695  0.00  0.00    +0.153 C 
ATOM      8  C   UNL     1      31.689 -23.793 -13.406  0.00  0.00    +0.054 C 
ATOM      9  C   UNL     1      30.320 -23.859 -13.497  0.00  0.00    +0.087 C 
ATOM     10  H   UNL     1      33.693 -24.440 -16.001  0.00  0.00    +0.156 HD
BRANCH   4  11
ATOM     11  C   UNL     1      28.742 -24.417 -15.362  0.00  0.00    +0.148 C 
BRANCH  11  12
ATOM     12  C   UNL     1      28.468 -23.453 -16.520  0.00  0.00    +0.161 C 
BRANCH  12  13
ATOM     13  O   UNL     1      27.784 -24.167 -17.553  0.00  0.00    -0.380 OA
ATOM     14  H   UNL     1      28.353 -24.228 -18.335  0.00  0.00    +0.211 HD
ENDBRANCH  12  13
BRANCH  12  15
ATOM     15  C   UNL     1      27.584 -22.293 -16.070  0.00  0.00    +0.168 C 
BRANCH  15  16
ATOM     16  O   UNL     1      27.174 -21.530 -17.201  0.00  0.00    -0.379 OA
ATOM     17  H   UNL     1      27.823 -21.634 -17.913  0.00  0.00    +0.211 HD
ENDBRANCH  15  16
ENDBRANCH  12  15
ENDBRANCH  11  12
ENDBRANCH   4  11
ENDBRANCH   1   6
BRANCH   1  19
ATOM     18  O   UNL     1      37.941 -22.130 -15.822  0.00  0.00    -0.270 OA
ATOM     19  N   UNL     1      35.909 -23.279 -16.172  0.00  0.00    -0.262 N 
ATOM     20  C   UNL     1      34.851 -23.237 -17.158  0.00  0.00    +0.159 C 
ATOM     21  C   UNL     1      36.916 -22.356 -16.443  0.00  0.00    +0.253 C 
ATOM     22  C   UNL     1      35.358 -22.168 -18.055  0.00  0.00    +0.147 C 
ATOM     23  C   UNL     1      36.529 -21.645 -17.678  0.00  0.00    +0.093 C 
BRANCH  22  24
ATOM     24  O   UNL     1      34.646 -21.790 -19.157  0.00  0.00    -0.455 OA
BRANCH  24  26
ATOM     25 CL   UNL     1      32.586 -20.033 -20.472  0.00  0.00    -0.079 Cl
ATOM     26  C   UNL     1      35.147 -20.756 -19.907  0.00  0.00    +0.155 C 
ATOM     27  C   UNL     1      34.300 -19.868 -20.572  0.00  0.00    +0.092 C 
ATOM     28  C   UNL     1      36.530 -20.603 -20.002  0.00  0.00    +0.038 C 
ATOM     29  C   UNL     1      34.836 -18.827 -21.330  0.00  0.00    +0.014 C 
ATOM     30  C   UNL     1      37.067 -19.563 -20.761  0.00  0.00    +0.003 C 
ATOM     31  C   UNL     1      36.220 -18.675 -21.425  0.00  0.00    +0.001 C 
ENDBRANCH  24  26
ENDBRANCH  22  24
ENDBRANCH   1  19
BRANCH   1  32
ATOM     32  C   UNL     1      37.129 -23.938 -14.129  0.00  0.00    +0.029 C 
BRANCH  32  33
ATOM     33  C   UNL     1      38.016 -25.179 -13.901  0.00  0.00    +0.002 C 
ATOM     34  C   UNL     1      37.606 -26.359 -14.783  0.00  0.00    +0.000 C 
ATOM     35  C   UNL     1      37.957 -25.593 -12.427  0.00  0.00    +0.000 C 
ENDBRANCH  32  33
ENDBRANCH   1  32
TORSDOF 11
ENDMDL
MODEL 7
REMARK VINA RESULT:      -9.5      3.774     11.062
REMARK  Name = 57920094
REMARK  11 active torsions:
REMARK  status: ('A' for Active; 'I' for Inactive)
REMARK    1  A    between atoms: C_1  and  C_6
REMARK    2  A    between atoms: C_1  and  N_19
REMARK    3  A    between atoms: C_1  and  C_32
REMARK    4  A    between atoms: N_4  and  C_11
REMARK    5  A    between atoms: C_11  and  C_12
REMARK    6  A    between atoms: C_12  and  O_13
REMARK    7  A    between atoms: C_12  and  C_15
REMARK    8  A    between atoms: C_15  and  O_16
REMARK    9  A    between atoms: C_22  and  O_24
REMARK   10  A    between atoms: O_24  and  C_26
REMARK   11  A    between atoms: C_32  and  C_33
REMARK                            x       y       z     vdW  Elec       q    Type
REMARK                         _______ _______ _______ _____ _____    ______ ____
ROOT
ATOM      1  C   UNL     1      32.920  -9.870 -22.501  0.00  0.00    +0.153 C 
ENDROOT
BRANCH   1   6
ATOM      2  O   UNL     1      32.686 -10.791 -24.720  0.00  0.00    -0.273 OA
ATOM      3  N   UNL     1      33.469 -12.166 -22.987  0.00  0.00    -0.267 N 
ATOM      4  N   UNL     1      34.091 -15.440 -23.956  0.00  0.00    -0.206 N 
ATOM      5  N   UNL     1      34.082 -14.505 -22.990  0.00  0.00    -0.163 NA
ATOM      6  C   UNL     1      33.019 -10.976 -23.552  0.00  0.00    +0.245 C 
ATOM      7  C   UNL     1      33.641 -13.416 -23.626  0.00  0.00    +0.153 C 
ATOM      8  C   UNL     1      33.372 -13.654 -24.987  0.00  0.00    +0.054 C 
ATOM      9  C   UNL     1      33.676 -14.981 -25.171  0.00  0.00    +0.087 C 
ATOM     10  H   UNL     1      33.693 -12.134 -22.028  0.00  0.00    +0.156 HD
BRANCH   4  11
ATOM     11  C   UNL     1      34.521 -16.783 -23.649  0.00  0.00    +0.148 C 
BRANCH  11  12
ATOM     12  C   UNL     1      35.051 -16.910 -22.217  0.00  0.00    +0.161 C 
BRANCH  12  13
ATOM     13  O   UNL     1      33.938 -16.923 -21.320  0.00  0.00    -0.380 OA
ATOM     14  H   UNL     1      33.859 -16.058 -20.890  0.00  0.00    +0.211 HD
ENDBRANCH  12  13
BRANCH  12  15
ATOM     15  C   UNL     1      35.831 -18.210 -22.036  0.00  0.00    +0.168 C 
BRANCH  15  16
ATOM     16  O   UNL     1      35.896 -18.546 -20.653  0.00  0.00    -0.379 OA
ATOM     17  H   UNL     1      35.824 -17.739 -20.121  0.00  0.00    +0.211 HD
ENDBRANCH  15  16
ENDBRANCH  12  15
ENDBRANCH  11  12
ENDBRANCH   4  11
ENDBRANCH   1   6
BRANCH   1  19
ATOM     18  O   UNL     1      35.088  -8.084 -23.488  0.00  0.00    -0.270 OA
ATOM     19  N   UNL     1      32.806  -8.619 -23.206  0.00  0.00    -0.262 N 
ATOM     20  C   UNL     1      31.545  -8.005 -23.563  0.00  0.00    +0.159 C 
ATOM     21  C   UNL     1      33.896  -7.860 -23.624  0.00  0.00    +0.253 C 
ATOM     22  C   UNL     1      32.026  -6.779 -24.249  0.00  0.00    +0.147 C 
ATOM     23  C   UNL     1      33.356  -6.665 -24.302  0.00  0.00    +0.093 C 
BRANCH  22  24
ATOM     24  O   UNL     1      31.138  -5.878 -24.763  0.00  0.00    -0.455 OA
BRANCH  24  26
ATOM     25 CL   UNL     1      30.527  -4.866 -21.995  0.00  0.00    -0.079 Cl
ATOM     26  C   UNL     1      31.397  -4.547 -24.553  0.00  0.00    +0.155 C 
ATOM     27  C   UNL     1      31.157  -3.950 -23.314  0.00  0.00    +0.092 C 
ATOM     28  C   UNL     1      31.906  -3.788 -25.605  0.00  0.00    +0.038 C 
ATOM     29  C   UNL     1      31.427  -2.595 -23.129  0.00  0.00    +0.014 C 
ATOM     30  C   UNL     1      32.176  -2.431 -25.420  0.00  0.00    +0.003 C 
ATOM     31  C   UNL     1      31.936  -1.835 -24.182  0.00  0.00    +0.001 C 
ENDBRANCH  24  26
ENDBRANCH  22  24
ENDBRANCH   1  19
BRANCH   1  32
ATOM     32  C   UNL     1      31.725 -10.124 -21.574  0.00  0.00    +0.029 C 
BRANCH  32  33
ATOM     33  C   UNL     1      32.002  -9.873 -20.078  0.00  0.00    +0.002 C 
ATOM     34  C   UNL     1      30.988 -10.572 -19.172  0.00  0.00    +0.000 C 
ATOM     35  C   UNL     1      31.991  -8.367 -19.797  0.00  0.00    +0.000 C 
ENDBRANCH  32  33
ENDBRANCH   1  32
TORSDOF 11
ENDMDL
MODEL 8
REMARK VINA RESULT:      -9.4      1.541      2.060
REMARK  Name = 57920094
REMARK  11 active torsions:
REMARK  status: ('A' for Active; 'I' for Inactive)
REMARK    1  A    between atoms: C_1  and  C_6
REMARK    2  A    between atoms: C_1  and  N_19
REMARK    3  A    between atoms: C_1  and  C_32
REMARK    4  A    between atoms: N_4  and  C_11
REMARK    5  A    between atoms: C_11  and  C_12
REMARK    6  A    between atoms: C_12  and  O_13
REMARK    7  A    between atoms: C_12  and  C_15
REMARK    8  A    between atoms: C_15  and  O_16
REMARK    9  A    between atoms: C_22  and  O_24
REMARK   10  A    between atoms: O_24  and  C_26
REMARK   11  A    between atoms: C_32  and  C_33
REMARK                            x       y       z     vdW  Elec       q    Type
REMARK                         _______ _______ _______ _____ _____    ______ ____
ROOT
ATOM      1  C   UNL     1      34.578 -14.771 -23.456  0.00  0.00    +0.153 C 
ENDROOT
BRANCH   1   6
ATOM      2  O   UNL     1      32.426 -14.657 -22.367  0.00  0.00    -0.273 OA
ATOM      3  N   UNL     1      33.435 -12.675 -23.117  0.00  0.00    -0.267 N 
ATOM      4  N   UNL     1      31.524  -9.829 -22.578  0.00  0.00    -0.206 N 
ATOM      5  N   UNL     1      32.653 -10.389 -23.046  0.00  0.00    -0.163 NA
ATOM      6  C   UNL     1      33.353 -14.047 -22.895  0.00  0.00    +0.245 C 
ATOM      7  C   UNL     1      32.478 -11.687 -22.789  0.00  0.00    +0.153 C 
ATOM      8  C   UNL     1      31.246 -11.955 -22.161  0.00  0.00    +0.054 C 
ATOM      9  C   UNL     1      30.649 -10.724 -22.037  0.00  0.00    +0.087 C 
ATOM     10  H   UNL     1      34.257 -12.355 -23.556  0.00  0.00    +0.156 HD
BRANCH   4  11
ATOM     11  C   UNL     1      31.338  -8.402 -22.677  0.00  0.00    +0.148 C 
BRANCH  11  12
ATOM     12  C   UNL     1      32.443  -7.620 -21.960  0.00  0.00    +0.161 C 
BRANCH  12  13
ATOM     13  O   UNL     1      33.065  -8.484 -21.006  0.00  0.00    -0.380 OA
ATOM     14  H   UNL     1      33.992  -8.623 -21.252  0.00  0.00    +0.211 HD
ENDBRANCH  12  13
BRANCH  12  15
ATOM     15  C   UNL     1      33.508  -7.148 -22.947  0.00  0.00    +0.168 C 
BRANCH  15  16
ATOM     16  O   UNL     1      34.658  -7.984 -22.854  0.00  0.00    -0.379 OA
ATOM     17  H   UNL     1      34.731  -8.522 -23.657  0.00  0.00    +0.211 HD
ENDBRANCH  15  16
ENDBRANCH  12  15
ENDBRANCH  11  12
ENDBRANCH   4  11
ENDBRANCH   1   6
BRANCH   1  19
ATOM     18  O   UNL     1      34.903 -14.978 -20.504  0.00  0.00    -0.270 OA
ATOM     19  N   UNL     1      34.784 -15.948 -22.653  0.00  0.00    -0.262 N 
ATOM     20  C   UNL     1      34.869 -17.288 -23.192  0.00  0.00    +0.159 C 
ATOM     21  C   UNL     1      34.925 -15.930 -21.268  0.00  0.00    +0.253 C 
ATOM     22  C   UNL     1      35.079 -18.069 -21.946  0.00  0.00    +0.147 C 
ATOM     23  C   UNL     1      35.116 -17.328 -20.834  0.00  0.00    +0.093 C 
BRANCH  22  24
ATOM     24  O   UNL     1      35.218 -19.426 -21.992  0.00  0.00    -0.455 OA
BRANCH  24  26
ATOM     25 CL   UNL     1      37.097 -21.045 -20.288  0.00  0.00    -0.079 Cl
ATOM     26  C   UNL     1      34.625 -20.155 -20.991  0.00  0.00    +0.155 C 
ATOM     27  C   UNL     1      35.382 -20.950 -20.130  0.00  0.00    +0.092 C 
ATOM     28  C   UNL     1      33.240 -20.093 -20.846  0.00  0.00    +0.038 C 
ATOM     29  C   UNL     1      34.754 -21.683 -19.123  0.00  0.00    +0.014 C 
ATOM     30  C   UNL     1      32.611 -20.826 -19.839  0.00  0.00    +0.003 C 
ATOM     31  C   UNL     1      33.368 -21.621 -18.978  0.00  0.00    +0.001 C 
ENDBRANCH  24  26
ENDBRANCH  22  24
ENDBRANCH   1  19
BRANCH   1  32
ATOM     32  C   UNL     1      34.363 -15.108 -24.936  0.00  0.00    +0.029 C 
BRANCH  32  33
ATOM     33  C   UNL     1      33.127 -14.447 -25.578  0.00  0.00    +0.002 C 
ATOM     34  C   UNL     1      32.405 -15.380 -26.551  0.00  0.00    +0.000 C 
ATOM     35  C   UNL     1      33.547 -13.167 -26.307  0.00  0.00    +0.000 C 
ENDBRANCH  32  33
ENDBRANCH   1  32
TORSDOF 11
ENDMDL
MODEL 9
REMARK VINA RESULT:      -9.4      3.213      9.842
REMARK  Name = 57920094
REMARK  11 active torsions:
REMARK  status: ('A' for Active; 'I' for Inactive)
REMARK    1  A    between atoms: C_1  and  C_6
REMARK    2  A    between atoms: C_1  and  N_19
REMARK    3  A    between atoms: C_1  and  C_32
REMARK    4  A    between atoms: N_4  and  C_11
REMARK    5  A    between atoms: C_11  and  C_12
REMARK    6  A    between atoms: C_12  and  O_13
REMARK    7  A    between atoms: C_12  and  C_15
REMARK    8  A    between atoms: C_15  and  O_16
REMARK    9  A    between atoms: C_22  and  O_24
REMARK   10  A    between atoms: O_24  and  C_26
REMARK   11  A    between atoms: C_32  and  C_33
REMARK                            x       y       z     vdW  Elec       q    Type
REMARK                         _______ _______ _______ _____ _____    ______ ____
ROOT
ATOM      1  C   UNL     1      32.634 -12.829 -23.613  0.00  0.00    +0.153 C 
ENDROOT
BRANCH   1   6
ATOM      2  O   UNL     1      33.325 -13.262 -21.340  0.00  0.00    -0.273 OA
ATOM      3  N   UNL     1      33.610 -14.935 -22.962  0.00  0.00    -0.267 N 
ATOM      4  N   UNL     1      35.118 -17.821 -21.762  0.00  0.00    -0.206 N 
ATOM      5  N   UNL     1      34.575 -17.145 -22.789  0.00  0.00    -0.163 NA
ATOM      6  C   UNL     1      33.211 -13.688 -22.487  0.00  0.00    +0.245 C 
ATOM      7  C   UNL     1      34.230 -15.979 -22.237  0.00  0.00    +0.153 C 
ATOM      8  C   UNL     1      34.550 -15.911 -20.867  0.00  0.00    +0.054 C 
ATOM      9  C   UNL     1      35.127 -17.126 -20.588  0.00  0.00    +0.087 C 
ATOM     10  H   UNL     1      33.440 -15.110 -23.916  0.00  0.00    +0.156 HD
BRANCH   4  11
ATOM     11  C   UNL     1      35.621 -19.157 -21.969  0.00  0.00    +0.148 C 
BRANCH  11  12
ATOM     12  C   UNL     1      34.870 -20.197 -21.131  0.00  0.00    +0.161 C 
BRANCH  12  13
ATOM     13  O   UNL     1      35.491 -20.279 -19.846  0.00  0.00    -0.380 OA
ATOM     14  H   UNL     1      34.809 -20.377 -19.164  0.00  0.00    +0.211 HD
ENDBRANCH  12  13
BRANCH  12  15
ATOM     15  C   UNL     1      33.411 -19.792 -20.936  0.00  0.00    +0.168 C 
BRANCH  15  16
ATOM     16  O   UNL     1      32.743 -20.761 -20.133  0.00  0.00    -0.379 OA
ATOM     17  H   UNL     1      32.690 -20.443 -19.219  0.00  0.00    +0.211 HD
ENDBRANCH  15  16
ENDBRANCH  12  15
ENDBRANCH  11  12
ENDBRANCH   4  11
ENDBRANCH   1   6
BRANCH   1  19
ATOM     18  O   UNL     1      30.578 -11.611 -21.837  0.00  0.00    -0.270 OA
ATOM     19  N   UNL     1      32.554 -11.478 -23.121  0.00  0.00    -0.262 N 
ATOM     20  C   UNL     1      33.520 -10.446 -23.434  0.00  0.00    +0.159 C 
ATOM     21  C   UNL     1      31.540 -11.012 -22.289  0.00  0.00    +0.253 C 
ATOM     22  C   UNL     1      32.948  -9.302 -22.680  0.00  0.00    +0.147 C 
ATOM     23  C   UNL     1      31.823  -9.588 -22.017  0.00  0.00    +0.093 C 
BRANCH  22  24
ATOM     24  O   UNL     1      33.562  -8.083 -22.697  0.00  0.00    -0.455 OA
BRANCH  24  26
ATOM     25 CL   UNL     1      32.368  -6.565 -20.389  0.00  0.00    -0.079 Cl
ATOM     26  C   UNL     1      32.797  -6.996 -23.040  0.00  0.00    +0.155 C 
ATOM     27  C   UNL     1      32.184  -6.207 -22.066  0.00  0.00    +0.092 C 
ATOM     28  C   UNL     1      32.635  -6.688 -24.390  0.00  0.00    +0.038 C 
ATOM     29  C   UNL     1      31.410  -5.109 -22.443  0.00  0.00    +0.014 C 
ATOM     30  C   UNL     1      31.860  -5.591 -24.767  0.00  0.00    +0.003 C 
ATOM     31  C   UNL     1      31.248  -4.802 -23.793  0.00  0.00    +0.001 C 
ENDBRANCH  24  26
ENDBRANCH  22  24
ENDBRANCH   1  19
BRANCH   1  32
ATOM     32  C   UNL     1      33.510 -12.939 -24.867  0.00  0.00    +0.029 C 
BRANCH  32  33
ATOM     33  C   UNL     1      32.839 -13.640 -26.065  0.00  0.00    +0.002 C 
ATOM     34  C   UNL     1      33.149 -15.136 -26.114  0.00  0.00    +0.000 C 
ATOM     35  C   UNL     1      33.293 -12.977 -27.370  0.00  0.00    +0.000 C 
ENDBRANCH  32  33
ENDBRANCH   1  32
TORSDOF 11
ENDMDL
