MODEL 1
REMARK VINA RESULT:     -11.9      0.000      0.000
REMARK  Name = 17754438
REMARK  6 active torsions:
REMARK  status: ('A' for Active; 'I' for Inactive)
REMARK    1  A    between atoms: N_1  and  C_19
REMARK    2  A    between atoms: C_7  and  C_12
REMARK    3  A    between atoms: N_10  and  C_15
REMARK    4  A    between atoms: C_15  and  C_16
REMARK    5  A    between atoms: C_16  and  O_17
REMARK    6  A    between atoms: C_19  and  C_21
REMARK                            x       y       z     vdW  Elec       q    Type
REMARK                         _______ _______ _______ _____ _____    ______ ____
ROOT
ATOM      1  N   UNL     1      35.055 -17.617 -23.471  0.00  0.00    -0.163 N 
ATOM      2  N   UNL     1      34.187 -15.333 -23.440  0.00  0.00    -0.378 NA
ATOM      3  N   UNL     1      35.119 -18.619 -24.370  0.00  0.00    -0.033 NA
ATOM      4  N   UNL     1      33.501 -16.080 -26.154  0.00  0.00    -0.208 NA
ATOM      5  N   UNL     1      34.550 -18.192 -25.498  0.00  0.00    -0.086 NA
ATOM      6  C   UNL     1      34.444 -16.524 -24.000  0.00  0.00    +0.267 C 
ATOM      7  C   UNL     1      33.558 -14.513 -24.313  0.00  0.00    +0.140 C 
ATOM      8  C   UNL     1      34.131 -16.911 -25.289  0.00  0.00    +0.098 C 
ATOM      9  C   UNL     1      33.229 -14.870 -25.613  0.00  0.00    +0.195 C 
ENDROOT
BRANCH   7  12
ATOM     10  N   UNL     1      32.305 -11.612 -22.648  0.00  0.00    -0.208 N 
ATOM     11  N   UNL     1      33.145 -10.951 -23.463  0.00  0.00    -0.176 NA
ATOM     12  C   UNL     1      33.233 -13.206 -23.817  0.00  0.00    +0.064 C 
ATOM     13  C   UNL     1      32.320 -12.965 -22.820  0.00  0.00    +0.088 C 
ATOM     14  C   UNL     1      33.709 -11.931 -24.175  0.00  0.00    +0.121 C 
BRANCH  10  15
ATOM     15  C   UNL     1      31.499 -10.877 -21.702  0.00  0.00    +0.148 C 
BRANCH  15  16
ATOM     16  C   UNL     1      31.909  -9.414 -21.598  0.00  0.00    +0.161 C 
BRANCH  16  17
ATOM     17  O   UNL     1      31.398  -8.692 -22.711  0.00  0.00    -0.380 OA
ATOM     18  H   UNL     1      32.134  -8.381 -23.260  0.00  0.00    +0.211 HD
ENDBRANCH  16  17
ENDBRANCH  15  16
ENDBRANCH  10  15
ENDBRANCH   7  12
BRANCH   1  19
ATOM     19  C   UNL     1      35.605 -17.786 -22.122  0.00  0.00    +0.145 C 
BRANCH  19  21
ATOM     20  N   UNL     1      32.760 -21.706 -19.195  0.00  0.00    -0.244 NA
ATOM     21  C   UNL     1      34.864 -18.822 -21.346  0.00  0.00    -0.000 C 
ATOM     22  C   UNL     1      35.560 -19.782 -20.617  0.00  0.00    -0.001 C 
ATOM     23  C   UNL     1      34.865 -20.761 -19.885  0.00  0.00    +0.017 C 
ATOM     24  C   UNL     1      33.475 -18.837 -21.350  0.00  0.00    -0.001 C 
ATOM     25  C   UNL     1      33.455 -20.782 -19.884  0.00  0.00    +0.081 C 
ATOM     26  C   UNL     1      32.785 -19.810 -20.623  0.00  0.00    +0.019 C 
ATOM     27  C   UNL     1      35.541 -21.738 -19.142  0.00  0.00    +0.003 C 
ATOM     28  C   UNL     1      34.827 -22.691 -18.431  0.00  0.00    +0.021 C 
ATOM     29  C   UNL     1      33.450 -22.631 -18.490  0.00  0.00    +0.099 C 
ENDBRANCH  19  21
ENDBRANCH   1  19
TORSDOF 6
ENDMDL
MODEL 2
REMARK VINA RESULT:     -11.2      5.061     10.744
REMARK  Name = 17754438
REMARK  6 active torsions:
REMARK  status: ('A' for Active; 'I' for Inactive)
REMARK    1  A    between atoms: N_1  and  C_19
REMARK    2  A    between atoms: C_7  and  C_12
REMARK    3  A    between atoms: N_10  and  C_15
REMARK    4  A    between atoms: C_15  and  C_16
REMARK    5  A    between atoms: C_16  and  O_17
REMARK    6  A    between atoms: C_19  and  C_21
REMARK                            x       y       z     vdW  Elec       q    Type
REMARK                         _______ _______ _______ _____ _____    ______ ____
ROOT
ATOM      1  N   UNL     1      34.771 -20.870 -20.037  0.00  0.00    -0.163 N 
ATOM      2  N   UNL     1      35.692 -21.994 -18.073  0.00  0.00    -0.378 NA
ATOM      3  N   UNL     1      33.563 -20.781 -20.627  0.00  0.00    -0.033 NA
ATOM      4  N   UNL     1      32.936 -22.866 -17.887  0.00  0.00    -0.208 NA
ATOM      5  N   UNL     1      32.706 -21.511 -19.913  0.00  0.00    -0.086 NA
ATOM      6  C   UNL     1      34.718 -21.657 -18.931  0.00  0.00    +0.267 C 
ATOM      7  C   UNL     1      35.220 -22.803 -17.096  0.00  0.00    +0.140 C 
ATOM      8  C   UNL     1      33.396 -22.055 -18.870  0.00  0.00    +0.098 C 
ATOM      9  C   UNL     1      33.900 -23.221 -17.007  0.00  0.00    +0.195 C 
ENDROOT
BRANCH   7  12
ATOM     10  N   UNL     1      37.103 -24.310 -14.461  0.00  0.00    -0.208 N 
ATOM     11  N   UNL     1      38.066 -23.456 -14.848  0.00  0.00    -0.176 NA
ATOM     12  C   UNL     1      36.182 -23.227 -16.120  0.00  0.00    +0.064 C 
ATOM     13  C   UNL     1      35.955 -24.213 -15.191  0.00  0.00    +0.088 C 
ATOM     14  C   UNL     1      37.497 -22.797 -15.862  0.00  0.00    +0.121 C 
BRANCH  10  15
ATOM     15  C   UNL     1      37.348 -25.216 -13.365  0.00  0.00    +0.148 C 
BRANCH  15  16
ATOM     16  C   UNL     1      38.764 -25.778 -13.377  0.00  0.00    +0.161 C 
BRANCH  16  17
ATOM     17  O   UNL     1      38.975 -26.518 -14.572  0.00  0.00    -0.380 OA
ATOM     18  H   UNL     1      39.750 -26.167 -15.037  0.00  0.00    +0.211 HD
ENDBRANCH  16  17
ENDBRANCH  15  16
ENDBRANCH  10  15
ENDBRANCH   7  12
BRANCH   1  19
ATOM     19  C   UNL     1      35.930 -20.166 -20.597  0.00  0.00    +0.145 C 
BRANCH  19  21
ATOM     20  N   UNL     1      34.372 -15.903 -23.977  0.00  0.00    -0.244 NA
ATOM     21  C   UNL     1      35.521 -19.036 -21.479  0.00  0.00    -0.000 C 
ATOM     22  C   UNL     1      35.257 -17.782 -20.935  0.00  0.00    -0.001 C 
ATOM     23  C   UNL     1      34.870 -16.715 -21.764  0.00  0.00    +0.017 C 
ATOM     24  C   UNL     1      35.396 -19.230 -22.850  0.00  0.00    -0.001 C 
ATOM     25  C   UNL     1      34.742 -16.904 -23.155  0.00  0.00    +0.081 C 
ATOM     26  C   UNL     1      35.011 -18.169 -23.673  0.00  0.00    +0.019 C 
ATOM     27  C   UNL     1      34.600 -15.443 -21.242  0.00  0.00    +0.003 C 
ATOM     28  C   UNL     1      34.219 -14.409 -22.087  0.00  0.00    +0.021 C 
ATOM     29  C   UNL     1      34.121 -14.690 -23.434  0.00  0.00    +0.099 C 
ENDBRANCH  19  21
ENDBRANCH   1  19
TORSDOF 6
ENDMDL
MODEL 3
REMARK VINA RESULT:     -11.2      6.000     12.016
REMARK  Name = 17754438
REMARK  6 active torsions:
REMARK  status: ('A' for Active; 'I' for Inactive)
REMARK    1  A    between atoms: N_1  and  C_19
REMARK    2  A    between atoms: C_7  and  C_12
REMARK    3  A    between atoms: N_10  and  C_15
REMARK    4  A    between atoms: C_15  and  C_16
REMARK    5  A    between atoms: C_16  and  O_17
REMARK    6  A    between atoms: C_19  and  C_21
REMARK                            x       y       z     vdW  Elec       q    Type
REMARK                         _______ _______ _______ _____ _____    ______ ____
ROOT
ATOM      1  N   UNL     1      33.109 -23.317 -17.557  0.00  0.00    -0.163 N 
ATOM      2  N   UNL     1      34.697 -24.093 -15.869  0.00  0.00    -0.378 NA
ATOM      3  N   UNL     1      31.861 -22.806 -17.553  0.00  0.00    -0.033 NA
ATOM      4  N   UNL     1      32.497 -23.320 -14.151  0.00  0.00    -0.208 NA
ATOM      5  N   UNL     1      31.454 -22.733 -16.286  0.00  0.00    -0.086 NA
ATOM      6  C   UNL     1      33.530 -23.584 -16.293  0.00  0.00    +0.267 C 
ATOM      7  C   UNL     1      34.718 -24.202 -14.521  0.00  0.00    +0.140 C 
ATOM      8  C   UNL     1      32.463 -23.205 -15.500  0.00  0.00    +0.098 C 
ATOM      9  C   UNL     1      33.664 -23.831 -13.697  0.00  0.00    +0.195 C 
ENDROOT
BRANCH   7  12
ATOM     10  N   UNL     1      37.928 -25.591 -13.797  0.00  0.00    -0.208 N 
ATOM     11  N   UNL     1      37.531 -25.485 -12.517  0.00  0.00    -0.176 NA
ATOM     12  C   UNL     1      35.924 -24.737 -13.958  0.00  0.00    +0.064 C 
ATOM     13  C   UNL     1      37.002 -25.157 -14.699  0.00  0.00    +0.088 C 
ATOM     14  C   UNL     1      36.306 -24.963 -12.622  0.00  0.00    +0.121 C 
BRANCH  10  15
ATOM     15  C   UNL     1      39.235 -26.124 -14.100  0.00  0.00    +0.148 C 
BRANCH  15  16
ATOM     16  C   UNL     1      40.042 -25.209 -15.012  0.00  0.00    +0.161 C 
BRANCH  16  17
ATOM     17  O   UNL     1      40.461 -25.929 -16.163  0.00  0.00    -0.380 OA
ATOM     18  H   UNL     1      41.429 -25.987 -16.174  0.00  0.00    +0.211 HD
ENDBRANCH  16  17
ENDBRANCH  15  16
ENDBRANCH  10  15
ENDBRANCH   7  12
BRANCH   1  19
ATOM     19  C   UNL     1      33.831 -23.519 -18.817  0.00  0.00    +0.145 C 
BRANCH  19  21
ATOM     20  N   UNL     1      36.215 -18.737 -20.682  0.00  0.00    -0.244 NA
ATOM     21  C   UNL     1      34.450 -22.255 -19.311  0.00  0.00    -0.000 C 
ATOM     22  C   UNL     1      33.671 -21.300 -19.957  0.00  0.00    -0.001 C 
ATOM     23  C   UNL     1      34.251 -20.108 -20.425  0.00  0.00    +0.017 C 
ATOM     24  C   UNL     1      35.808 -22.026 -19.131  0.00  0.00    -0.001 C 
ATOM     25  C   UNL     1      35.629 -19.868 -20.245  0.00  0.00    +0.081 C 
ATOM     26  C   UNL     1      36.384 -20.841 -19.596  0.00  0.00    +0.019 C 
ATOM     27  C   UNL     1      33.489 -19.130 -21.078  0.00  0.00    +0.003 C 
ATOM     28  C   UNL     1      34.091 -17.963 -21.529  0.00  0.00    +0.021 C 
ATOM     29  C   UNL     1      35.445 -17.818 -21.307  0.00  0.00    +0.099 C 
ENDBRANCH  19  21
ENDBRANCH   1  19
TORSDOF 6
ENDMDL
MODEL 4
REMARK VINA RESULT:     -10.7      5.010     10.073
REMARK  Name = 17754438
REMARK  6 active torsions:
REMARK  status: ('A' for Active; 'I' for Inactive)
REMARK    1  A    between atoms: N_1  and  C_19
REMARK    2  A    between atoms: C_7  and  C_12
REMARK    3  A    between atoms: N_10  and  C_15
REMARK    4  A    between atoms: C_15  and  C_16
REMARK    5  A    between atoms: C_16  and  O_17
REMARK    6  A    between atoms: C_19  and  C_21
REMARK                            x       y       z     vdW  Elec       q    Type
REMARK                         _______ _______ _______ _____ _____    ______ ____
ROOT
ATOM      1  N   UNL     1      34.164 -23.191 -17.382  0.00  0.00    -0.163 N 
ATOM      2  N   UNL     1      31.739 -23.177 -17.081  0.00  0.00    -0.378 NA
ATOM      3  N   UNL     1      35.243 -23.127 -16.575  0.00  0.00    -0.033 NA
ATOM      4  N   UNL     1      32.575 -22.967 -14.316  0.00  0.00    -0.208 NA
ATOM      5  N   UNL     1      34.807 -23.035 -15.319  0.00  0.00    -0.086 NA
ATOM      6  C   UNL     1      33.013 -23.141 -16.662  0.00  0.00    +0.267 C 
ATOM      7  C   UNL     1      30.883 -23.102 -16.037  0.00  0.00    +0.140 C 
ATOM      8  C   UNL     1      33.444 -23.042 -15.353  0.00  0.00    +0.098 C 
ATOM      9  C   UNL     1      31.282 -23.002 -14.712  0.00  0.00    +0.195 C 
ENDROOT
BRANCH   7  12
ATOM     10  N   UNL     1      27.386 -22.557 -16.523  0.00  0.00    -0.208 N 
ATOM     11  N   UNL     1      27.436 -23.729 -17.180  0.00  0.00    -0.176 NA
ATOM     12  C   UNL     1      29.488 -23.132 -16.372  0.00  0.00    +0.064 C 
ATOM     13  C   UNL     1      28.588 -22.156 -16.020  0.00  0.00    +0.088 C 
ATOM     14  C   UNL     1      28.723 -24.076 -17.084  0.00  0.00    +0.121 C 
BRANCH  10  15
ATOM     15  C   UNL     1      26.132 -21.852 -16.411  0.00  0.00    +0.148 C 
BRANCH  15  16
ATOM     16  C   UNL     1      25.882 -20.914 -17.584  0.00  0.00    +0.161 C 
BRANCH  16  17
ATOM     17  O   UNL     1      26.310 -21.531 -18.791  0.00  0.00    -0.380 OA
ATOM     18  H   UNL     1      25.593 -22.077 -19.147  0.00  0.00    +0.211 HD
ENDBRANCH  16  17
ENDBRANCH  15  16
ENDBRANCH  10  15
ENDBRANCH   7  12
BRANCH   1  19
ATOM     19  C   UNL     1      34.323 -23.299 -18.836  0.00  0.00    +0.145 C 
BRANCH  19  21
ATOM     20  N   UNL     1      33.985 -18.247 -21.363  0.00  0.00    -0.244 NA
ATOM     21  C   UNL     1      34.244 -21.968 -19.504  0.00  0.00    -0.000 C 
ATOM     22  C   UNL     1      35.405 -21.329 -19.929  0.00  0.00    -0.001 C 
ATOM     23  C   UNL     1      35.334 -20.073 -20.559  0.00  0.00    +0.017 C 
ATOM     24  C   UNL     1      33.012 -21.358 -19.703  0.00  0.00    -0.001 C 
ATOM     25  C   UNL     1      34.087 -19.449 -20.764  0.00  0.00    +0.081 C 
ATOM     26  C   UNL     1      32.943 -20.111 -20.329  0.00  0.00    +0.019 C 
ATOM     27  C   UNL     1      36.487 -19.408 -20.997  0.00  0.00    +0.003 C 
ATOM     28  C   UNL     1      36.385 -18.169 -21.614  0.00  0.00    +0.021 C 
ATOM     29  C   UNL     1      35.121 -17.638 -21.772  0.00  0.00    +0.099 C 
ENDBRANCH  19  21
ENDBRANCH   1  19
TORSDOF 6
ENDMDL
MODEL 5
REMARK VINA RESULT:     -10.7      3.187      9.169
REMARK  Name = 17754438
REMARK  6 active torsions:
REMARK  status: ('A' for Active; 'I' for Inactive)
REMARK    1  A    between atoms: N_1  and  C_19
REMARK    2  A    between atoms: C_7  and  C_12
REMARK    3  A    between atoms: N_10  and  C_15
REMARK    4  A    between atoms: C_15  and  C_16
REMARK    5  A    between atoms: C_16  and  O_17
REMARK    6  A    between atoms: C_19  and  C_21
REMARK                            x       y       z     vdW  Elec       q    Type
REMARK                         _______ _______ _______ _____ _____    ______ ____
ROOT
ATOM      1  N   UNL     1      33.073 -14.466 -24.285  0.00  0.00    -0.163 N 
ATOM      2  N   UNL     1      34.077 -16.347 -23.090  0.00  0.00    -0.378 NA
ATOM      3  N   UNL     1      32.886 -14.124 -25.575  0.00  0.00    -0.033 NA
ATOM      4  N   UNL     1      34.526 -17.206 -25.820  0.00  0.00    -0.208 NA
ATOM      5  N   UNL     1      33.399 -15.093 -26.332  0.00  0.00    -0.086 NA
ATOM      6  C   UNL     1      33.710 -15.662 -24.184  0.00  0.00    +0.267 C 
ATOM      7  C   UNL     1      34.692 -17.504 -23.426  0.00  0.00    +0.140 C 
ATOM      8  C   UNL     1      33.908 -16.044 -25.497  0.00  0.00    +0.098 C 
ATOM      9  C   UNL     1      34.907 -17.916 -24.734  0.00  0.00    +0.195 C 
ENDROOT
BRANCH   7  12
ATOM     10  N   UNL     1      35.131 -19.822 -20.744  0.00  0.00    -0.208 N 
ATOM     11  N   UNL     1      36.355 -19.272 -20.654  0.00  0.00    -0.176 NA
ATOM     12  C   UNL     1      35.129 -18.319 -22.329  0.00  0.00    +0.064 C 
ATOM     13  C   UNL     1      34.358 -19.286 -21.732  0.00  0.00    +0.088 C 
ATOM     14  C   UNL     1      36.347 -18.354 -21.625  0.00  0.00    +0.121 C 
BRANCH  10  15
ATOM     15  C   UNL     1      34.754 -20.882 -19.840  0.00  0.00    +0.148 C 
BRANCH  15  16
ATOM     16  C   UNL     1      33.245 -21.075 -19.765  0.00  0.00    +0.161 C 
BRANCH  16  17
ATOM     17  O   UNL     1      32.953 -22.344 -19.194  0.00  0.00    -0.380 OA
ATOM     18  H   UNL     1      32.271 -22.242 -18.513  0.00  0.00    +0.211 HD
ENDBRANCH  16  17
ENDBRANCH  15  16
ENDBRANCH  10  15
ENDBRANCH   7  12
BRANCH   1  19
ATOM     19  C   UNL     1      32.609 -13.589 -23.204  0.00  0.00    +0.145 C 
BRANCH  19  21
ATOM     20  N   UNL     1      34.272  -8.242 -24.018  0.00  0.00    -0.244 NA
ATOM     21  C   UNL     1      33.041 -12.177 -23.411  0.00  0.00    -0.000 C 
ATOM     22  C   UNL     1      32.391 -11.141 -22.746  0.00  0.00    -0.001 C 
ATOM     23  C   UNL     1      32.794  -9.809 -22.939  0.00  0.00    +0.017 C 
ATOM     24  C   UNL     1      34.094 -11.887 -24.271  0.00  0.00    -0.001 C 
ATOM     25  C   UNL     1      33.862  -9.507 -23.810  0.00  0.00    +0.081 C 
ATOM     26  C   UNL     1      34.494 -10.562 -24.462  0.00  0.00    +0.019 C 
ATOM     27  C   UNL     1      32.157  -8.748 -22.282  0.00  0.00    +0.003 C 
ATOM     28  C   UNL     1      32.579  -7.442 -22.495  0.00  0.00    +0.021 C 
ATOM     29  C   UNL     1      33.632  -7.246 -23.364  0.00  0.00    +0.099 C 
ENDBRANCH  19  21
ENDBRANCH   1  19
TORSDOF 6
ENDMDL
MODEL 6
REMARK VINA RESULT:     -10.6      1.368      1.884
REMARK  Name = 17754438
REMARK  6 active torsions:
REMARK  status: ('A' for Active; 'I' for Inactive)
REMARK    1  A    between atoms: N_1  and  C_19
REMARK    2  A    between atoms: C_7  and  C_12
REMARK    3  A    between atoms: N_10  and  C_15
REMARK    4  A    between atoms: C_15  and  C_16
REMARK    5  A    between atoms: C_16  and  O_17
REMARK    6  A    between atoms: C_19  and  C_21
REMARK                            x       y       z     vdW  Elec       q    Type
REMARK                         _______ _______ _______ _____ _____    ______ ____
ROOT
ATOM      1  N   UNL     1      34.629 -16.408 -23.002  0.00  0.00    -0.163 N 
ATOM      2  N   UNL     1      34.048 -14.044 -23.214  0.00  0.00    -0.378 NA
ATOM      3  N   UNL     1      34.592 -17.493 -23.802  0.00  0.00    -0.033 NA
ATOM      4  N   UNL     1      33.342 -14.960 -25.870  0.00  0.00    -0.208 NA
ATOM      5  N   UNL     1      34.107 -17.111 -24.984  0.00  0.00    -0.086 NA
ATOM      6  C   UNL     1      34.171 -15.306 -23.651  0.00  0.00    +0.267 C 
ATOM      7  C   UNL     1      33.547 -13.242 -24.180  0.00  0.00    +0.140 C 
ATOM      8  C   UNL     1      33.844 -15.774 -24.910  0.00  0.00    +0.098 C 
ATOM      9  C   UNL     1      33.208 -13.680 -25.453  0.00  0.00    +0.195 C 
ENDROOT
BRANCH   7  12
ATOM     10  N   UNL     1      32.598 -10.062 -22.860  0.00  0.00    -0.208 N 
ATOM     11  N   UNL     1      33.575  -9.595 -23.656  0.00  0.00    -0.176 NA
ATOM     12  C   UNL     1      33.373 -11.865 -23.819  0.00  0.00    +0.064 C 
ATOM     13  C   UNL     1      32.436 -11.415 -22.920  0.00  0.00    +0.088 C 
ATOM     14  C   UNL     1      34.044 -10.701 -24.240  0.00  0.00    +0.121 C 
BRANCH  10  15
ATOM     15  C   UNL     1      31.839  -9.144 -22.044  0.00  0.00    +0.148 C 
BRANCH  15  16
ATOM     16  C   UNL     1      32.728  -8.211 -21.233  0.00  0.00    +0.161 C 
BRANCH  16  17
ATOM     17  O   UNL     1      32.713  -8.602 -19.866  0.00  0.00    -0.380 OA
ATOM     18  H   UNL     1      31.862  -8.360 -19.470  0.00  0.00    +0.211 HD
ENDBRANCH  16  17
ENDBRANCH  15  16
ENDBRANCH  10  15
ENDBRANCH   7  12
BRANCH   1  19
ATOM     19  C   UNL     1      35.121 -16.513 -21.624  0.00  0.00    +0.145 C 
BRANCH  19  21
ATOM     20  N   UNL     1      35.606 -21.896 -19.949  0.00  0.00    -0.244 NA
ATOM     21  C   UNL     1      35.238 -17.932 -21.182  0.00  0.00    -0.000 C 
ATOM     22  C   UNL     1      34.104 -18.643 -20.800  0.00  0.00    -0.001 C 
ATOM     23  C   UNL     1      34.211 -19.981 -20.382  0.00  0.00    +0.017 C 
ATOM     24  C   UNL     1      36.481 -18.553 -21.148  0.00  0.00    -0.001 C 
ATOM     25  C   UNL     1      35.469 -20.616 -20.345  0.00  0.00    +0.081 C 
ATOM     26  C   UNL     1      36.587 -19.882 -20.732  0.00  0.00    +0.019 C 
ATOM     27  C   UNL     1      33.085 -20.719 -19.992  0.00  0.00    +0.003 C 
ATOM     28  C   UNL     1      33.224 -22.038 -19.584  0.00  0.00    +0.021 C 
ATOM     29  C   UNL     1      34.495 -22.574 -19.581  0.00  0.00    +0.099 C 
ENDBRANCH  19  21
ENDBRANCH   1  19
TORSDOF 6
ENDMDL
MODEL 7
REMARK VINA RESULT:     -10.5      4.187      9.885
REMARK  Name = 17754438
REMARK  6 active torsions:
REMARK  status: ('A' for Active; 'I' for Inactive)
REMARK    1  A    between atoms: N_1  and  C_19
REMARK    2  A    between atoms: C_7  and  C_12
REMARK    3  A    between atoms: N_10  and  C_15
REMARK    4  A    between atoms: C_15  and  C_16
REMARK    5  A    between atoms: C_16  and  O_17
REMARK    6  A    between atoms: C_19  and  C_21
REMARK                            x       y       z     vdW  Elec       q    Type
REMARK                         _______ _______ _______ _____ _____    ______ ____
ROOT
ATOM      1  N   UNL     1      34.310 -21.211 -19.852  0.00  0.00    -0.163 N 
ATOM      2  N   UNL     1      32.901 -22.256 -18.152  0.00  0.00    -0.378 NA
ATOM      3  N   UNL     1      35.634 -21.054 -20.054  0.00  0.00    -0.033 NA
ATOM      4  N   UNL     1      35.514 -22.835 -17.044  0.00  0.00    -0.208 NA
ATOM      5  N   UNL     1      36.272 -21.635 -19.038  0.00  0.00    -0.086 NA
ATOM      6  C   UNL     1      34.069 -21.896 -18.704  0.00  0.00    +0.267 C 
ATOM      7  C   UNL     1      33.098 -22.933 -16.997  0.00  0.00    +0.140 C 
ATOM      8  C   UNL     1      35.330 -22.156 -18.202  0.00  0.00    +0.098 C 
ATOM      9  C   UNL     1      34.350 -23.210 -16.466  0.00  0.00    +0.195 C 
ENDROOT
BRANCH   7  12
ATOM     10  N   UNL     1      29.808 -23.593 -15.774  0.00  0.00    -0.208 N 
ATOM     11  N   UNL     1      30.444 -24.392 -14.899  0.00  0.00    -0.176 NA
ATOM     12  C   UNL     1      31.911 -23.368 -16.320  0.00  0.00    +0.064 C 
ATOM     13  C   UNL     1      30.641 -22.957 -16.646  0.00  0.00    +0.088 C 
ATOM     14  C   UNL     1      31.728 -24.250 -15.238  0.00  0.00    +0.121 C 
BRANCH  10  15
ATOM     15  C   UNL     1      28.370 -23.480 -15.726  0.00  0.00    +0.148 C 
BRANCH  15  16
ATOM     16  C   UNL     1      27.826 -22.506 -16.762  0.00  0.00    +0.161 C 
BRANCH  16  17
ATOM     17  O   UNL     1      27.315 -23.226 -17.876  0.00  0.00    -0.380 OA
ATOM     18  H   UNL     1      27.925 -23.946 -18.102  0.00  0.00    +0.211 HD
ENDBRANCH  16  17
ENDBRANCH  15  16
ENDBRANCH  10  15
ENDBRANCH   7  12
BRANCH   1  19
ATOM     19  C   UNL     1      33.339 -20.673 -20.811  0.00  0.00    +0.145 C 
BRANCH  19  21
ATOM     20  N   UNL     1      35.082 -15.782 -23.061  0.00  0.00    -0.244 NA
ATOM     21  C   UNL     1      33.794 -19.379 -21.396  0.00  0.00    -0.000 C 
ATOM     22  C   UNL     1      33.367 -18.173 -20.847  0.00  0.00    -0.001 C 
ATOM     23  C   UNL     1      33.793 -16.952 -21.396  0.00  0.00    +0.017 C 
ATOM     24  C   UNL     1      34.645 -19.369 -22.495  0.00  0.00    -0.001 C 
ATOM     25  C   UNL     1      34.657 -16.934 -22.510  0.00  0.00    +0.081 C 
ATOM     26  C   UNL     1      35.068 -18.155 -23.040  0.00  0.00    +0.019 C 
ATOM     27  C   UNL     1      33.378 -15.724 -20.862  0.00  0.00    +0.003 C 
ATOM     28  C   UNL     1      33.816 -14.534 -21.427  0.00  0.00    +0.021 C 
ATOM     29  C   UNL     1      34.660 -14.618 -22.515  0.00  0.00    +0.099 C 
ENDBRANCH  19  21
ENDBRANCH   1  19
TORSDOF 6
ENDMDL
MODEL 8
REMARK VINA RESULT:     -10.2      3.728      7.830
REMARK  Name = 17754438
REMARK  6 active torsions:
REMARK  status: ('A' for Active; 'I' for Inactive)
REMARK    1  A    between atoms: N_1  and  C_19
REMARK    2  A    between atoms: C_7  and  C_12
REMARK    3  A    between atoms: N_10  and  C_15
REMARK    4  A    between atoms: C_15  and  C_16
REMARK    5  A    between atoms: C_16  and  O_17
REMARK    6  A    between atoms: C_19  and  C_21
REMARK                            x       y       z     vdW  Elec       q    Type
REMARK                         _______ _______ _______ _____ _____    ______ ____
ROOT
ATOM      1  N   UNL     1      31.555 -10.530 -20.844  0.00  0.00    -0.163 N 
ATOM      2  N   UNL     1      31.705  -8.544 -22.260  0.00  0.00    -0.378 NA
ATOM      3  N   UNL     1      31.826 -10.828 -19.558  0.00  0.00    -0.033 NA
ATOM      4  N   UNL     1      32.688  -7.442 -19.767  0.00  0.00    -0.208 NA
ATOM      5  N   UNL     1      32.286  -9.723 -18.972  0.00  0.00    -0.086 NA
ATOM      6  C   UNL     1      31.835  -9.228 -21.113  0.00  0.00    +0.267 C 
ATOM      7  C   UNL     1      32.097  -7.258 -22.105  0.00  0.00    +0.140 C 
ATOM      8  C   UNL     1      32.299  -8.732 -19.909  0.00  0.00    +0.098 C 
ATOM      9  C   UNL     1      32.567  -6.730 -20.911  0.00  0.00    +0.195 C 
ENDROOT
BRANCH   7  12
ATOM     10  N   UNL     1      32.493  -5.475 -25.174  0.00  0.00    -0.208 N 
ATOM     11  N   UNL     1      31.290  -4.960 -24.870  0.00  0.00    -0.176 NA
ATOM     12  C   UNL     1      32.000  -6.432 -23.274  0.00  0.00    +0.064 C 
ATOM     13  C   UNL     1      32.964  -6.362 -24.251  0.00  0.00    +0.088 C 
ATOM     14  C   UNL     1      30.994  -5.549 -23.708  0.00  0.00    +0.121 C 
BRANCH  10  15
ATOM     15  C   UNL     1      33.157  -5.074 -26.392  0.00  0.00    +0.148 C 
BRANCH  15  16
ATOM     16  C   UNL     1      32.592  -3.782 -26.966  0.00  0.00    +0.161 C 
BRANCH  16  17
ATOM     17  O   UNL     1      32.735  -2.733 -26.017  0.00  0.00    -0.380 OA
ATOM     18  H   UNL     1      31.879  -2.294 -25.888  0.00  0.00    +0.211 HD
ENDBRANCH  16  17
ENDBRANCH  15  16
ENDBRANCH  10  15
ENDBRANCH   7  12
BRANCH   1  19
ATOM     19  C   UNL     1      31.027 -11.553 -21.754  0.00  0.00    +0.145 C 
BRANCH  19  21
ATOM     20  N   UNL     1      34.986 -15.334 -23.186  0.00  0.00    -0.244 NA
ATOM     21  C   UNL     1      32.067 -12.556 -22.124  0.00  0.00    -0.000 C 
ATOM     22  C   UNL     1      32.240 -13.702 -21.353  0.00  0.00    -0.001 C 
ATOM     23  C   UNL     1      33.220 -14.649 -21.699  0.00  0.00    +0.017 C 
ATOM     24  C   UNL     1      32.871 -12.350 -23.238  0.00  0.00    -0.001 C 
ATOM     25  C   UNL     1      34.038 -14.447 -22.828  0.00  0.00    +0.081 C 
ATOM     26  C   UNL     1      33.844 -13.292 -23.581  0.00  0.00    +0.019 C 
ATOM     27  C   UNL     1      33.414 -15.812 -20.941  0.00  0.00    +0.003 C 
ATOM     28  C   UNL     1      34.390 -16.728 -21.307  0.00  0.00    +0.021 C 
ATOM     29  C   UNL     1      35.142 -16.444 -22.428  0.00  0.00    +0.099 C 
ENDBRANCH  19  21
ENDBRANCH   1  19
TORSDOF 6
ENDMDL
MODEL 9
REMARK VINA RESULT:      -9.9      3.869      6.885
REMARK  Name = 17754438
REMARK  6 active torsions:
REMARK  status: ('A' for Active; 'I' for Inactive)
REMARK    1  A    between atoms: N_1  and  C_19
REMARK    2  A    between atoms: C_7  and  C_12
REMARK    3  A    between atoms: N_10  and  C_15
REMARK    4  A    between atoms: C_15  and  C_16
REMARK    5  A    between atoms: C_16  and  O_17
REMARK    6  A    between atoms: C_19  and  C_21
REMARK                            x       y       z     vdW  Elec       q    Type
REMARK                         _______ _______ _______ _____ _____    ______ ____
ROOT
ATOM      1  N   UNL     1      35.387 -22.015 -18.314  0.00  0.00    -0.163 N 
ATOM      2  N   UNL     1      35.232 -20.114 -19.842  0.00  0.00    -0.378 NA
ATOM      3  N   UNL     1      34.602 -23.059 -17.981  0.00  0.00    -0.033 NA
ATOM      4  N   UNL     1      32.677 -21.373 -20.369  0.00  0.00    -0.208 NA
ATOM      5  N   UNL     1      33.481 -22.970 -18.696  0.00  0.00    -0.086 NA
ATOM      6  C   UNL     1      34.789 -21.233 -19.251  0.00  0.00    +0.267 C 
ATOM      7  C   UNL     1      34.325 -19.639 -20.726  0.00  0.00    +0.140 C 
ATOM      8  C   UNL     1      33.578 -21.858 -19.480  0.00  0.00    +0.098 C 
ATOM      9  C   UNL     1      33.100 -20.242 -20.978  0.00  0.00    +0.195 C 
ENDROOT
BRANCH   7  12
ATOM     10  N   UNL     1      34.775 -16.341 -22.022  0.00  0.00    -0.208 N 
ATOM     11  N   UNL     1      35.677 -16.930 -22.826  0.00  0.00    -0.176 NA
ATOM     12  C   UNL     1      34.697 -18.439 -21.417  0.00  0.00    +0.064 C 
ATOM     13  C   UNL     1      34.160 -17.201 -21.160  0.00  0.00    +0.088 C 
ATOM     14  C   UNL     1      35.624 -18.212 -22.452  0.00  0.00    +0.121 C 
BRANCH  10  15
ATOM     15  C   UNL     1      34.542 -14.921 -22.126  0.00  0.00    +0.148 C 
BRANCH  15  16
ATOM     16  C   UNL     1      34.179 -14.491 -23.541  0.00  0.00    +0.161 C 
BRANCH  16  17
ATOM     17  O   UNL     1      33.613 -15.589 -24.245  0.00  0.00    -0.380 OA
ATOM     18  H   UNL     1      33.124 -15.261 -25.015  0.00  0.00    +0.211 HD
ENDBRANCH  16  17
ENDBRANCH  15  16
ENDBRANCH  10  15
ENDBRANCH   7  12
BRANCH   1  19
ATOM     19  C   UNL     1      36.702 -21.838 -17.688  0.00  0.00    +0.145 C 
BRANCH  19  21
ATOM     20  N   UNL     1      37.045 -24.598 -12.760  0.00  0.00    -0.244 NA
ATOM     21  C   UNL     1      36.802 -22.568 -16.392  0.00  0.00    -0.000 C 
ATOM     22  C   UNL     1      37.911 -23.365 -16.121  0.00  0.00    -0.001 C 
ATOM     23  C   UNL     1      38.008 -24.055 -14.900  0.00  0.00    +0.017 C 
ATOM     24  C   UNL     1      35.788 -22.459 -15.448  0.00  0.00    -0.001 C 
ATOM     25  C   UNL     1      36.983 -23.949 -13.938  0.00  0.00    +0.081 C 
ATOM     26  C   UNL     1      35.886 -23.145 -14.235  0.00  0.00    +0.019 C 
ATOM     27  C   UNL     1      39.113 -24.863 -14.602  0.00  0.00    +0.003 C 
ATOM     28  C   UNL     1      39.180 -25.533 -13.388  0.00  0.00    +0.021 C 
ATOM     29  C   UNL     1      38.129 -25.367 -12.510  0.00  0.00    +0.099 C 
ENDBRANCH  19  21
ENDBRANCH   1  19
TORSDOF 6
ENDMDL
