MODEL 1
REMARK VINA RESULT:      -8.9      0.000      0.000
REMARK  Name = 40466973
REMARK  11 active torsions:
REMARK  status: ('A' for Active; 'I' for Inactive)
REMARK    1  A    between atoms: N_1  and  C_7
REMARK    2  A    between atoms: N_1  and  C_21
REMARK    3  A    between atoms: N_6  and  C_17
REMARK    4  A    between atoms: C_10  and  C_13
REMARK    5  A    between atoms: C_17  and  C_20
REMARK    6  A    between atoms: C_21  and  C_23
REMARK    7  A    between atoms: C_21  and  C_27
REMARK    8  A    between atoms: C_23  and  O_24
REMARK    9  A    between atoms: O_24  and  C_25
REMARK   10  A    between atoms: C_27  and  C_28
REMARK   11  A    between atoms: C_28  and  C_29
REMARK                            x       y       z     vdW  Elec       q    Type
REMARK                         _______ _______ _______ _____ _____    ______ ____
ROOT
ATOM      1  N   UNL     1      33.467 -15.203 -23.360  0.00  0.00    +0.400 N 
ATOM      2  H   UNL     1      32.669 -15.523 -23.908  0.00  0.00    -0.083 HD
ATOM      3  H   UNL     1      33.468 -15.582 -22.414  0.00  0.00    -0.083 HD
ENDROOT
BRANCH   1   7
ATOM      4  S   UNL     1      33.825 -11.521 -24.918  0.00  0.00    -0.136 S 
ATOM      5  O   UNL     1      31.515 -14.228 -21.822  0.00  0.00    -0.277 OA
ATOM      6  N   UNL     1      32.223 -12.023 -21.835  0.00  0.00    -0.270 N 
ATOM      7  C   UNL     1      33.385 -13.709 -23.233  0.00  0.00    +0.029 C 
ATOM      8  C   UNL     1      33.069 -13.151 -24.619  0.00  0.00    +0.046 C 
ATOM      9  C   UNL     1      32.292 -13.359 -22.229  0.00  0.00    +0.207 C 
ATOM     10  C   UNL     1      32.945 -10.493 -23.671  0.00  0.00    +0.095 C 
ATOM     11  C   UNL     1      33.187 -10.994 -22.238  0.00  0.00    +0.110 C 
BRANCH  10  13
ATOM     12  S   UNL     1      32.170  -7.813 -23.820  0.00  0.00    -0.090 S 
ATOM     13  C   UNL     1      33.362  -9.042 -23.845  0.00  0.00    +0.019 C 
ATOM     14  C   UNL     1      34.628  -8.530 -24.031  0.00  0.00    +0.004 C 
ATOM     15  C   UNL     1      34.618  -7.111 -24.155  0.00  0.00    +0.007 C 
ATOM     16  C   UNL     1      33.346  -6.592 -24.059  0.00  0.00    +0.035 C 
ENDBRANCH  10  13
BRANCH   6  17
ATOM     17  C   UNL     1      31.130 -11.580 -20.978  0.00  0.00    +0.208 C 
BRANCH  17  20
ATOM     18  O   UNL     1      31.571  -9.308 -20.545  0.00  0.00    -0.244 OA
ATOM     19  O   UNL     1      31.854 -10.834 -18.866  0.00  0.00    -0.244 OA
ATOM     20  C   UNL     1      31.558 -10.463 -20.037  0.00  0.00    +0.385 C 
ENDBRANCH  17  20
ENDBRANCH   6  17
ENDBRANCH   1   7
BRANCH   1  21
ATOM     21  C   UNL     1      34.706 -15.678 -24.017  0.00  0.00    +0.041 C 
BRANCH  21  23
ATOM     22  O   UNL     1      33.744 -15.826 -26.243  0.00  0.00    -0.252 OA
ATOM     23  C   UNL     1      34.379 -16.349 -25.336  0.00  0.00    +0.297 C 
BRANCH  23  24
ATOM     24  O   UNL     1      34.932 -17.597 -25.369  0.00  0.00    -0.450 OA
BRANCH  24  25
ATOM     25  C   UNL     1      34.027 -18.681 -25.136  0.00  0.00    +0.208 C 
ATOM     26  C   UNL     1      34.781 -19.820 -24.483  0.00  0.00    +0.051 C 
ENDBRANCH  24  25
ENDBRANCH  23  24
ENDBRANCH  21  23
BRANCH  21  27
ATOM     27  C   UNL     1      35.517 -16.544 -23.042  0.00  0.00    -0.006 C 
BRANCH  27  28
ATOM     28  C   UNL     1      34.926 -16.763 -21.640  0.00  0.00    +0.025 C 
BRANCH  28  29
ATOM     29  C   UNL     1      34.925 -18.194 -21.167  0.00  0.00    -0.022 C 
ATOM     30  C   UNL     1      36.132 -18.844 -20.911  0.00  0.00    -0.004 C 
ATOM     31  C   UNL     1      33.718 -18.868 -20.985  0.00  0.00    -0.004 C 
ATOM     32  C   UNL     1      36.132 -20.168 -20.473  0.00  0.00    -0.000 C 
ATOM     33  C   UNL     1      33.717 -20.192 -20.547  0.00  0.00    -0.000 C 
ATOM     34  C   UNL     1      34.925 -20.843 -20.290  0.00  0.00    -0.000 C 
ENDBRANCH  28  29
ENDBRANCH  27  28
ENDBRANCH  21  27
ENDBRANCH   1  21
TORSDOF 11
ENDMDL
MODEL 2
REMARK VINA RESULT:      -8.5      3.003      9.887
REMARK  Name = 40466973
REMARK  11 active torsions:
REMARK  status: ('A' for Active; 'I' for Inactive)
REMARK    1  A    between atoms: N_1  and  C_7
REMARK    2  A    between atoms: N_1  and  C_21
REMARK    3  A    between atoms: N_6  and  C_17
REMARK    4  A    between atoms: C_10  and  C_13
REMARK    5  A    between atoms: C_17  and  C_20
REMARK    6  A    between atoms: C_21  and  C_23
REMARK    7  A    between atoms: C_21  and  C_27
REMARK    8  A    between atoms: C_23  and  O_24
REMARK    9  A    between atoms: O_24  and  C_25
REMARK   10  A    between atoms: C_27  and  C_28
REMARK   11  A    between atoms: C_28  and  C_29
REMARK                            x       y       z     vdW  Elec       q    Type
REMARK                         _______ _______ _______ _____ _____    ______ ____
ROOT
ATOM      1  N   UNL     1      31.899  -9.194 -21.977  0.00  0.00    +0.400 N 
ATOM      2  H   UNL     1      31.204  -9.391 -21.257  0.00  0.00    -0.083 HD
ATOM      3  H   UNL     1      31.491  -8.761 -22.805  0.00  0.00    -0.083 HD
ENDROOT
BRANCH   1   7
ATOM      4  S   UNL     1      32.212 -13.188 -21.720  0.00  0.00    -0.136 S 
ATOM      5  O   UNL     1      32.478  -9.439 -24.572  0.00  0.00    -0.277 OA
ATOM      6  N   UNL     1      33.634 -11.440 -24.412  0.00  0.00    -0.270 N 
ATOM      7  C   UNL     1      32.506 -10.495 -22.417  0.00  0.00    +0.029 C 
ATOM      8  C   UNL     1      31.467 -11.588 -22.171  0.00  0.00    +0.046 C 
ATOM      9  C   UNL     1      32.869 -10.394 -23.894  0.00  0.00    +0.207 C 
ATOM     10  C   UNL     1      33.122 -13.597 -23.266  0.00  0.00    +0.095 C 
ATOM     11  C   UNL     1      34.182 -12.537 -23.609  0.00  0.00    +0.110 C 
BRANCH  10  13
ATOM     12  S   UNL     1      34.026 -15.624 -21.567  0.00  0.00    -0.090 S 
ATOM     13  C   UNL     1      33.730 -14.984 -23.128  0.00  0.00    +0.019 C 
ATOM     14  C   UNL     1      34.103 -15.860 -24.124  0.00  0.00    +0.004 C 
ATOM     15  C   UNL     1      34.639 -17.071 -23.599  0.00  0.00    +0.007 C 
ATOM     16  C   UNL     1      34.655 -17.075 -22.222  0.00  0.00    +0.035 C 
ENDBRANCH  10  13
BRANCH   6  17
ATOM     17  C   UNL     1      33.918 -11.485 -25.842  0.00  0.00    +0.208 C 
BRANCH  17  20
ATOM     18  O   UNL     1      35.672 -11.024 -27.343  0.00  0.00    -0.244 OA
ATOM     19  O   UNL     1      35.690 -10.043 -25.278  0.00  0.00    -0.244 OA
ATOM     20  C   UNL     1      35.220 -10.780 -26.189  0.00  0.00    +0.385 C 
ENDBRANCH  17  20
ENDBRANCH   6  17
ENDBRANCH   1   7
BRANCH   1  21
ATOM     21  C   UNL     1      32.882  -8.234 -21.426  0.00  0.00    +0.041 C 
BRANCH  21  23
ATOM     22  O   UNL     1      32.888  -6.836 -19.439  0.00  0.00    -0.252 OA
ATOM     23  C   UNL     1      32.506  -7.850 -20.010  0.00  0.00    +0.297 C 
BRANCH  23  24
ATOM     24  O   UNL     1      31.651  -8.779 -19.490  0.00  0.00    -0.450 OA
BRANCH  24  25
ATOM     25  C   UNL     1      32.270  -9.909 -18.867  0.00  0.00    +0.208 C 
ATOM     26  C   UNL     1      31.235 -10.999 -18.682  0.00  0.00    +0.051 C 
ENDBRANCH  24  25
ENDBRANCH  23  24
ENDBRANCH  21  23
BRANCH  21  27
ATOM     27  C   UNL     1      33.051  -7.048 -22.387  0.00  0.00    -0.006 C 
BRANCH  27  28
ATOM     28  C   UNL     1      31.769  -6.401 -22.936  0.00  0.00    +0.025 C 
BRANCH  28  29
ATOM     29  C   UNL     1      31.964  -5.536 -24.154  0.00  0.00    -0.022 C 
ATOM     30  C   UNL     1      31.141  -4.430 -24.362  0.00  0.00    -0.004 C 
ATOM     31  C   UNL     1      32.968  -5.841 -25.073  0.00  0.00    -0.004 C 
ATOM     32  C   UNL     1      31.321  -3.629 -25.490  0.00  0.00    -0.000 C 
ATOM     33  C   UNL     1      33.149  -5.040 -26.200  0.00  0.00    -0.000 C 
ATOM     34  C   UNL     1      32.325  -3.933 -26.409  0.00  0.00    -0.000 C 
ENDBRANCH  28  29
ENDBRANCH  27  28
ENDBRANCH  21  27
ENDBRANCH   1  21
TORSDOF 11
ENDMDL
MODEL 3
REMARK VINA RESULT:      -8.5      2.911      9.722
REMARK  Name = 40466973
REMARK  11 active torsions:
REMARK  status: ('A' for Active; 'I' for Inactive)
REMARK    1  A    between atoms: N_1  and  C_7
REMARK    2  A    between atoms: N_1  and  C_21
REMARK    3  A    between atoms: N_6  and  C_17
REMARK    4  A    between atoms: C_10  and  C_13
REMARK    5  A    between atoms: C_17  and  C_20
REMARK    6  A    between atoms: C_21  and  C_23
REMARK    7  A    between atoms: C_21  and  C_27
REMARK    8  A    between atoms: C_23  and  O_24
REMARK    9  A    between atoms: O_24  and  C_25
REMARK   10  A    between atoms: C_27  and  C_28
REMARK   11  A    between atoms: C_28  and  C_29
REMARK                            x       y       z     vdW  Elec       q    Type
REMARK                         _______ _______ _______ _____ _____    ______ ____
ROOT
ATOM      1  N   UNL     1      31.249  -9.865 -22.307  0.00  0.00    +0.400 N 
ATOM      2  H   UNL     1      31.196  -9.709 -21.301  0.00  0.00    -0.083 HD
ATOM      3  H   UNL     1      30.335  -9.830 -22.757  0.00  0.00    -0.083 HD
ENDROOT
BRANCH   1   7
ATOM      4  S   UNL     1      33.510 -12.428 -24.413  0.00  0.00    -0.136 S 
ATOM      5  O   UNL     1      31.832 -11.320 -20.146  0.00  0.00    -0.277 OA
ATOM      6  N   UNL     1      32.258 -13.308 -21.253  0.00  0.00    -0.270 N 
ATOM      7  C   UNL     1      31.801 -11.241 -22.543  0.00  0.00    +0.029 C 
ATOM      8  C   UNL     1      33.148 -11.077 -23.246  0.00  0.00    +0.046 C 
ATOM      9  C   UNL     1      31.955 -11.947 -21.201  0.00  0.00    +0.207 C 
ATOM     10  C   UNL     1      33.632 -13.859 -23.264  0.00  0.00    +0.095 C 
ATOM     11  C   UNL     1      32.323 -14.092 -22.491  0.00  0.00    +0.110 C 
BRANCH  10  13
ATOM     12  S   UNL     1      33.398 -15.359 -25.610  0.00  0.00    -0.090 S 
ATOM     13  C   UNL     1      34.053 -15.090 -24.051  0.00  0.00    +0.019 C 
ATOM     14  C   UNL     1      34.933 -16.084 -23.682  0.00  0.00    +0.004 C 
ATOM     15  C   UNL     1      35.072 -17.078 -24.693  0.00  0.00    +0.007 C 
ATOM     16  C   UNL     1      34.292 -16.807 -25.795  0.00  0.00    +0.035 C 
ENDBRANCH  10  13
BRANCH   6  17
ATOM     17  C   UNL     1      32.546 -14.030 -20.020  0.00  0.00    +0.208 C 
BRANCH  17  20
ATOM     18  O   UNL     1      34.567 -15.228 -20.177  0.00  0.00    -0.244 OA
ATOM     19  O   UNL     1      32.595 -16.319 -20.565  0.00  0.00    -0.244 OA
ATOM     20  C   UNL     1      33.312 -15.320 -20.277  0.00  0.00    +0.385 C 
ENDBRANCH  17  20
ENDBRANCH   6  17
ENDBRANCH   1   7
BRANCH   1  21
ATOM     21  C   UNL     1      32.067  -8.785 -22.904  0.00  0.00    +0.041 C 
BRANCH  21  23
ATOM     22  O   UNL     1      32.799  -8.315 -20.636  0.00  0.00    -0.252 OA
ATOM     23  C   UNL     1      32.901  -8.104 -21.838  0.00  0.00    +0.297 C 
BRANCH  23  24
ATOM     24  O   UNL     1      33.801  -7.260 -22.424  0.00  0.00    -0.450 OA
BRANCH  24  25
ATOM     25  C   UNL     1      34.604  -7.835 -23.459  0.00  0.00    +0.208 C 
ATOM     26  C   UNL     1      34.698  -6.858 -24.611  0.00  0.00    +0.051 C 
ENDBRANCH  24  25
ENDBRANCH  23  24
ENDBRANCH  21  23
BRANCH  21  27
ATOM     27  C   UNL     1      31.171  -7.838 -23.717  0.00  0.00    -0.006 C 
BRANCH  27  28
ATOM     28  C   UNL     1      30.709  -6.545 -23.027  0.00  0.00    +0.025 C 
BRANCH  28  29
ATOM     29  C   UNL     1      31.151  -5.272 -23.701  0.00  0.00    -0.022 C 
ATOM     30  C   UNL     1      31.562  -5.296 -25.034  0.00  0.00    -0.004 C 
ATOM     31  C   UNL     1      31.149  -4.070 -22.993  0.00  0.00    -0.004 C 
ATOM     32  C   UNL     1      31.972  -4.117 -25.658  0.00  0.00    -0.000 C 
ATOM     33  C   UNL     1      31.558  -2.892 -23.618  0.00  0.00    -0.000 C 
ATOM     34  C   UNL     1      31.970  -2.915 -24.951  0.00  0.00    -0.000 C 
ENDBRANCH  28  29
ENDBRANCH  27  28
ENDBRANCH  21  27
ENDBRANCH   1  21
TORSDOF 11
ENDMDL
MODEL 4
REMARK VINA RESULT:      -8.4      3.517      6.768
REMARK  Name = 40466973
REMARK  11 active torsions:
REMARK  status: ('A' for Active; 'I' for Inactive)
REMARK    1  A    between atoms: N_1  and  C_7
REMARK    2  A    between atoms: N_1  and  C_21
REMARK    3  A    between atoms: N_6  and  C_17
REMARK    4  A    between atoms: C_10  and  C_13
REMARK    5  A    between atoms: C_17  and  C_20
REMARK    6  A    between atoms: C_21  and  C_23
REMARK    7  A    between atoms: C_21  and  C_27
REMARK    8  A    between atoms: C_23  and  O_24
REMARK    9  A    between atoms: O_24  and  C_25
REMARK   10  A    between atoms: C_27  and  C_28
REMARK   11  A    between atoms: C_28  and  C_29
REMARK                            x       y       z     vdW  Elec       q    Type
REMARK                         _______ _______ _______ _____ _____    ______ ____
ROOT
ATOM      1  N   UNL     1      35.094 -19.939 -21.549  0.00  0.00    +0.400 N 
ATOM      2  H   UNL     1      36.063 -20.015 -21.857  0.00  0.00    -0.083 HD
ATOM      3  H   UNL     1      34.482 -20.605 -22.020  0.00  0.00    -0.083 HD
ENDROOT
BRANCH   1   7
ATOM      4  S   UNL     1      34.181 -16.171 -20.509  0.00  0.00    -0.136 S 
ATOM      5  O   UNL     1      35.745 -18.986 -23.957  0.00  0.00    -0.277 OA
ATOM      6  N   UNL     1      34.397 -17.105 -23.886  0.00  0.00    -0.270 N 
ATOM      7  C   UNL     1      34.594 -18.566 -21.894  0.00  0.00    +0.029 C 
ATOM      8  C   UNL     1      35.251 -17.586 -20.924  0.00  0.00    +0.046 C 
ATOM      9  C   UNL     1      34.966 -18.254 -23.339  0.00  0.00    +0.207 C 
ATOM     10  C   UNL     1      34.038 -15.349 -22.148  0.00  0.00    +0.095 C 
ATOM     11  C   UNL     1      33.403 -16.270 -23.202  0.00  0.00    +0.110 C 
BRANCH  10  13
ATOM     12  S   UNL     1      33.201 -12.935 -23.279  0.00  0.00    -0.090 S 
ATOM     13  C   UNL     1      33.261 -14.052 -21.984  0.00  0.00    +0.019 C 
ATOM     14  C   UNL     1      32.554 -13.610 -20.887  0.00  0.00    +0.004 C 
ATOM     15  C   UNL     1      31.956 -12.337 -21.114  0.00  0.00    +0.007 C 
ATOM     16  C   UNL     1      32.229 -11.855 -22.375  0.00  0.00    +0.035 C 
ENDBRANCH  10  13
BRANCH   6  17
ATOM     17  C   UNL     1      34.798 -16.665 -25.217  0.00  0.00    +0.208 C 
BRANCH  17  20
ATOM     18  O   UNL     1      32.752 -17.127 -26.287  0.00  0.00    -0.244 OA
ATOM     19  O   UNL     1      33.630 -15.021 -26.429  0.00  0.00    -0.244 OA
ATOM     20  C   UNL     1      33.608 -16.228 -26.059  0.00  0.00    +0.385 C 
ENDBRANCH  17  20
ENDBRANCH   6  17
ENDBRANCH   1   7
BRANCH   1  21
ATOM     21  C   UNL     1      35.038 -20.249 -20.103  0.00  0.00    +0.041 C 
BRANCH  21  23
ATOM     22  O   UNL     1      37.034 -21.593 -20.439  0.00  0.00    -0.252 OA
ATOM     23  C   UNL     1      36.284 -20.997 -19.676  0.00  0.00    +0.297 C 
BRANCH  23  24
ATOM     24  O   UNL     1      36.461 -20.870 -18.327  0.00  0.00    -0.450 OA
BRANCH  24  25
ATOM     25  C   UNL     1      37.130 -21.960 -17.686  0.00  0.00    +0.208 C 
ATOM     26  C   UNL     1      37.192 -21.694 -16.197  0.00  0.00    +0.051 C 
ENDBRANCH  24  25
ENDBRANCH  23  24
ENDBRANCH  21  23
BRANCH  21  27
ATOM     27  C   UNL     1      33.719 -20.960 -19.770  0.00  0.00    -0.006 C 
BRANCH  27  28
ATOM     28  C   UNL     1      33.804 -22.435 -19.345  0.00  0.00    +0.025 C 
BRANCH  28  29
ATOM     29  C   UNL     1      33.252 -22.735 -17.976  0.00  0.00    -0.022 C 
ATOM     30  C   UNL     1      31.906 -22.496 -17.699  0.00  0.00    -0.004 C 
ATOM     31  C   UNL     1      34.086 -23.252 -16.985  0.00  0.00    -0.004 C 
ATOM     32  C   UNL     1      31.395 -22.774 -16.431  0.00  0.00    -0.000 C 
ATOM     33  C   UNL     1      33.575 -23.530 -15.718  0.00  0.00    -0.000 C 
ATOM     34  C   UNL     1      32.229 -23.291 -15.440  0.00  0.00    -0.000 C 
ENDBRANCH  28  29
ENDBRANCH  27  28
ENDBRANCH  21  27
ENDBRANCH   1  21
TORSDOF 11
ENDMDL
MODEL 5
REMARK VINA RESULT:      -8.3      2.912      9.697
REMARK  Name = 40466973
REMARK  11 active torsions:
REMARK  status: ('A' for Active; 'I' for Inactive)
REMARK    1  A    between atoms: N_1  and  C_7
REMARK    2  A    between atoms: N_1  and  C_21
REMARK    3  A    between atoms: N_6  and  C_17
REMARK    4  A    between atoms: C_10  and  C_13
REMARK    5  A    between atoms: C_17  and  C_20
REMARK    6  A    between atoms: C_21  and  C_23
REMARK    7  A    between atoms: C_21  and  C_27
REMARK    8  A    between atoms: C_23  and  O_24
REMARK    9  A    between atoms: O_24  and  C_25
REMARK   10  A    between atoms: C_27  and  C_28
REMARK   11  A    between atoms: C_28  and  C_29
REMARK                            x       y       z     vdW  Elec       q    Type
REMARK                         _______ _______ _______ _____ _____    ______ ____
ROOT
ATOM      1  N   UNL     1      31.494 -10.080 -22.454  0.00  0.00    +0.400 N 
ATOM      2  H   UNL     1      30.967 -10.053 -21.582  0.00  0.00    -0.083 HD
ATOM      3  H   UNL     1      30.924  -9.831 -23.262  0.00  0.00    -0.083 HD
ENDROOT
BRANCH   1   7
ATOM      4  S   UNL     1      33.657 -12.772 -24.501  0.00  0.00    -0.136 S 
ATOM      5  O   UNL     1      31.949 -11.554 -20.275  0.00  0.00    -0.277 OA
ATOM      6  N   UNL     1      32.290 -13.568 -21.367  0.00  0.00    -0.270 N 
ATOM      7  C   UNL     1      31.975 -11.486 -22.674  0.00  0.00    +0.029 C 
ATOM      8  C   UNL     1      33.344 -11.398 -23.347  0.00  0.00    +0.046 C 
ATOM      9  C   UNL     1      32.061 -12.193 -21.326  0.00  0.00    +0.207 C 
ATOM     10  C   UNL     1      33.676 -14.203 -23.344  0.00  0.00    +0.095 C 
ATOM     11  C   UNL     1      32.339 -14.360 -22.600  0.00  0.00    +0.110 C 
BRANCH  10  13
ATOM     12  S   UNL     1      35.076 -16.620 -23.396  0.00  0.00    -0.090 S 
ATOM     13  C   UNL     1      34.046 -15.458 -24.118  0.00  0.00    +0.019 C 
ATOM     14  C   UNL     1      33.660 -15.828 -25.387  0.00  0.00    +0.004 C 
ATOM     15  C   UNL     1      34.216 -17.082 -25.772  0.00  0.00    +0.007 C 
ATOM     16  C   UNL     1      35.007 -17.622 -24.782  0.00  0.00    +0.035 C 
ENDBRANCH  10  13
BRANCH   6  17
ATOM     17  C   UNL     1      32.512 -14.299 -20.125  0.00  0.00    +0.208 C 
BRANCH  17  20
ATOM     18  O   UNL     1      32.925 -16.571 -20.584  0.00  0.00    -0.244 OA
ATOM     19  O   UNL     1      34.692 -15.183 -20.159  0.00  0.00    -0.244 OA
ATOM     20  C   UNL     1      33.471 -15.465 -20.310  0.00  0.00    +0.385 C 
ENDBRANCH  17  20
ENDBRANCH   6  17
ENDBRANCH   1   7
BRANCH   1  21
ATOM     21  C   UNL     1      32.585  -9.083 -22.372  0.00  0.00    +0.041 C 
BRANCH  21  23
ATOM     22  O   UNL     1      32.962  -8.105 -20.180  0.00  0.00    -0.252 OA
ATOM     23  C   UNL     1      32.333  -8.119 -21.231  0.00  0.00    +0.297 C 
BRANCH  23  24
ATOM     24  O   UNL     1      31.334  -7.251 -21.571  0.00  0.00    -0.450 OA
BRANCH  24  25
ATOM     25  C   UNL     1      31.605  -5.869 -21.319  0.00  0.00    +0.208 C 
ATOM     26  C   UNL     1      30.452  -5.038 -21.843  0.00  0.00    +0.051 C 
ENDBRANCH  24  25
ENDBRANCH  23  24
ENDBRANCH  21  23
BRANCH  21  27
ATOM     27  C   UNL     1      32.789  -8.416 -23.740  0.00  0.00    -0.006 C 
BRANCH  27  28
ATOM     28  C   UNL     1      33.928  -7.390 -23.858  0.00  0.00    +0.025 C 
BRANCH  28  29
ATOM     29  C   UNL     1      33.711  -6.316 -24.892  0.00  0.00    -0.022 C 
ATOM     30  C   UNL     1      32.513  -5.602 -24.916  0.00  0.00    -0.004 C 
ATOM     31  C   UNL     1      34.709  -6.034 -25.825  0.00  0.00    -0.004 C 
ATOM     32  C   UNL     1      32.313  -4.608 -25.873  0.00  0.00    -0.000 C 
ATOM     33  C   UNL     1      34.509  -5.039 -26.782  0.00  0.00    -0.000 C 
ATOM     34  C   UNL     1      33.310  -4.325 -26.806  0.00  0.00    -0.000 C 
ENDBRANCH  28  29
ENDBRANCH  27  28
ENDBRANCH  21  27
ENDBRANCH   1  21
TORSDOF 11
ENDMDL
MODEL 6
REMARK VINA RESULT:      -8.2      9.448     13.932
REMARK  Name = 40466973
REMARK  11 active torsions:
REMARK  status: ('A' for Active; 'I' for Inactive)
REMARK    1  A    between atoms: N_1  and  C_7
REMARK    2  A    between atoms: N_1  and  C_21
REMARK    3  A    between atoms: N_6  and  C_17
REMARK    4  A    between atoms: C_10  and  C_13
REMARK    5  A    between atoms: C_17  and  C_20
REMARK    6  A    between atoms: C_21  and  C_23
REMARK    7  A    between atoms: C_21  and  C_27
REMARK    8  A    between atoms: C_23  and  O_24
REMARK    9  A    between atoms: O_24  and  C_25
REMARK   10  A    between atoms: C_27  and  C_28
REMARK   11  A    between atoms: C_28  and  C_29
REMARK                            x       y       z     vdW  Elec       q    Type
REMARK                         _______ _______ _______ _____ _____    ______ ____
ROOT
ATOM      1  N   UNL     1      32.852 -22.547 -15.112  0.00  0.00    +0.400 N 
ATOM      2  H   UNL     1      33.007 -21.543 -15.017  0.00  0.00    -0.083 HD
ATOM      3  H   UNL     1      32.152 -22.897 -14.459  0.00  0.00    -0.083 HD
ENDROOT
BRANCH   1   7
ATOM      4  S   UNL     1      36.787 -23.100 -15.681  0.00  0.00    -0.136 S 
ATOM      5  O   UNL     1      33.243 -23.268 -12.572  0.00  0.00    -0.277 OA
ATOM      6  N   UNL     1      35.145 -24.539 -12.932  0.00  0.00    -0.270 N 
ATOM      7  C   UNL     1      34.137 -23.256 -14.798  0.00  0.00    +0.029 C 
ATOM      8  C   UNL     1      35.277 -22.278 -15.079  0.00  0.00    +0.046 C 
ATOM      9  C   UNL     1      34.119 -23.685 -13.336  0.00  0.00    +0.207 C 
ATOM     10  C   UNL     1      37.245 -24.109 -14.213  0.00  0.00    +0.095 C 
ATOM     11  C   UNL     1      36.143 -25.115 -13.839  0.00  0.00    +0.110 C 
BRANCH  10  13
ATOM     12  S   UNL     1      39.218 -25.872 -13.316  0.00  0.00    -0.090 S 
ATOM     13  C   UNL     1      38.574 -24.796 -14.482  0.00  0.00    +0.019 C 
ATOM     14  C   UNL     1      39.392 -24.679 -15.585  0.00  0.00    +0.004 C 
ATOM     15  C   UNL     1      40.562 -25.484 -15.471  0.00  0.00    +0.007 C 
ATOM     16  C   UNL     1      40.594 -26.185 -14.285  0.00  0.00    +0.035 C 
ENDBRANCH  10  13
BRANCH   6  17
ATOM     17  C   UNL     1      35.275 -24.896 -11.524  0.00  0.00    +0.208 C 
BRANCH  17  20
ATOM     18  O   UNL     1      36.223 -24.113  -9.516  0.00  0.00    -0.244 OA
ATOM     19  O   UNL     1      36.636 -22.977 -11.457  0.00  0.00    -0.244 OA
ATOM     20  C   UNL     1      36.130 -23.899 -10.757  0.00  0.00    +0.385 C 
ENDBRANCH  17  20
ENDBRANCH   6  17
ENDBRANCH   1   7
BRANCH   1  21
ATOM     21  C   UNL     1      32.342 -22.813 -16.477  0.00  0.00    +0.041 C 
BRANCH  21  23
ATOM     22  O   UNL     1      30.834 -24.639 -15.935  0.00  0.00    -0.252 OA
ATOM     23  C   UNL     1      31.005 -23.524 -16.410  0.00  0.00    +0.297 C 
BRANCH  23  24
ATOM     24  O   UNL     1      30.027 -22.717 -16.918  0.00  0.00    -0.450 OA
BRANCH  24  25
ATOM     25  C   UNL     1      28.695 -23.234 -16.834  0.00  0.00    +0.208 C 
ATOM     26  C   UNL     1      27.915 -22.425 -15.819  0.00  0.00    +0.051 C 
ENDBRANCH  24  25
ENDBRANCH  23  24
ENDBRANCH  21  23
BRANCH  21  27
ATOM     27  C   UNL     1      33.413 -23.540 -17.303  0.00  0.00    -0.006 C 
BRANCH  27  28
ATOM     28  C   UNL     1      33.324 -23.415 -18.832  0.00  0.00    +0.025 C 
BRANCH  28  29
ATOM     29  C   UNL     1      33.973 -22.184 -19.409  0.00  0.00    -0.022 C 
ATOM     30  C   UNL     1      35.361 -22.050 -19.381  0.00  0.00    -0.004 C 
ATOM     31  C   UNL     1      33.187 -21.178 -19.971  0.00  0.00    -0.004 C 
ATOM     32  C   UNL     1      35.963 -20.909 -19.914  0.00  0.00    -0.000 C 
ATOM     33  C   UNL     1      33.788 -20.039 -20.504  0.00  0.00    -0.000 C 
ATOM     34  C   UNL     1      35.177 -19.904 -20.476  0.00  0.00    -0.000 C 
ENDBRANCH  28  29
ENDBRANCH  27  28
ENDBRANCH  21  27
ENDBRANCH   1  21
TORSDOF 11
ENDMDL
MODEL 7
REMARK VINA RESULT:      -8.1      2.547      9.691
REMARK  Name = 40466973
REMARK  11 active torsions:
REMARK  status: ('A' for Active; 'I' for Inactive)
REMARK    1  A    between atoms: N_1  and  C_7
REMARK    2  A    between atoms: N_1  and  C_21
REMARK    3  A    between atoms: N_6  and  C_17
REMARK    4  A    between atoms: C_10  and  C_13
REMARK    5  A    between atoms: C_17  and  C_20
REMARK    6  A    between atoms: C_21  and  C_23
REMARK    7  A    between atoms: C_21  and  C_27
REMARK    8  A    between atoms: C_23  and  O_24
REMARK    9  A    between atoms: O_24  and  C_25
REMARK   10  A    between atoms: C_27  and  C_28
REMARK   11  A    between atoms: C_28  and  C_29
REMARK                            x       y       z     vdW  Elec       q    Type
REMARK                         _______ _______ _______ _____ _____    ______ ____
ROOT
ATOM      1  N   UNL     1      32.551  -9.365 -23.075  0.00  0.00    +0.400 N 
ATOM      2  H   UNL     1      31.540  -9.310 -22.956  0.00  0.00    -0.083 HD
ATOM      3  H   UNL     1      32.861  -8.979 -23.967  0.00  0.00    -0.083 HD
ENDROOT
BRANCH   1   7
ATOM      4  S   UNL     1      32.249 -13.077 -21.578  0.00  0.00    -0.136 S 
ATOM      5  O   UNL     1      33.082 -10.493 -25.436  0.00  0.00    -0.277 OA
ATOM      6  N   UNL     1      33.917 -12.489 -24.611  0.00  0.00    -0.270 N 
ATOM      7  C   UNL     1      32.951 -10.812 -23.062  0.00  0.00    +0.029 C 
ATOM      8  C   UNL     1      31.757 -11.609 -22.537  0.00  0.00    +0.046 C 
ATOM      9  C   UNL     1      33.323 -11.234 -24.479  0.00  0.00    +0.207 C 
ATOM     10  C   UNL     1      33.083 -14.079 -22.876  0.00  0.00    +0.095 C 
ATOM     11  C   UNL     1      34.292 -13.347 -23.482  0.00  0.00    +0.110 C 
BRANCH  10  13
ATOM     12  S   UNL     1      34.607 -16.410 -23.107  0.00  0.00    -0.090 S 
ATOM     13  C   UNL     1      33.471 -15.426 -22.287  0.00  0.00    +0.019 C 
ATOM     14  C   UNL     1      33.023 -16.014 -21.124  0.00  0.00    +0.004 C 
ATOM     15  C   UNL     1      33.620 -17.288 -20.905  0.00  0.00    +0.007 C 
ATOM     16  C   UNL     1      34.501 -17.627 -21.908  0.00  0.00    +0.035 C 
ENDBRANCH  10  13
BRANCH   6  17
ATOM     17  C   UNL     1      34.188 -13.022 -25.940  0.00  0.00    +0.208 C 
BRANCH  17  20
ATOM     18  O   UNL     1      32.722 -14.859 -26.072  0.00  0.00    -0.244 OA
ATOM     19  O   UNL     1      32.371 -13.056 -27.435  0.00  0.00    -0.244 OA
ATOM     20  C   UNL     1      32.973 -13.713 -26.539  0.00  0.00    +0.385 C 
ENDBRANCH  17  20
ENDBRANCH   6  17
ENDBRANCH   1   7
BRANCH   1  21
ATOM     21  C   UNL     1      33.191  -8.560 -22.010  0.00  0.00    +0.041 C 
BRANCH  21  23
ATOM     22  O   UNL     1      31.906  -6.790 -20.953  0.00  0.00    -0.252 OA
ATOM     23  C   UNL     1      32.142  -7.985 -21.082  0.00  0.00    +0.297 C 
BRANCH  23  24
ATOM     24  O   UNL     1      31.478  -8.998 -20.450  0.00  0.00    -0.450 OA
BRANCH  24  25
ATOM     25  C   UNL     1      32.191  -9.633 -19.384  0.00  0.00    +0.208 C 
ATOM     26  C   UNL     1      31.348 -10.764 -18.832  0.00  0.00    +0.051 C 
ENDBRANCH  24  25
ENDBRANCH  23  24
ENDBRANCH  21  23
BRANCH  21  27
ATOM     27  C   UNL     1      34.132  -7.519 -22.635  0.00  0.00    -0.006 C 
BRANCH  27  28
ATOM     28  C   UNL     1      34.352  -7.594 -24.154  0.00  0.00    +0.025 C 
BRANCH  28  29
ATOM     29  C   UNL     1      33.785  -6.438 -24.936  0.00  0.00    -0.022 C 
ATOM     30  C   UNL     1      32.538  -5.911 -24.597  0.00  0.00    -0.004 C 
ATOM     31  C   UNL     1      34.506  -5.893 -25.999  0.00  0.00    -0.004 C 
ATOM     32  C   UNL     1      32.013  -4.841 -25.322  0.00  0.00    -0.000 C 
ATOM     33  C   UNL     1      33.981  -4.823 -26.722  0.00  0.00    -0.000 C 
ATOM     34  C   UNL     1      32.734  -4.296 -26.384  0.00  0.00    -0.000 C 
ENDBRANCH  28  29
ENDBRANCH  27  28
ENDBRANCH  21  27
ENDBRANCH   1  21
TORSDOF 11
ENDMDL
MODEL 8
REMARK VINA RESULT:      -8.0      7.244     11.929
REMARK  Name = 40466973
REMARK  11 active torsions:
REMARK  status: ('A' for Active; 'I' for Inactive)
REMARK    1  A    between atoms: N_1  and  C_7
REMARK    2  A    between atoms: N_1  and  C_21
REMARK    3  A    between atoms: N_6  and  C_17
REMARK    4  A    between atoms: C_10  and  C_13
REMARK    5  A    between atoms: C_17  and  C_20
REMARK    6  A    between atoms: C_21  and  C_23
REMARK    7  A    between atoms: C_21  and  C_27
REMARK    8  A    between atoms: C_23  and  O_24
REMARK    9  A    between atoms: O_24  and  C_25
REMARK   10  A    between atoms: C_27  and  C_28
REMARK   11  A    between atoms: C_28  and  C_29
REMARK                            x       y       z     vdW  Elec       q    Type
REMARK                         _______ _______ _______ _____ _____    ______ ____
ROOT
ATOM      1  N   UNL     1      34.390 -22.339 -19.650  0.00  0.00    +0.400 N 
ATOM      2  H   UNL     1      33.420 -22.590 -19.841  0.00  0.00    -0.083 HD
ATOM      3  H   UNL     1      35.046 -22.822 -20.263  0.00  0.00    -0.083 HD
ENDROOT
BRANCH   1   7
ATOM      4  S   UNL     1      36.885 -22.423 -16.507  0.00  0.00    -0.136 S 
ATOM      5  O   UNL     1      32.378 -22.357 -17.896  0.00  0.00    -0.277 OA
ATOM      6  N   UNL     1      33.525 -23.381 -16.165  0.00  0.00    -0.270 N 
ATOM      7  C   UNL     1      34.718 -22.752 -18.245  0.00  0.00    +0.029 C 
ATOM      8  C   UNL     1      35.685 -21.713 -17.679  0.00  0.00    +0.046 C 
ATOM      9  C   UNL     1      33.428 -22.812 -17.435  0.00  0.00    +0.207 C 
ATOM     10  C   UNL     1      35.769 -22.968 -15.150  0.00  0.00    +0.095 C 
ATOM     11  C   UNL     1      34.740 -24.005 -15.631  0.00  0.00    +0.110 C 
BRANCH  10  13
ATOM     12  S   UNL     1      37.868 -24.613 -14.316  0.00  0.00    -0.090 S 
ATOM     13  C   UNL     1      36.611 -23.494 -13.999  0.00  0.00    +0.019 C 
ATOM     14  C   UNL     1      36.514 -23.193 -12.658  0.00  0.00    +0.004 C 
ATOM     15  C   UNL     1      37.484 -23.889 -11.882  0.00  0.00    +0.007 C 
ATOM     16  C   UNL     1      38.285 -24.697 -12.658  0.00  0.00    +0.035 C 
ENDBRANCH  10  13
BRANCH   6  17
ATOM     17  C   UNL     1      32.369 -23.363 -15.277  0.00  0.00    +0.208 C 
BRANCH  17  20
ATOM     18  O   UNL     1      32.004 -25.492 -14.342  0.00  0.00    -0.244 OA
ATOM     19  O   UNL     1      33.112 -23.914 -13.113  0.00  0.00    -0.244 OA
ATOM     20  C   UNL     1      32.511 -24.355 -14.132  0.00  0.00    +0.385 C 
ENDBRANCH  17  20
ENDBRANCH   6  17
ENDBRANCH   1   7
BRANCH   1  21
ATOM     21  C   UNL     1      34.555 -20.889 -19.899  0.00  0.00    +0.041 C 
BRANCH  21  23
ATOM     22  O   UNL     1      32.296 -20.930 -20.792  0.00  0.00    -0.252 OA
ATOM     23  C   UNL     1      33.250 -20.285 -20.377  0.00  0.00    +0.297 C 
BRANCH  23  24
ATOM     24  O   UNL     1      33.289 -18.927 -20.233  0.00  0.00    -0.450 OA
BRANCH  24  25
ATOM     25  C   UNL     1      32.276 -18.201 -20.937  0.00  0.00    +0.208 C 
ATOM     26  C   UNL     1      32.515 -16.718 -20.754  0.00  0.00    +0.051 C 
ENDBRANCH  24  25
ENDBRANCH  23  24
ENDBRANCH  21  23
BRANCH  21  27
ATOM     27  C   UNL     1      35.750 -20.650 -20.833  0.00  0.00    -0.006 C 
BRANCH  27  28
ATOM     28  C   UNL     1      36.156 -19.191 -21.094  0.00  0.00    +0.025 C 
BRANCH  28  29
ATOM     29  C   UNL     1      35.606 -18.595 -22.364  0.00  0.00    -0.022 C 
ATOM     30  C   UNL     1      35.602 -17.212 -22.541  0.00  0.00    -0.004 C 
ATOM     31  C   UNL     1      35.100 -19.427 -23.363  0.00  0.00    -0.004 C 
ATOM     32  C   UNL     1      35.092 -16.660 -23.716  0.00  0.00    -0.000 C 
ATOM     33  C   UNL     1      34.591 -18.876 -24.539  0.00  0.00    -0.000 C 
ATOM     34  C   UNL     1      34.587 -17.491 -24.716  0.00  0.00    -0.000 C 
ENDBRANCH  28  29
ENDBRANCH  27  28
ENDBRANCH  21  27
ENDBRANCH   1  21
TORSDOF 11
ENDMDL
MODEL 9
REMARK VINA RESULT:      -8.0      3.051      9.303
REMARK  Name = 40466973
REMARK  11 active torsions:
REMARK  status: ('A' for Active; 'I' for Inactive)
REMARK    1  A    between atoms: N_1  and  C_7
REMARK    2  A    between atoms: N_1  and  C_21
REMARK    3  A    between atoms: N_6  and  C_17
REMARK    4  A    between atoms: C_10  and  C_13
REMARK    5  A    between atoms: C_17  and  C_20
REMARK    6  A    between atoms: C_21  and  C_23
REMARK    7  A    between atoms: C_21  and  C_27
REMARK    8  A    between atoms: C_23  and  O_24
REMARK    9  A    between atoms: O_24  and  C_25
REMARK   10  A    between atoms: C_27  and  C_28
REMARK   11  A    between atoms: C_28  and  C_29
REMARK                            x       y       z     vdW  Elec       q    Type
REMARK                         _______ _______ _______ _____ _____    ______ ____
ROOT
ATOM      1  N   UNL     1      34.001 -13.922 -21.637  0.00  0.00    +0.400 N 
ATOM      2  H   UNL     1      34.751 -13.576 -22.234  0.00  0.00    -0.083 HD
ATOM      3  H   UNL     1      34.015 -13.500 -20.709  0.00  0.00    -0.083 HD
ENDROOT
BRANCH   1   7
ATOM      4  S   UNL     1      32.759 -17.472 -20.232  0.00  0.00    -0.136 S 
ATOM      5  O   UNL     1      35.149 -15.257 -23.643  0.00  0.00    -0.277 OA
ATOM      6  N   UNL     1      35.407 -17.271 -22.528  0.00  0.00    -0.270 N 
ATOM      7  C   UNL     1      34.191 -15.400 -21.448  0.00  0.00    +0.029 C 
ATOM      8  C   UNL     1      32.802 -16.028 -21.341  0.00  0.00    +0.046 C 
ATOM      9  C   UNL     1      34.962 -15.953 -22.641  0.00  0.00    +0.207 C 
ATOM     10  C   UNL     1      33.850 -18.642 -21.140  0.00  0.00    +0.095 C 
ATOM     11  C   UNL     1      35.273 -18.086 -21.316  0.00  0.00    +0.110 C 
BRANCH  10  13
ATOM     12  S   UNL     1      35.321 -20.828 -20.211  0.00  0.00    -0.090 S 
ATOM     13  C   UNL     1      33.849 -19.980 -20.417  0.00  0.00    +0.019 C 
ATOM     14  C   UNL     1      32.781 -20.657 -19.870  0.00  0.00    +0.004 C 
ATOM     15  C   UNL     1      33.178 -21.889 -19.273  0.00  0.00    +0.007 C 
ATOM     16  C   UNL     1      34.534 -22.106 -19.387  0.00  0.00    +0.035 C 
ENDBRANCH  10  13
BRANCH   6  17
ATOM     17  C   UNL     1      36.040 -17.918 -23.671  0.00  0.00    +0.208 C 
BRANCH  17  20
ATOM     18  O   UNL     1      34.805 -19.813 -24.322  0.00  0.00    -0.244 OA
ATOM     19  O   UNL     1      34.539 -17.861 -25.482  0.00  0.00    -0.244 OA
ATOM     20  C   UNL     1      35.027 -18.597 -24.579  0.00  0.00    +0.385 C 
ENDBRANCH  17  20
ENDBRANCH   6  17
ENDBRANCH   1   7
BRANCH   1  21
ATOM     21  C   UNL     1      32.705 -13.563 -22.257  0.00  0.00    +0.041 C 
BRANCH  21  23
ATOM     22  O   UNL     1      32.316 -13.512 -24.654  0.00  0.00    -0.252 OA
ATOM     23  C   UNL     1      32.917 -13.082 -23.678  0.00  0.00    +0.297 C 
BRANCH  23  24
ATOM     24  O   UNL     1      33.840 -12.075 -23.692  0.00  0.00    -0.450 OA
BRANCH  24  25
ATOM     25  C   UNL     1      33.940 -11.346 -24.920  0.00  0.00    +0.208 C 
ATOM     26  C   UNL     1      34.775 -10.105 -24.689  0.00  0.00    +0.051 C 
ENDBRANCH  24  25
ENDBRANCH  23  24
ENDBRANCH  21  23
BRANCH  21  27
ATOM     27  C   UNL     1      31.949 -12.578 -21.354  0.00  0.00    -0.006 C 
BRANCH  27  28
ATOM     28  C   UNL     1      31.136 -11.472 -22.047  0.00  0.00    +0.025 C 
BRANCH  28  29
ATOM     29  C   UNL     1      31.594 -10.067 -21.753  0.00  0.00    -0.022 C 
ATOM     30  C   UNL     1      31.690  -9.135 -22.786  0.00  0.00    -0.004 C 
ATOM     31  C   UNL     1      31.922  -9.698 -20.448  0.00  0.00    -0.004 C 
ATOM     32  C   UNL     1      32.114  -7.834 -22.514  0.00  0.00    -0.000 C 
ATOM     33  C   UNL     1      32.345  -8.398 -20.177  0.00  0.00    -0.000 C 
ATOM     34  C   UNL     1      32.441  -7.465 -21.210  0.00  0.00    -0.000 C 
ENDBRANCH  28  29
ENDBRANCH  27  28
ENDBRANCH  21  27
ENDBRANCH   1  21
TORSDOF 11
ENDMDL
