MODEL 1
REMARK VINA RESULT:     -10.9      0.000      0.000
REMARK  Name = 25155578
REMARK  5 active torsions:
REMARK  status: ('A' for Active; 'I' for Inactive)
REMARK    1  A    between atoms: N_2  and  C_18
REMARK    2  A    between atoms: C_7  and  C_12
REMARK    3  A    between atoms: C_18  and  C_19
REMARK    4  A    between atoms: C_19  and  C_26
REMARK    5  A    between atoms: C_22  and  C_29
REMARK                            x       y       z     vdW  Elec       q    Type
REMARK                         _______ _______ _______ _____ _____    ______ ____
ROOT
ATOM      1  O   UNL     1      33.003 -11.766 -21.546  0.00  0.00    -0.267 OA
ATOM      2  N   UNL     1      33.053 -13.381 -23.228  0.00  0.00    -0.265 N 
ATOM      3  N   UNL     1      33.185 -11.209 -25.025  0.00  0.00    -0.400 NA
ATOM      4  C   UNL     1      33.190 -13.627 -24.621  0.00  0.00    +0.150 C 
ATOM      5  C   UNL     1      33.023 -12.080 -22.731  0.00  0.00    +0.279 C 
ATOM      6  C   UNL     1      33.271 -12.528 -25.483  0.00  0.00    +0.131 C 
ATOM      7  C   UNL     1      33.046 -10.971 -23.761  0.00  0.00    +0.184 C 
ATOM      8  C   UNL     1      33.259 -14.924 -25.156  0.00  0.00    +0.000 C 
ATOM      9  C   UNL     1      33.422 -12.737 -26.862  0.00  0.00    +0.030 C 
ATOM     10  C   UNL     1      33.410 -15.120 -26.531  0.00  0.00    -0.002 C 
ATOM     11  C   UNL     1      33.492 -14.027 -27.384  0.00  0.00    +0.002 C 
ENDROOT
BRANCH   7  12
ATOM     12  C   UNL     1      32.915  -9.562 -23.322  0.00  0.00    +0.034 C 
ATOM     13  C   UNL     1      34.024  -8.717 -23.352  0.00  0.00    +0.003 C 
ATOM     14  C   UNL     1      31.684  -9.081 -22.879  0.00  0.00    +0.003 C 
ATOM     15  C   UNL     1      33.902  -7.389 -22.940  0.00  0.00    +0.000 C 
ATOM     16  C   UNL     1      31.561  -7.753 -22.466  0.00  0.00    +0.000 C 
ATOM     17  C   UNL     1      32.670  -6.909 -22.496  0.00  0.00    +0.000 C 
ENDBRANCH   7  12
BRANCH   2  18
ATOM     18  C   UNL     1      32.989 -14.504 -22.299  0.00  0.00    +0.104 C 
BRANCH  18  19
ATOM     19  C   UNL     1      34.361 -14.936 -21.828  0.00  0.00    +0.107 C 
BRANCH  19  26
ATOM     20  O   UNL     1      34.054 -16.626 -20.179  0.00  0.00    -0.275 OA
ATOM     21  N   UNL     1      34.607 -17.324 -22.315  0.00  0.00    -0.273 N 
ATOM     22  C   UNL     1      34.454 -18.752 -22.069  0.00  0.00    +0.152 C 
ATOM     23  C   UNL     1      34.414 -19.382 -23.456  0.00  0.00    +0.031 C 
ATOM     24  C   UNL     1      35.250 -18.428 -24.304  0.00  0.00    +0.024 C 
ATOM     25  C   UNL     1      34.926 -17.062 -23.717  0.00  0.00    +0.094 C 
ATOM     26  C   UNL     1      34.319 -16.368 -21.353  0.00  0.00    +0.228 C 
BRANCH  22  29
ATOM     27  O   UNL     1      36.745 -18.646 -21.455  0.00  0.00    -0.273 OA
ATOM     28  N   UNL     1      35.442 -20.242 -20.410  0.00  0.00    -0.278 N 
ATOM     29  C   UNL     1      35.656 -19.196 -21.289  0.00  0.00    +0.244 C 
ATOM     30  C   UNL     1      36.508 -20.793 -19.585  0.00  0.00    +0.094 C 
ATOM     31  C   UNL     1      34.181 -20.932 -20.165  0.00  0.00    +0.094 C 
ATOM     32  C   UNL     1      35.790 -21.663 -18.566  0.00  0.00    +0.023 C 
ATOM     33  C   UNL     1      34.569 -22.150 -19.337  0.00  0.00    +0.023 C 
ENDBRANCH  22  29
ENDBRANCH  19  26
ENDBRANCH  18  19
ENDBRANCH   2  18
TORSDOF 5
ENDMDL
MODEL 2
REMARK VINA RESULT:     -10.6      4.750     12.386
REMARK  Name = 25155578
REMARK  5 active torsions:
REMARK  status: ('A' for Active; 'I' for Inactive)
REMARK    1  A    between atoms: N_2  and  C_18
REMARK    2  A    between atoms: C_7  and  C_12
REMARK    3  A    between atoms: C_18  and  C_19
REMARK    4  A    between atoms: C_19  and  C_26
REMARK    5  A    between atoms: C_22  and  C_29
REMARK                            x       y       z     vdW  Elec       q    Type
REMARK                         _______ _______ _______ _____ _____    ______ ____
ROOT
ATOM      1  O   UNL     1      35.026 -22.723 -16.959  0.00  0.00    -0.267 OA
ATOM      2  N   UNL     1      32.714 -22.993 -16.811  0.00  0.00    -0.265 N 
ATOM      3  N   UNL     1      33.253 -24.597 -14.552  0.00  0.00    -0.400 NA
ATOM      4  C   UNL     1      31.637 -23.528 -16.054  0.00  0.00    +0.150 C 
ATOM      5  C   UNL     1      34.035 -23.216 -16.431  0.00  0.00    +0.279 C 
ATOM      6  C   UNL     1      31.938 -24.304 -14.929  0.00  0.00    +0.131 C 
ATOM      7  C   UNL     1      34.243 -24.128 -15.241  0.00  0.00    +0.184 C 
ATOM      8  C   UNL     1      30.292 -23.296 -16.385  0.00  0.00    +0.000 C 
ATOM      9  C   UNL     1      30.897 -24.834 -14.152  0.00  0.00    +0.030 C 
ATOM     10  C   UNL     1      29.264 -23.828 -15.604  0.00  0.00    -0.002 C 
ATOM     11  C   UNL     1      29.566 -24.597 -14.487  0.00  0.00    +0.002 C 
ENDROOT
BRANCH   7  12
ATOM     12  C   UNL     1      35.619 -24.498 -14.834  0.00  0.00    +0.034 C 
ATOM     13  C   UNL     1      36.157 -25.722 -15.231  0.00  0.00    +0.003 C 
ATOM     14  C   UNL     1      36.375 -23.623 -14.055  0.00  0.00    +0.003 C 
ATOM     15  C   UNL     1      37.453 -26.071 -14.849  0.00  0.00    +0.000 C 
ATOM     16  C   UNL     1      37.671 -23.972 -13.672  0.00  0.00    +0.000 C 
ATOM     17  C   UNL     1      38.209 -25.196 -14.069  0.00  0.00    +0.000 C 
ENDBRANCH   7  12
BRANCH   2  18
ATOM     18  C   UNL     1      32.435 -22.160 -17.976  0.00  0.00    +0.104 C 
BRANCH  18  19
ATOM     19  C   UNL     1      33.492 -22.304 -19.049  0.00  0.00    +0.107 C 
BRANCH  19  26
ATOM     20  O   UNL     1      32.599 -20.431 -20.217  0.00  0.00    -0.275 OA
ATOM     21  N   UNL     1      34.904 -20.597 -20.094  0.00  0.00    -0.273 N 
ATOM     22  C   UNL     1      35.197 -19.304 -20.697  0.00  0.00    +0.152 C 
ATOM     23  C   UNL     1      36.665 -19.049 -20.375  0.00  0.00    +0.031 C 
ATOM     24  C   UNL     1      37.256 -20.453 -20.281  0.00  0.00    +0.024 C 
ATOM     25  C   UNL     1      36.130 -21.267 -19.662  0.00  0.00    +0.094 C 
ATOM     26  C   UNL     1      33.610 -21.023 -19.837  0.00  0.00    +0.228 C 
BRANCH  22  29
ATOM     27  O   UNL     1      34.896 -20.559 -22.690  0.00  0.00    -0.273 OA
ATOM     28  N   UNL     1      34.853 -18.256 -22.873  0.00  0.00    -0.278 N 
ATOM     29  C   UNL     1      34.966 -19.443 -22.172  0.00  0.00    +0.244 C 
ATOM     30  C   UNL     1      34.633 -18.220 -24.311  0.00  0.00    +0.094 C 
ATOM     31  C   UNL     1      34.923 -16.907 -22.321  0.00  0.00    +0.094 C 
ATOM     32  C   UNL     1      34.248 -16.779 -24.603  0.00  0.00    +0.023 C 
ATOM     33  C   UNL     1      35.017 -16.002 -23.541  0.00  0.00    +0.023 C 
ENDBRANCH  22  29
ENDBRANCH  19  26
ENDBRANCH  18  19
ENDBRANCH   2  18
TORSDOF 5
ENDMDL
MODEL 3
REMARK VINA RESULT:     -10.5      2.082      9.282
REMARK  Name = 25155578
REMARK  5 active torsions:
REMARK  status: ('A' for Active; 'I' for Inactive)
REMARK    1  A    between atoms: N_2  and  C_18
REMARK    2  A    between atoms: C_7  and  C_12
REMARK    3  A    between atoms: C_18  and  C_19
REMARK    4  A    between atoms: C_19  and  C_26
REMARK    5  A    between atoms: C_22  and  C_29
REMARK                            x       y       z     vdW  Elec       q    Type
REMARK                         _______ _______ _______ _____ _____    ______ ____
ROOT
ATOM      1  O   UNL     1      34.863 -16.252 -20.180  0.00  0.00    -0.267 OA
ATOM      2  N   UNL     1      34.309 -15.267 -22.220  0.00  0.00    -0.265 N 
ATOM      3  N   UNL     1      34.574 -17.857 -23.308  0.00  0.00    -0.400 NA
ATOM      4  C   UNL     1      34.018 -15.487 -23.594  0.00  0.00    +0.150 C 
ATOM      5  C   UNL     1      34.685 -16.321 -21.391  0.00  0.00    +0.279 C 
ATOM      6  C   UNL     1      34.143 -16.787 -24.098  0.00  0.00    +0.131 C 
ATOM      7  C   UNL     1      34.856 -17.669 -22.059  0.00  0.00    +0.184 C 
ATOM      8  C   UNL     1      33.602 -14.457 -24.452  0.00  0.00    +0.000 C 
ATOM      9  C   UNL     1      33.848 -17.039 -25.446  0.00  0.00    +0.030 C 
ATOM     10  C   UNL     1      33.312 -14.720 -25.793  0.00  0.00    -0.002 C 
ATOM     11  C   UNL     1      33.434 -16.012 -26.290  0.00  0.00    +0.002 C 
ENDROOT
BRANCH   7  12
ATOM     12  C   UNL     1      35.352 -18.820 -21.269  0.00  0.00    +0.034 C 
ATOM     13  C   UNL     1      34.452 -19.759 -20.767  0.00  0.00    +0.003 C 
ATOM     14  C   UNL     1      36.717 -18.964 -21.028  0.00  0.00    +0.003 C 
ATOM     15  C   UNL     1      34.918 -20.844 -20.024  0.00  0.00    +0.000 C 
ATOM     16  C   UNL     1      37.184 -20.049 -20.285  0.00  0.00    +0.000 C 
ATOM     17  C   UNL     1      36.284 -20.988 -19.782  0.00  0.00    +0.000 C 
ENDBRANCH   7  12
BRANCH   2  18
ATOM     18  C   UNL     1      34.167 -13.929 -21.657  0.00  0.00    +0.104 C 
BRANCH  18  19
ATOM     19  C   UNL     1      32.792 -13.698 -21.068  0.00  0.00    +0.107 C 
BRANCH  19  26
ATOM     20  O   UNL     1      32.348 -11.942 -22.612  0.00  0.00    -0.275 OA
ATOM     21  N   UNL     1      31.788 -11.567 -20.398  0.00  0.00    -0.273 N 
ATOM     22  C   UNL     1      31.118 -10.291 -20.609  0.00  0.00    +0.152 C 
ATOM     23  C   UNL     1      30.343 -10.042 -19.320  0.00  0.00    +0.031 C 
ATOM     24  C   UNL     1      31.176 -10.761 -18.262  0.00  0.00    +0.024 C 
ATOM     25  C   UNL     1      31.699 -11.983 -19.000  0.00  0.00    +0.094 C 
ATOM     26  C   UNL     1      32.289 -12.327 -21.444  0.00  0.00    +0.228 C 
BRANCH  22  29
ATOM     27  O   UNL     1      33.020  -9.033 -19.947  0.00  0.00    -0.273 OA
ATOM     28  N   UNL     1      32.150  -8.611 -22.045  0.00  0.00    -0.278 N 
ATOM     29  C   UNL     1      32.187  -9.261 -20.825  0.00  0.00    +0.244 C 
ATOM     30  C   UNL     1      33.113  -7.581 -22.406  0.00  0.00    +0.094 C 
ATOM     31  C   UNL     1      31.195  -8.835 -23.125  0.00  0.00    +0.094 C 
ATOM     32  C   UNL     1      32.919  -7.383 -23.901  0.00  0.00    +0.023 C 
ATOM     33  C   UNL     1      31.437  -7.683 -24.091  0.00  0.00    +0.023 C 
ENDBRANCH  22  29
ENDBRANCH  19  26
ENDBRANCH  18  19
ENDBRANCH   2  18
TORSDOF 5
ENDMDL
MODEL 4
REMARK VINA RESULT:     -10.4      1.731      9.473
REMARK  Name = 25155578
REMARK  5 active torsions:
REMARK  status: ('A' for Active; 'I' for Inactive)
REMARK    1  A    between atoms: N_2  and  C_18
REMARK    2  A    between atoms: C_7  and  C_12
REMARK    3  A    between atoms: C_18  and  C_19
REMARK    4  A    between atoms: C_19  and  C_26
REMARK    5  A    between atoms: C_22  and  C_29
REMARK                            x       y       z     vdW  Elec       q    Type
REMARK                         _______ _______ _______ _____ _____    ______ ____
ROOT
ATOM      1  O   UNL     1      34.079 -15.810 -20.471  0.00  0.00    -0.267 OA
ATOM      2  N   UNL     1      33.638 -14.750 -22.501  0.00  0.00    -0.265 N 
ATOM      3  N   UNL     1      34.263 -17.229 -23.696  0.00  0.00    -0.400 NA
ATOM      4  C   UNL     1      33.510 -14.907 -23.908  0.00  0.00    +0.150 C 
ATOM      5  C   UNL     1      34.030 -15.817 -21.696  0.00  0.00    +0.279 C 
ATOM      6  C   UNL     1      33.810 -16.154 -24.467  0.00  0.00    +0.131 C 
ATOM      7  C   UNL     1      34.398 -17.097 -22.415  0.00  0.00    +0.184 C 
ATOM      8  C   UNL     1      33.083 -13.865 -24.748  0.00  0.00    +0.000 C 
ATOM      9  C   UNL     1      33.678 -16.345 -25.850  0.00  0.00    +0.030 C 
ATOM     10  C   UNL     1      32.956 -14.066 -26.124  0.00  0.00    -0.002 C 
ATOM     11  C   UNL     1      33.253 -15.307 -26.675  0.00  0.00    +0.002 C 
ENDROOT
BRANCH   7  12
ATOM     12  C   UNL     1      34.922 -18.246 -21.642  0.00  0.00    +0.034 C 
ATOM     13  C   UNL     1      34.041 -19.187 -21.108  0.00  0.00    +0.003 C 
ATOM     14  C   UNL     1      36.295 -18.388 -21.447  0.00  0.00    +0.003 C 
ATOM     15  C   UNL     1      34.534 -20.270 -20.380  0.00  0.00    +0.000 C 
ATOM     16  C   UNL     1      36.789 -19.471 -20.718  0.00  0.00    +0.000 C 
ATOM     17  C   UNL     1      35.907 -20.412 -20.185  0.00  0.00    +0.000 C 
ENDBRANCH   7  12
BRANCH   2  18
ATOM     18  C   UNL     1      33.310 -13.470 -21.884  0.00  0.00    +0.104 C 
BRANCH  18  19
ATOM     19  C   UNL     1      32.162 -12.774 -22.583  0.00  0.00    +0.107 C 
BRANCH  19  26
ATOM     20  O   UNL     1      31.477 -10.851 -21.357  0.00  0.00    -0.275 OA
ATOM     21  N   UNL     1      33.007 -10.526 -23.063  0.00  0.00    -0.273 N 
ATOM     22  C   UNL     1      33.263  -9.118 -22.791  0.00  0.00    +0.152 C 
ATOM     23  C   UNL     1      34.529  -8.796 -23.577  0.00  0.00    +0.031 C 
ATOM     24  C   UNL     1      34.472  -9.765 -24.755  0.00  0.00    +0.024 C 
ATOM     25  C   UNL     1      33.853 -11.015 -24.150  0.00  0.00    +0.094 C 
ATOM     26  C   UNL     1      32.177 -11.299 -22.266  0.00  0.00    +0.228 C 
BRANCH  22  29
ATOM     27  O   UNL     1      31.491  -8.710 -24.318  0.00  0.00    -0.273 OA
ATOM     28  N   UNL     1      31.732  -7.234 -22.557  0.00  0.00    -0.278 N 
ATOM     29  C   UNL     1      32.081  -8.348 -23.299  0.00  0.00    +0.244 C 
ATOM     30  C   UNL     1      30.612  -6.378 -22.921  0.00  0.00    +0.094 C 
ATOM     31  C   UNL     1      32.385  -6.754 -21.344  0.00  0.00    +0.094 C 
ATOM     32  C   UNL     1      30.386  -5.505 -21.697  0.00  0.00    +0.023 C 
ATOM     33  C   UNL     1      31.787  -5.373 -21.113  0.00  0.00    +0.023 C 
ENDBRANCH  22  29
ENDBRANCH  19  26
ENDBRANCH  18  19
ENDBRANCH   2  18
TORSDOF 5
ENDMDL
MODEL 5
REMARK VINA RESULT:     -10.2      2.197      3.797
REMARK  Name = 25155578
REMARK  5 active torsions:
REMARK  status: ('A' for Active; 'I' for Inactive)
REMARK    1  A    between atoms: N_2  and  C_18
REMARK    2  A    between atoms: C_7  and  C_12
REMARK    3  A    between atoms: C_18  and  C_19
REMARK    4  A    between atoms: C_19  and  C_26
REMARK    5  A    between atoms: C_22  and  C_29
REMARK                            x       y       z     vdW  Elec       q    Type
REMARK                         _______ _______ _______ _____ _____    ______ ____
ROOT
ATOM      1  O   UNL     1      33.038 -10.526 -24.735  0.00  0.00    -0.267 OA
ATOM      2  N   UNL     1      32.540 -11.434 -22.646  0.00  0.00    -0.265 N 
ATOM      3  N   UNL     1      32.383  -8.762 -21.751  0.00  0.00    -0.400 NA
ATOM      4  C   UNL     1      32.160 -11.162 -21.303  0.00  0.00    +0.150 C 
ATOM      5  C   UNL     1      32.798 -10.398 -23.540  0.00  0.00    +0.279 C 
ATOM      6  C   UNL     1      32.074  -9.826 -20.897  0.00  0.00    +0.131 C 
ATOM      7  C   UNL     1      32.744  -8.996 -22.972  0.00  0.00    +0.184 C 
ATOM      8  C   UNL     1      31.858 -12.179 -20.383  0.00  0.00    +0.000 C 
ATOM      9  C   UNL     1      31.687  -9.524 -19.583  0.00  0.00    +0.030 C 
ATOM     10  C   UNL     1      31.473 -11.866 -19.077  0.00  0.00    -0.002 C 
ATOM     11  C   UNL     1      31.387 -10.538 -18.677  0.00  0.00    +0.002 C 
ENDROOT
BRANCH   7  12
ATOM     12  C   UNL     1      33.105  -7.844 -23.830  0.00  0.00    +0.034 C 
ATOM     13  C   UNL     1      32.121  -6.942 -24.235  0.00  0.00    +0.003 C 
ATOM     14  C   UNL     1      34.427  -7.661 -24.234  0.00  0.00    +0.003 C 
ATOM     15  C   UNL     1      32.460  -5.855 -25.043  0.00  0.00    +0.000 C 
ATOM     16  C   UNL     1      34.766  -6.576 -25.043  0.00  0.00    +0.000 C 
ATOM     17  C   UNL     1      33.783  -5.674 -25.447  0.00  0.00    +0.000 C 
ENDBRANCH   7  12
BRANCH   2  18
ATOM     18  C   UNL     1      32.616 -12.815 -23.109  0.00  0.00    +0.104 C 
BRANCH  18  19
ATOM     19  C   UNL     1      34.036 -13.339 -23.116  0.00  0.00    +0.107 C 
BRANCH  19  26
ATOM     20  O   UNL     1      33.970 -14.923 -21.340  0.00  0.00    -0.275 OA
ATOM     21  N   UNL     1      34.249 -15.752 -23.482  0.00  0.00    -0.273 N 
ATOM     22  C   UNL     1      34.149 -17.161 -23.131  0.00  0.00    +0.152 C 
ATOM     23  C   UNL     1      33.936 -17.878 -24.459  0.00  0.00    +0.031 C 
ATOM     24  C   UNL     1      34.642 -16.975 -25.467  0.00  0.00    +0.024 C 
ATOM     25  C   UNL     1      34.379 -15.577 -24.928  0.00  0.00    +0.094 C 
ATOM     26  C   UNL     1      34.077 -14.738 -22.552  0.00  0.00    +0.228 C 
BRANCH  22  29
ATOM     27  O   UNL     1      36.473 -16.905 -22.717  0.00  0.00    -0.273 OA
ATOM     28  N   UNL     1      35.396 -18.655 -21.660  0.00  0.00    -0.278 N 
ATOM     29  C   UNL     1      35.448 -17.549 -22.490  0.00  0.00    +0.244 C 
ATOM     30  C   UNL     1      36.572 -19.163 -20.969  0.00  0.00    +0.094 C 
ATOM     31  C   UNL     1      34.218 -19.457 -21.347  0.00  0.00    +0.094 C 
ATOM     32  C   UNL     1      36.019 -20.142 -19.945  0.00  0.00    +0.023 C 
ATOM     33  C   UNL     1      34.772 -20.682 -20.633  0.00  0.00    +0.023 C 
ENDBRANCH  22  29
ENDBRANCH  19  26
ENDBRANCH  18  19
ENDBRANCH   2  18
TORSDOF 5
ENDMDL
MODEL 6
REMARK VINA RESULT:     -10.0      4.186     11.709
REMARK  Name = 25155578
REMARK  5 active torsions:
REMARK  status: ('A' for Active; 'I' for Inactive)
REMARK    1  A    between atoms: N_2  and  C_18
REMARK    2  A    between atoms: C_7  and  C_12
REMARK    3  A    between atoms: C_18  and  C_19
REMARK    4  A    between atoms: C_19  and  C_26
REMARK    5  A    between atoms: C_22  and  C_29
REMARK                            x       y       z     vdW  Elec       q    Type
REMARK                         _______ _______ _______ _____ _____    ______ ____
ROOT
ATOM      1  O   UNL     1      32.098 -22.950 -18.163  0.00  0.00    -0.267 OA
ATOM      2  N   UNL     1      34.318 -22.590 -17.548  0.00  0.00    -0.265 N 
ATOM      3  N   UNL     1      33.571 -23.619 -15.028  0.00  0.00    -0.400 NA
ATOM      4  C   UNL     1      35.302 -22.757 -16.535  0.00  0.00    +0.150 C 
ATOM      5  C   UNL     1      32.995 -22.965 -17.328  0.00  0.00    +0.279 C 
ATOM      6  C   UNL     1      34.901 -23.286 -15.303  0.00  0.00    +0.131 C 
ATOM      7  C   UNL     1      32.663 -23.458 -15.936  0.00  0.00    +0.184 C 
ATOM      8  C   UNL     1      36.652 -22.424 -16.731  0.00  0.00    +0.000 C 
ATOM      9  C   UNL     1      35.851 -23.478 -14.289  0.00  0.00    +0.030 C 
ATOM     10  C   UNL     1      37.588 -22.618 -15.713  0.00  0.00    -0.002 C 
ATOM     11  C   UNL     1      37.188 -23.146 -14.492  0.00  0.00    +0.002 C 
ENDROOT
BRANCH   7  12
ATOM     12  C   UNL     1      31.259 -23.781 -15.590  0.00  0.00    +0.034 C 
ATOM     13  C   UNL     1      30.257 -22.831 -15.787  0.00  0.00    +0.003 C 
ATOM     14  C   UNL     1      30.939 -25.034 -15.068  0.00  0.00    +0.003 C 
ATOM     15  C   UNL     1      28.934 -23.134 -15.462  0.00  0.00    +0.000 C 
ATOM     16  C   UNL     1      29.616 -25.337 -14.742  0.00  0.00    +0.000 C 
ATOM     17  C   UNL     1      28.615 -24.387 -14.939  0.00  0.00    +0.000 C 
ENDBRANCH   7  12
BRANCH   2  18
ATOM     18  C   UNL     1      34.706 -22.062 -18.851  0.00  0.00    +0.104 C 
BRANCH  18  19
ATOM     19  C   UNL     1      33.532 -21.961 -19.801  0.00  0.00    +0.107 C 
BRANCH  19  26
ATOM     20  O   UNL     1      32.463 -20.100 -20.832  0.00  0.00    -0.275 OA
ATOM     21  N   UNL     1      34.770 -20.033 -20.665  0.00  0.00    -0.273 N 
ATOM     22  C   UNL     1      34.934 -18.670 -21.152  0.00  0.00    +0.152 C 
ATOM     23  C   UNL     1      36.361 -18.291 -20.773  0.00  0.00    +0.031 C 
ATOM     24  C   UNL     1      37.097 -19.628 -20.781  0.00  0.00    +0.024 C 
ATOM     25  C   UNL     1      36.053 -20.605 -20.260  0.00  0.00    +0.094 C 
ATOM     26  C   UNL     1      33.525 -20.612 -20.477  0.00  0.00    +0.228 C 
BRANCH  22  29
ATOM     27  O   UNL     1      34.769 -19.780 -23.245  0.00  0.00    -0.273 OA
ATOM     28  N   UNL     1      34.552 -17.479 -23.247  0.00  0.00    -0.278 N 
ATOM     29  C   UNL     1      34.743 -18.707 -22.639  0.00  0.00    +0.244 C 
ATOM     30  C   UNL     1      34.358 -17.345 -24.683  0.00  0.00    +0.094 C 
ATOM     31  C   UNL     1      34.507 -16.178 -22.589  0.00  0.00    +0.094 C 
ATOM     32  C   UNL     1      33.869 -15.918 -24.870  0.00  0.00    +0.023 C 
ATOM     33  C   UNL     1      34.555 -15.173 -23.732  0.00  0.00    +0.023 C 
ENDBRANCH  22  29
ENDBRANCH  19  26
ENDBRANCH  18  19
ENDBRANCH   2  18
TORSDOF 5
ENDMDL
MODEL 7
REMARK VINA RESULT:      -9.6      4.607     11.700
REMARK  Name = 25155578
REMARK  5 active torsions:
REMARK  status: ('A' for Active; 'I' for Inactive)
REMARK    1  A    between atoms: N_2  and  C_18
REMARK    2  A    between atoms: C_7  and  C_12
REMARK    3  A    between atoms: C_18  and  C_19
REMARK    4  A    between atoms: C_19  and  C_26
REMARK    5  A    between atoms: C_22  and  C_29
REMARK                            x       y       z     vdW  Elec       q    Type
REMARK                         _______ _______ _______ _____ _____    ______ ____
ROOT
ATOM      1  O   UNL     1      32.550 -23.131 -18.267  0.00  0.00    -0.267 OA
ATOM      2  N   UNL     1      34.660 -22.906 -17.301  0.00  0.00    -0.265 N 
ATOM      3  N   UNL     1      33.385 -23.536 -14.863  0.00  0.00    -0.400 NA
ATOM      4  C   UNL     1      35.433 -23.035 -16.114  0.00  0.00    +0.150 C 
ATOM      5  C   UNL     1      33.285 -23.125 -17.286  0.00  0.00    +0.279 C 
ATOM      6  C   UNL     1      34.772 -23.366 -14.926  0.00  0.00    +0.131 C 
ATOM      7  C   UNL     1      32.668 -23.406 -15.932  0.00  0.00    +0.184 C 
ATOM      8  C   UNL     1      36.826 -22.857 -16.097  0.00  0.00    +0.000 C 
ATOM      9  C   UNL     1      35.508 -23.517 -13.742  0.00  0.00    +0.030 C 
ATOM     10  C   UNL     1      37.548 -23.009 -14.911  0.00  0.00    -0.002 C 
ATOM     11  C   UNL     1      36.890 -23.340 -13.734  0.00  0.00    +0.002 C 
ENDROOT
BRANCH   7  12
ATOM     12  C   UNL     1      31.198 -23.550 -15.814  0.00  0.00    +0.034 C 
ATOM     13  C   UNL     1      30.358 -22.562 -16.327  0.00  0.00    +0.003 C 
ATOM     14  C   UNL     1      30.655 -24.673 -15.191  0.00  0.00    +0.003 C 
ATOM     15  C   UNL     1      28.973 -22.697 -16.216  0.00  0.00    +0.000 C 
ATOM     16  C   UNL     1      29.270 -24.808 -15.080  0.00  0.00    +0.000 C 
ATOM     17  C   UNL     1      28.431 -23.820 -15.593  0.00  0.00    +0.000 C 
ENDBRANCH   7  12
BRANCH   2  18
ATOM     18  C   UNL     1      35.321 -22.585 -18.561  0.00  0.00    +0.104 C 
BRANCH  18  19
ATOM     19  C   UNL     1      36.072 -21.272 -18.496  0.00  0.00    +0.107 C 
BRANCH  19  26
ATOM     20  O   UNL     1      37.118 -20.377 -20.438  0.00  0.00    -0.275 OA
ATOM     21  N   UNL     1      34.809 -20.260 -20.334  0.00  0.00    -0.273 N 
ATOM     22  C   UNL     1      34.606 -19.754 -21.685  0.00  0.00    +0.152 C 
ATOM     23  C   UNL     1      33.119 -19.955 -21.956  0.00  0.00    +0.031 C 
ATOM     24  C   UNL     1      32.491 -19.859 -20.568  0.00  0.00    +0.024 C 
ATOM     25  C   UNL     1      33.532 -20.505 -19.667  0.00  0.00    +0.094 C 
ATOM     26  C   UNL     1      36.061 -20.600 -19.846  0.00  0.00    +0.228 C 
BRANCH  22  29
ATOM     27  O   UNL     1      35.335 -17.758 -20.627  0.00  0.00    -0.273 OA
ATOM     28  N   UNL     1      34.885 -17.652 -22.891  0.00  0.00    -0.278 N 
ATOM     29  C   UNL     1      34.980 -18.302 -21.674  0.00  0.00    +0.244 C 
ATOM     30  C   UNL     1      35.206 -16.241 -23.045  0.00  0.00    +0.094 C 
ATOM     31  C   UNL     1      34.475 -18.238 -24.163  0.00  0.00    +0.094 C 
ATOM     32  C   UNL     1      35.286 -16.030 -24.549  0.00  0.00    +0.023 C 
ATOM     33  C   UNL     1      34.282 -17.043 -25.086  0.00  0.00    +0.023 C 
ENDBRANCH  22  29
ENDBRANCH  19  26
ENDBRANCH  18  19
ENDBRANCH   2  18
TORSDOF 5
ENDMDL
MODEL 8
REMARK VINA RESULT:      -9.6      1.697      3.650
REMARK  Name = 25155578
REMARK  5 active torsions:
REMARK  status: ('A' for Active; 'I' for Inactive)
REMARK    1  A    between atoms: N_2  and  C_18
REMARK    2  A    between atoms: C_7  and  C_12
REMARK    3  A    between atoms: C_18  and  C_19
REMARK    4  A    between atoms: C_19  and  C_26
REMARK    5  A    between atoms: C_22  and  C_29
REMARK                            x       y       z     vdW  Elec       q    Type
REMARK                         _______ _______ _______ _____ _____    ______ ____
ROOT
ATOM      1  O   UNL     1      34.039 -13.925 -24.003  0.00  0.00    -0.267 OA
ATOM      2  N   UNL     1      32.963 -13.155 -22.082  0.00  0.00    -0.265 N 
ATOM      3  N   UNL     1      33.027 -10.617 -23.313  0.00  0.00    -0.400 NA
ATOM      4  C   UNL     1      32.346 -12.046 -21.442  0.00  0.00    +0.150 C 
ATOM      5  C   UNL     1      33.566 -13.016 -23.330  0.00  0.00    +0.279 C 
ATOM      6  C   UNL     1      32.380 -10.805 -22.087  0.00  0.00    +0.131 C 
ATOM      7  C   UNL     1      33.606 -11.614 -23.900  0.00  0.00    +0.184 C 
ATOM      8  C   UNL     1      31.698 -12.155 -20.200  0.00  0.00    +0.000 C 
ATOM      9  C   UNL     1      31.767  -9.695 -21.489  0.00  0.00    +0.030 C 
ATOM     10  C   UNL     1      31.091 -11.042 -19.614  0.00  0.00    -0.002 C 
ATOM     11  C   UNL     1      31.124  -9.812 -20.259  0.00  0.00    +0.002 C 
ENDROOT
BRANCH   7  12
ATOM     12  C   UNL     1      34.317 -11.363 -25.175  0.00  0.00    +0.034 C 
ATOM     13  C   UNL     1      35.269 -10.346 -25.252  0.00  0.00    +0.003 C 
ATOM     14  C   UNL     1      34.036 -12.141 -26.296  0.00  0.00    +0.003 C 
ATOM     15  C   UNL     1      35.941 -10.109 -26.452  0.00  0.00    +0.000 C 
ATOM     16  C   UNL     1      34.707 -11.904 -27.497  0.00  0.00    +0.000 C 
ATOM     17  C   UNL     1      35.659 -10.887 -27.574  0.00  0.00    +0.000 C 
ENDBRANCH   7  12
BRANCH   2  18
ATOM     18  C   UNL     1      32.926 -14.468 -21.447  0.00  0.00    +0.104 C 
BRANCH  18  19
ATOM     19  C   UNL     1      34.311 -14.988 -21.125  0.00  0.00    +0.107 C 
BRANCH  19  26
ATOM     20  O   UNL     1      33.981 -16.984 -19.871  0.00  0.00    -0.275 OA
ATOM     21  N   UNL     1      34.607 -17.221 -22.086  0.00  0.00    -0.273 N 
ATOM     22  C   UNL     1      34.469 -18.670 -22.145  0.00  0.00    +0.152 C 
ATOM     23  C   UNL     1      34.479 -19.001 -23.633  0.00  0.00    +0.031 C 
ATOM     24  C   UNL     1      35.326 -17.885 -24.238  0.00  0.00    +0.024 C 
ATOM     25  C   UNL     1      34.964 -16.673 -23.393  0.00  0.00    +0.094 C 
ATOM     26  C   UNL     1      34.277 -16.487 -20.958  0.00  0.00    +0.228 C 
BRANCH  22  29
ATOM     27  O   UNL     1      36.790 -18.849 -21.679  0.00  0.00    -0.273 OA
ATOM     28  N   UNL     1      35.368 -20.259 -20.527  0.00  0.00    -0.278 N 
ATOM     29  C   UNL     1      35.653 -19.256 -21.436  0.00  0.00    +0.244 C 
ATOM     30  C   UNL     1      36.407 -20.933 -19.762  0.00  0.00    +0.094 C 
ATOM     31  C   UNL     1      34.048 -20.782 -20.191  0.00  0.00    +0.094 C 
ATOM     32  C   UNL     1      35.653 -21.697 -18.685  0.00  0.00    +0.023 C 
ATOM     33  C   UNL     1      34.334 -22.032 -19.369  0.00  0.00    +0.023 C 
ENDBRANCH  22  29
ENDBRANCH  19  26
ENDBRANCH  18  19
ENDBRANCH   2  18
TORSDOF 5
ENDMDL
MODEL 9
REMARK VINA RESULT:      -9.6      4.856     12.331
REMARK  Name = 25155578
REMARK  5 active torsions:
REMARK  status: ('A' for Active; 'I' for Inactive)
REMARK    1  A    between atoms: N_2  and  C_18
REMARK    2  A    between atoms: C_7  and  C_12
REMARK    3  A    between atoms: C_18  and  C_19
REMARK    4  A    between atoms: C_19  and  C_26
REMARK    5  A    between atoms: C_22  and  C_29
REMARK                            x       y       z     vdW  Elec       q    Type
REMARK                         _______ _______ _______ _____ _____    ______ ____
ROOT
ATOM      1  O   UNL     1      36.790 -23.183 -16.347  0.00  0.00    -0.267 OA
ATOM      2  N   UNL     1      34.528 -23.026 -16.893  0.00  0.00    -0.265 N 
ATOM      3  N   UNL     1      34.042 -23.823 -14.230  0.00  0.00    -0.400 NA
ATOM      4  C   UNL     1      33.192 -23.097 -16.411  0.00  0.00    +0.150 C 
ATOM      5  C   UNL     1      35.605 -23.306 -16.056  0.00  0.00    +0.279 C 
ATOM      6  C   UNL     1      32.987 -23.479 -15.080  0.00  0.00    +0.131 C 
ATOM      7  C   UNL     1      35.262 -23.777 -14.659  0.00  0.00    +0.184 C 
ATOM      8  C   UNL     1      32.083 -22.788 -17.214  0.00  0.00    +0.000 C 
ATOM      9  C   UNL     1      31.682 -23.543 -14.570  0.00  0.00    +0.030 C 
ATOM     10  C   UNL     1      30.787 -22.856 -16.695  0.00  0.00    -0.002 C 
ATOM     11  C   UNL     1      30.587 -23.232 -15.373  0.00  0.00    +0.002 C 
ENDROOT
BRANCH   7  12
ATOM     12  C   UNL     1      36.347 -24.193 -13.739  0.00  0.00    +0.034 C 
ATOM     13  C   UNL     1      36.821 -25.504 -13.770  0.00  0.00    +0.003 C 
ATOM     14  C   UNL     1      36.893 -23.274 -12.845  0.00  0.00    +0.003 C 
ATOM     15  C   UNL     1      37.844 -25.897 -12.905  0.00  0.00    +0.000 C 
ATOM     16  C   UNL     1      37.915 -23.666 -11.979  0.00  0.00    +0.000 C 
ATOM     17  C   UNL     1      38.389 -24.977 -12.009  0.00  0.00    +0.000 C 
ENDBRANCH   7  12
BRANCH   2  18
ATOM     18  C   UNL     1      34.778 -22.610 -18.268  0.00  0.00    +0.104 C 
BRANCH  18  19
ATOM     19  C   UNL     1      35.891 -21.588 -18.364  0.00  0.00    +0.107 C 
BRANCH  19  26
ATOM     20  O   UNL     1      36.941 -20.827 -20.361  0.00  0.00    -0.275 OA
ATOM     21  N   UNL     1      34.655 -20.509 -20.183  0.00  0.00    -0.273 N 
ATOM     22  C   UNL     1      34.449 -20.016 -21.538  0.00  0.00    +0.152 C 
ATOM     23  C   UNL     1      32.942 -20.093 -21.753  0.00  0.00    +0.031 C 
ATOM     24  C   UNL     1      32.373 -19.915 -20.348  0.00  0.00    +0.024 C 
ATOM     25  C   UNL     1      33.387 -20.629 -19.467  0.00  0.00    +0.094 C 
ATOM     26  C   UNL     1      35.890 -20.946 -19.729  0.00  0.00    +0.228 C 
BRANCH  22  29
ATOM     27  O   UNL     1      35.370 -18.064 -20.549  0.00  0.00    -0.273 OA
ATOM     28  N   UNL     1      34.879 -17.977 -22.805  0.00  0.00    -0.278 N 
ATOM     29  C   UNL     1      34.946 -18.602 -21.573  0.00  0.00    +0.244 C 
ATOM     30  C   UNL     1      35.316 -16.603 -23.005  0.00  0.00    +0.094 C 
ATOM     31  C   UNL     1      34.392 -18.557 -24.052  0.00  0.00    +0.094 C 
ATOM     32  C   UNL     1      35.380 -16.438 -24.515  0.00  0.00    +0.023 C 
ATOM     33  C   UNL     1      34.281 -17.373 -25.003  0.00  0.00    +0.023 C 
ENDBRANCH  22  29
ENDBRANCH  19  26
ENDBRANCH  18  19
ENDBRANCH   2  18
TORSDOF 5
ENDMDL
