MODEL 1
REMARK VINA RESULT:     -10.9      0.000      0.000
REMARK  Name = 68109743
REMARK  6 active torsions:
REMARK  status: ('A' for Active; 'I' for Inactive)
REMARK    1  A    between atoms: N_1  and  C_13
REMARK    2  A    between atoms: C_8  and  C_25
REMARK    3  A    between atoms: C_16  and  O_18
REMARK    4  A    between atoms: O_18  and  C_19
REMARK    5  A    between atoms: C_19  and  C_20
REMARK    6  A    between atoms: N_24  and  S_27
REMARK                            x       y       z     vdW  Elec       q    Type
REMARK                         _______ _______ _______ _____ _____    ______ ____
ROOT
ATOM      1  N   UNL     1      34.844 -18.208 -22.132  0.00  0.00    -0.228 N 
ATOM      2  N   UNL     1      35.153 -18.403 -23.424  0.00  0.00    -0.169 NA
ATOM      3  C   UNL     1      34.240 -17.006 -21.874  0.00  0.00    +0.084 A 
ATOM      4  C   UNL     1      34.149 -16.371 -23.107  0.00  0.00    +0.033 A 
ATOM      5  C   UNL     1      34.728 -17.283 -24.015  0.00  0.00    +0.081 A 
ATOM      6  C   UNL     1      33.566 -15.095 -23.182  0.00  0.00    +0.007 C 
ATOM      7  C   UNL     1      33.774 -16.437 -20.687  0.00  0.00    +0.019 C 
ATOM      8  C   UNL     1      33.093 -14.505 -22.003  0.00  0.00    +0.055 C 
ATOM      9  C   UNL     1      33.196 -15.167 -20.778  0.00  0.00    +0.006 C 
ATOM     10  C   UNL     1      34.898 -17.122 -25.470  0.00  0.00    +0.054 C 
ENDROOT
BRANCH   1  13
ATOM     11 CL   UNL     1      33.290 -22.080 -19.163  0.00  0.00    -0.077 Cl
ATOM     12  N   UNL     1      36.806 -20.291 -19.815  0.00  0.00    -0.208 NA
ATOM     13  C   UNL     1      35.149 -19.196 -21.194  0.00  0.00    +0.103 C 
ATOM     14  C   UNL     1      34.166 -20.049 -20.705  0.00  0.00    +0.037 C 
ATOM     15  C   UNL     1      36.443 -19.357 -20.721  0.00  0.00    +0.121 C 
ATOM     16  C   UNL     1      35.823 -21.102 -19.363  0.00  0.00    +0.236 C 
ATOM     17  C   UNL     1      34.501 -21.023 -19.771  0.00  0.00    +0.112 C 
BRANCH  16  18
ATOM     18  O   UNL     1      36.202 -22.046 -18.444  0.00  0.00    -0.460 OA
BRANCH  18  19
ATOM     19  C   UNL     1      36.982 -21.591 -17.345  0.00  0.00    +0.207 C 
BRANCH  19  20
ATOM     20  C   UNL     1      36.522 -22.280 -16.057  0.00  0.00    +0.044 C 
ATOM     21  C   UNL     1      37.584 -23.262 -15.569  0.00  0.00    +0.004 C 
ATOM     22  C   UNL     1      35.185 -22.998 -16.256  0.00  0.00    +0.004 C 
ENDBRANCH  19  20
ENDBRANCH  18  19
ENDBRANCH  16  18
ENDBRANCH   1  13
BRANCH   8  25
ATOM     23  O   UNL     1      32.307 -12.590 -23.132  0.00  0.00    -0.269 OA
ATOM     24  N   UNL     1      32.100 -12.594 -20.797  0.00  0.00    -0.185 N 
ATOM     25  C   UNL     1      32.485 -13.185 -22.059  0.00  0.00    +0.264 C 
ATOM     26  H   UNL     1      32.274 -13.121 -19.985  0.00  0.00    +0.176 HD
BRANCH  24  27
ATOM     27  S   UNL     1      31.369 -11.059 -20.593  0.00  0.00    +0.058 S 
ATOM     28  O   UNL     1      32.209 -10.027 -21.167  0.00  0.00    -0.154 OA
ATOM     29  O   UNL     1      29.967 -11.163 -20.946  0.00  0.00    -0.154 OA
ATOM     30  C   UNL     1      31.463 -10.922 -18.824  0.00  0.00    +0.200 C 
ENDBRANCH  24  27
ENDBRANCH   8  25
TORSDOF 6
ENDMDL
MODEL 2
REMARK VINA RESULT:     -10.7      4.911     10.472
REMARK  Name = 68109743
REMARK  6 active torsions:
REMARK  status: ('A' for Active; 'I' for Inactive)
REMARK    1  A    between atoms: N_1  and  C_13
REMARK    2  A    between atoms: C_8  and  C_25
REMARK    3  A    between atoms: C_16  and  O_18
REMARK    4  A    between atoms: O_18  and  C_19
REMARK    5  A    between atoms: C_19  and  C_20
REMARK    6  A    between atoms: N_24  and  S_27
REMARK                            x       y       z     vdW  Elec       q    Type
REMARK                         _______ _______ _______ _____ _____    ______ ____
ROOT
ATOM      1  N   UNL     1      34.228 -21.707 -18.767  0.00  0.00    -0.228 N 
ATOM      2  N   UNL     1      33.032 -22.272 -18.536  0.00  0.00    -0.169 NA
ATOM      3  C   UNL     1      35.200 -22.062 -17.869  0.00  0.00    +0.084 A 
ATOM      4  C   UNL     1      34.577 -22.932 -16.982  0.00  0.00    +0.033 A 
ATOM      5  C   UNL     1      33.247 -23.017 -17.449  0.00  0.00    +0.081 A 
ATOM      6  C   UNL     1      35.318 -23.482 -15.923  0.00  0.00    +0.007 C 
ATOM      7  C   UNL     1      36.544 -21.700 -17.765  0.00  0.00    +0.019 C 
ATOM      8  C   UNL     1      36.668 -23.132 -15.799  0.00  0.00    +0.055 C 
ATOM      9  C   UNL     1      37.269 -22.256 -16.706  0.00  0.00    +0.006 C 
ATOM     10  C   UNL     1      32.140 -23.805 -16.880  0.00  0.00    +0.054 C 
ENDROOT
BRANCH   1  13
ATOM     11 CL   UNL     1      37.310 -18.913 -21.755  0.00  0.00    -0.077 Cl
ATOM     12  N   UNL     1      33.372 -19.597 -21.661  0.00  0.00    -0.208 NA
ATOM     13  C   UNL     1      34.384 -20.843 -19.852  0.00  0.00    +0.103 C 
ATOM     14  C   UNL     1      35.639 -20.367 -20.216  0.00  0.00    +0.037 C 
ATOM     15  C   UNL     1      33.291 -20.431 -20.600  0.00  0.00    +0.121 C 
ATOM     16  C   UNL     1      34.607 -19.155 -21.984  0.00  0.00    +0.236 C 
ATOM     17  C   UNL     1      35.761 -19.505 -21.301  0.00  0.00    +0.112 C 
BRANCH  16  18
ATOM     18  O   UNL     1      34.678 -18.309 -23.061  0.00  0.00    -0.460 OA
BRANCH  18  19
ATOM     19  C   UNL     1      34.591 -16.916 -22.786  0.00  0.00    +0.207 C 
BRANCH  19  20
ATOM     20  C   UNL     1      34.741 -16.118 -24.083  0.00  0.00    +0.044 C 
ATOM     21  C   UNL     1      33.683 -15.019 -24.159  0.00  0.00    +0.004 C 
ATOM     22  C   UNL     1      34.653 -17.027 -25.311  0.00  0.00    +0.004 C 
ENDBRANCH  19  20
ENDBRANCH  18  19
ENDBRANCH  16  18
ENDBRANCH   1  13
BRANCH   8  25
ATOM     23  O   UNL     1      38.582 -24.175 -14.897  0.00  0.00    -0.269 OA
ATOM     24  N   UNL     1      36.857 -23.660 -13.395  0.00  0.00    -0.185 N 
ATOM     25  C   UNL     1      37.455 -23.691 -14.711  0.00  0.00    +0.264 C 
ATOM     26  H   UNL     1      35.959 -23.265 -13.321  0.00  0.00    +0.176 HD
BRANCH  24  27
ATOM     27  S   UNL     1      37.573 -24.251 -11.957  0.00  0.00    +0.058 S 
ATOM     28  O   UNL     1      37.786 -25.681 -12.057  0.00  0.00    -0.154 OA
ATOM     29  O   UNL     1      38.651 -23.360 -11.577  0.00  0.00    -0.154 OA
ATOM     30  C   UNL     1      36.230 -23.975 -10.826  0.00  0.00    +0.200 C 
ENDBRANCH  24  27
ENDBRANCH   8  25
TORSDOF 6
ENDMDL
MODEL 3
REMARK VINA RESULT:     -10.4      1.715      2.142
REMARK  Name = 68109743
REMARK  6 active torsions:
REMARK  status: ('A' for Active; 'I' for Inactive)
REMARK    1  A    between atoms: N_1  and  C_13
REMARK    2  A    between atoms: C_8  and  C_25
REMARK    3  A    between atoms: C_16  and  O_18
REMARK    4  A    between atoms: O_18  and  C_19
REMARK    5  A    between atoms: C_19  and  C_20
REMARK    6  A    between atoms: N_24  and  S_27
REMARK                            x       y       z     vdW  Elec       q    Type
REMARK                         _______ _______ _______ _____ _____    ______ ____
ROOT
ATOM      1  N   UNL     1      34.213 -16.853 -22.759  0.00  0.00    -0.228 N 
ATOM      2  N   UNL     1      34.318 -16.868 -24.098  0.00  0.00    -0.169 NA
ATOM      3  C   UNL     1      33.651 -15.711 -22.253  0.00  0.00    +0.084 A 
ATOM      4  C   UNL     1      33.369 -14.920 -23.361  0.00  0.00    +0.033 A 
ATOM      5  C   UNL     1      33.804 -15.691 -24.462  0.00  0.00    +0.081 A 
ATOM      6  C   UNL     1      32.776 -13.660 -23.175  0.00  0.00    +0.007 C 
ATOM      7  C   UNL     1      33.373 -15.314 -20.944  0.00  0.00    +0.019 C 
ATOM      8  C   UNL     1      32.489 -13.243 -21.869  0.00  0.00    +0.055 C 
ATOM      9  C   UNL     1      32.783 -14.057 -20.774  0.00  0.00    +0.006 C 
ATOM     10  C   UNL     1      33.746 -15.335 -25.890  0.00  0.00    +0.054 C 
ENDROOT
BRANCH   1  13
ATOM     11 CL   UNL     1      33.142 -21.003 -19.955  0.00  0.00    -0.077 Cl
ATOM     12  N   UNL     1      36.520 -19.232 -21.155  0.00  0.00    -0.208 NA
ATOM     13  C   UNL     1      34.663 -17.948 -22.020  0.00  0.00    +0.103 C 
ATOM     14  C   UNL     1      33.766 -18.829 -21.425  0.00  0.00    +0.037 C 
ATOM     15  C   UNL     1      36.017 -18.192 -21.856  0.00  0.00    +0.121 C 
ATOM     16  C   UNL     1      35.618 -20.066 -20.591  0.00  0.00    +0.236 C 
ATOM     17  C   UNL     1      34.245 -19.911 -20.694  0.00  0.00    +0.112 C 
BRANCH  16  18
ATOM     18  O   UNL     1      36.138 -21.118 -19.881  0.00  0.00    -0.460 OA
BRANCH  18  19
ATOM     19  C   UNL     1      36.761 -20.806 -18.640  0.00  0.00    +0.207 C 
BRANCH  19  20
ATOM     20  C   UNL     1      36.683 -22.010 -17.700  0.00  0.00    +0.044 C 
ATOM     21  C   UNL     1      35.233 -22.450 -17.515  0.00  0.00    +0.004 C 
ATOM     22  C   UNL     1      37.322 -21.702 -16.343  0.00  0.00    +0.004 C 
ENDBRANCH  19  20
ENDBRANCH  18  19
ENDBRANCH  16  18
ENDBRANCH   1  13
BRANCH   8  25
ATOM     23  O   UNL     1      30.882 -11.799 -20.924  0.00  0.00    -0.269 OA
ATOM     24  N   UNL     1      32.477 -10.819 -22.336  0.00  0.00    -0.185 N 
ATOM     25  C   UNL     1      31.875 -11.942 -21.654  0.00  0.00    +0.264 C 
ATOM     26  H   UNL     1      33.260 -11.006 -22.901  0.00  0.00    +0.176 HD
BRANCH  24  27
ATOM     27  S   UNL     1      31.946  -9.194 -22.248  0.00  0.00    +0.058 S 
ATOM     28  O   UNL     1      30.833  -8.983 -23.152  0.00  0.00    -0.154 OA
ATOM     29  O   UNL     1      31.857  -8.811 -20.852  0.00  0.00    -0.154 OA
ATOM     30  C   UNL     1      33.370  -8.382 -22.933  0.00  0.00    +0.200 C 
ENDBRANCH  24  27
ENDBRANCH   8  25
TORSDOF 6
ENDMDL
MODEL 4
REMARK VINA RESULT:     -10.2      3.955      9.659
REMARK  Name = 68109743
REMARK  6 active torsions:
REMARK  status: ('A' for Active; 'I' for Inactive)
REMARK    1  A    between atoms: N_1  and  C_13
REMARK    2  A    between atoms: C_8  and  C_25
REMARK    3  A    between atoms: C_16  and  O_18
REMARK    4  A    between atoms: O_18  and  C_19
REMARK    5  A    between atoms: C_19  and  C_20
REMARK    6  A    between atoms: N_24  and  S_27
REMARK                            x       y       z     vdW  Elec       q    Type
REMARK                         _______ _______ _______ _____ _____    ______ ____
ROOT
ATOM      1  N   UNL     1      33.713 -14.813 -23.556  0.00  0.00    -0.228 N 
ATOM      2  N   UNL     1      33.636 -15.284 -24.811  0.00  0.00    -0.169 NA
ATOM      3  C   UNL     1      34.222 -15.706 -22.651  0.00  0.00    +0.084 A 
ATOM      4  C   UNL     1      34.499 -16.853 -23.386  0.00  0.00    +0.033 A 
ATOM      5  C   UNL     1      34.115 -16.526 -24.705  0.00  0.00    +0.081 A 
ATOM      6  C   UNL     1      35.042 -17.974 -22.735  0.00  0.00    +0.007 C 
ATOM      7  C   UNL     1      34.458 -15.605 -21.279  0.00  0.00    +0.019 C 
ATOM      8  C   UNL     1      35.286 -17.894 -21.358  0.00  0.00    +0.055 C 
ATOM      9  C   UNL     1      34.999 -16.729 -20.645  0.00  0.00    +0.006 C 
ATOM     10  C   UNL     1      34.190 -17.379 -25.904  0.00  0.00    +0.054 C 
ENDROOT
BRANCH   1  13
ATOM     11 CL   UNL     1      30.680 -11.647 -20.909  0.00  0.00    -0.077 Cl
ATOM     12  N   UNL     1      33.470 -11.143 -23.728  0.00  0.00    -0.208 NA
ATOM     13  C   UNL     1      33.288 -13.513 -23.281  0.00  0.00    +0.103 C 
ATOM     14  C   UNL     1      32.302 -13.266 -22.332  0.00  0.00    +0.037 C 
ATOM     15  C   UNL     1      33.835 -12.426 -23.946  0.00  0.00    +0.121 C 
ATOM     16  C   UNL     1      32.509 -10.943 -22.799  0.00  0.00    +0.236 C 
ATOM     17  C   UNL     1      31.898 -11.959 -22.080  0.00  0.00    +0.112 C 
BRANCH  16  18
ATOM     18  O   UNL     1      32.145  -9.638 -22.586  0.00  0.00    -0.460 OA
BRANCH  18  19
ATOM     19  C   UNL     1      32.492  -8.704 -23.602  0.00  0.00    +0.207 C 
BRANCH  19  20
ATOM     20  C   UNL     1      33.253  -7.526 -22.990  0.00  0.00    +0.044 C 
ATOM     21  C   UNL     1      34.733  -7.595 -23.364  0.00  0.00    +0.004 C 
ATOM     22  C   UNL     1      33.091  -7.486 -21.468  0.00  0.00    +0.004 C 
ENDBRANCH  19  20
ENDBRANCH  18  19
ENDBRANCH  16  18
ENDBRANCH   1  13
BRANCH   8  25
ATOM     23  O   UNL     1      37.060 -19.129 -20.416  0.00  0.00    -0.269 OA
ATOM     24  N   UNL     1      34.923 -20.085 -20.280  0.00  0.00    -0.185 N 
ATOM     25  C   UNL     1      35.848 -19.042 -20.665  0.00  0.00    +0.264 C 
ATOM     26  H   UNL     1      33.977 -19.951 -20.512  0.00  0.00    +0.176 HD
BRANCH  24  27
ATOM     27  S   UNL     1      35.331 -21.530 -19.458  0.00  0.00    +0.058 S 
ATOM     28  O   UNL     1      35.819 -22.518 -20.399  0.00  0.00    -0.154 OA
ATOM     29  O   UNL     1      36.092 -21.189 -18.272  0.00  0.00    -0.154 OA
ATOM     30  C   UNL     1      33.712 -22.032 -18.925  0.00  0.00    +0.200 C 
ENDBRANCH  24  27
ENDBRANCH   8  25
TORSDOF 6
ENDMDL
MODEL 5
REMARK VINA RESULT:      -9.8      3.982      9.696
REMARK  Name = 68109743
REMARK  6 active torsions:
REMARK  status: ('A' for Active; 'I' for Inactive)
REMARK    1  A    between atoms: N_1  and  C_13
REMARK    2  A    between atoms: C_8  and  C_25
REMARK    3  A    between atoms: C_16  and  O_18
REMARK    4  A    between atoms: O_18  and  C_19
REMARK    5  A    between atoms: C_19  and  C_20
REMARK    6  A    between atoms: N_24  and  S_27
REMARK                            x       y       z     vdW  Elec       q    Type
REMARK                         _______ _______ _______ _____ _____    ______ ____
ROOT
ATOM      1  N   UNL     1      33.746 -14.864 -23.572  0.00  0.00    -0.228 N 
ATOM      2  N   UNL     1      33.709 -15.332 -24.831  0.00  0.00    -0.169 NA
ATOM      3  C   UNL     1      34.244 -15.753 -22.657  0.00  0.00    +0.084 A 
ATOM      4  C   UNL     1      34.556 -16.893 -23.388  0.00  0.00    +0.033 A 
ATOM      5  C   UNL     1      34.202 -16.568 -24.715  0.00  0.00    +0.081 A 
ATOM      6  C   UNL     1      35.098 -18.008 -22.726  0.00  0.00    +0.007 C 
ATOM      7  C   UNL     1      34.443 -15.652 -21.279  0.00  0.00    +0.019 C 
ATOM      8  C   UNL     1      35.305 -17.929 -21.343  0.00  0.00    +0.055 C 
ATOM      9  C   UNL     1      34.983 -16.770 -20.634  0.00  0.00    +0.006 C 
ATOM     10  C   UNL     1      34.321 -17.416 -25.914  0.00  0.00    +0.054 C 
ENDROOT
BRANCH   1  13
ATOM     11 CL   UNL     1      34.220  -9.812 -24.269  0.00  0.00    -0.077 Cl
ATOM     12  N   UNL     1      31.722 -12.126 -22.172  0.00  0.00    -0.208 NA
ATOM     13  C   UNL     1      33.295 -13.570 -23.305  0.00  0.00    +0.103 C 
ATOM     14  C   UNL     1      33.922 -12.462 -23.866  0.00  0.00    +0.037 C 
ATOM     15  C   UNL     1      32.209 -13.350 -22.472  0.00  0.00    +0.121 C 
ATOM     16  C   UNL     1      32.356 -11.073 -22.735  0.00  0.00    +0.236 C 
ATOM     17  C   UNL     1      33.450 -11.186 -23.579  0.00  0.00    +0.112 C 
BRANCH  16  18
ATOM     18  O   UNL     1      31.855  -9.836 -22.424  0.00  0.00    -0.460 OA
BRANCH  18  19
ATOM     19  C   UNL     1      32.170  -9.324 -21.134  0.00  0.00    +0.207 C 
BRANCH  19  20
ATOM     20  C   UNL     1      32.667  -7.882 -21.252  0.00  0.00    +0.044 C 
ATOM     21  C   UNL     1      32.613  -7.186 -19.894  0.00  0.00    +0.004 C 
ATOM     22  C   UNL     1      31.856  -7.094 -22.285  0.00  0.00    +0.004 C 
ENDBRANCH  19  20
ENDBRANCH  18  19
ENDBRANCH  16  18
ENDBRANCH   1  13
BRANCH   8  25
ATOM     23  O   UNL     1      37.076 -19.153 -20.380  0.00  0.00    -0.269 OA
ATOM     24  N   UNL     1      34.941 -20.113 -20.253  0.00  0.00    -0.185 N 
ATOM     25  C   UNL     1      35.865 -19.071 -20.638  0.00  0.00    +0.264 C 
ATOM     26  H   UNL     1      33.996 -19.984 -20.493  0.00  0.00    +0.176 HD
BRANCH  24  27
ATOM     27  S   UNL     1      35.347 -21.552 -19.419  0.00  0.00    +0.058 S 
ATOM     28  O   UNL     1      35.807 -22.559 -20.355  0.00  0.00    -0.154 OA
ATOM     29  O   UNL     1      36.132 -21.205 -18.251  0.00  0.00    -0.154 OA
ATOM     30  C   UNL     1      33.731 -22.029 -18.852  0.00  0.00    +0.200 C 
ENDBRANCH  24  27
ENDBRANCH   8  25
TORSDOF 6
ENDMDL
MODEL 6
REMARK VINA RESULT:      -9.6      5.117     10.738
REMARK  Name = 68109743
REMARK  6 active torsions:
REMARK  status: ('A' for Active; 'I' for Inactive)
REMARK    1  A    between atoms: N_1  and  C_13
REMARK    2  A    between atoms: C_8  and  C_25
REMARK    3  A    between atoms: C_16  and  O_18
REMARK    4  A    between atoms: O_18  and  C_19
REMARK    5  A    between atoms: C_19  and  C_20
REMARK    6  A    between atoms: N_24  and  S_27
REMARK                            x       y       z     vdW  Elec       q    Type
REMARK                         _______ _______ _______ _____ _____    ______ ____
ROOT
ATOM      1  N   UNL     1      33.418 -12.031 -24.396  0.00  0.00    -0.228 N 
ATOM      2  N   UNL     1      33.200 -12.059 -25.721  0.00  0.00    -0.169 NA
ATOM      3  C   UNL     1      33.764 -13.242 -23.858  0.00  0.00    +0.084 A 
ATOM      4  C   UNL     1      33.771 -14.129 -24.928  0.00  0.00    +0.033 A 
ATOM      5  C   UNL     1      33.415 -13.337 -26.042  0.00  0.00    +0.081 A 
ATOM      6  C   UNL     1      34.094 -15.477 -24.702  0.00  0.00    +0.007 C 
ATOM      7  C   UNL     1      34.066 -13.624 -22.550  0.00  0.00    +0.019 C 
ATOM      8  C   UNL     1      34.400 -15.882 -23.397  0.00  0.00    +0.055 C 
ATOM      9  C   UNL     1      34.386 -14.970 -22.341  0.00  0.00    +0.006 C 
ATOM     10  C   UNL     1      33.269 -13.767 -27.444  0.00  0.00    +0.054 C 
ENDROOT
BRANCH   1  13
ATOM     11 CL   UNL     1      35.060  -7.265 -23.490  0.00  0.00    -0.077 Cl
ATOM     12  N   UNL     1      32.084  -9.519 -22.057  0.00  0.00    -0.208 NA
ATOM     13  C   UNL     1      33.281 -10.828 -23.701  0.00  0.00    +0.103 C 
ATOM     14  C   UNL     1      34.150  -9.766 -23.926  0.00  0.00    +0.037 C 
ATOM     15  C   UNL     1      32.273 -10.655 -22.764  0.00  0.00    +0.121 C 
ATOM     16  C   UNL     1      32.949  -8.509 -22.303  0.00  0.00    +0.236 C 
ATOM     17  C   UNL     1      33.988  -8.581 -23.217  0.00  0.00    +0.112 C 
BRANCH  16  18
ATOM     18  O   UNL     1      32.749  -7.361 -21.580  0.00  0.00    -0.460 OA
BRANCH  18  19
ATOM     19  C   UNL     1      31.556  -6.634 -21.853  0.00  0.00    +0.207 C 
BRANCH  19  20
ATOM     20  C   UNL     1      31.753  -5.753 -23.088  0.00  0.00    +0.044 C 
ATOM     21  C   UNL     1      31.197  -4.353 -22.838  0.00  0.00    +0.004 C 
ATOM     22  C   UNL     1      31.097  -6.372 -24.325  0.00  0.00    +0.004 C 
ENDBRANCH  19  20
ENDBRANCH  18  19
ENDBRANCH  16  18
ENDBRANCH   1  13
BRANCH   8  25
ATOM     23  O   UNL     1      35.269 -17.989 -24.004  0.00  0.00    -0.269 OA
ATOM     24  N   UNL     1      34.419 -17.788 -21.829  0.00  0.00    -0.185 N 
ATOM     25  C   UNL     1      34.737 -17.273 -23.141  0.00  0.00    +0.264 C 
ATOM     26  H   UNL     1      33.995 -17.166 -21.195  0.00  0.00    +0.176 HD
BRANCH  24  27
ATOM     27  S   UNL     1      34.713 -19.383 -21.281  0.00  0.00    +0.058 S 
ATOM     28  O   UNL     1      34.938 -20.264 -22.410  0.00  0.00    -0.154 OA
ATOM     29  O   UNL     1      35.653 -19.328 -20.179  0.00  0.00    -0.154 OA
ATOM     30  C   UNL     1      33.116 -19.760 -20.601  0.00  0.00    +0.200 C 
ENDBRANCH  24  27
ENDBRANCH   8  25
TORSDOF 6
ENDMDL
MODEL 7
REMARK VINA RESULT:      -9.5      2.270      3.055
REMARK  Name = 68109743
REMARK  6 active torsions:
REMARK  status: ('A' for Active; 'I' for Inactive)
REMARK    1  A    between atoms: N_1  and  C_13
REMARK    2  A    between atoms: C_8  and  C_25
REMARK    3  A    between atoms: C_16  and  O_18
REMARK    4  A    between atoms: O_18  and  C_19
REMARK    5  A    between atoms: C_19  and  C_20
REMARK    6  A    between atoms: N_24  and  S_27
REMARK                            x       y       z     vdW  Elec       q    Type
REMARK                         _______ _______ _______ _____ _____    ______ ____
ROOT
ATOM      1  N   UNL     1      34.344 -18.770 -22.127  0.00  0.00    -0.228 N 
ATOM      2  N   UNL     1      34.687 -19.169 -23.362  0.00  0.00    -0.169 NA
ATOM      3  C   UNL     1      34.056 -17.435 -22.027  0.00  0.00    +0.084 A 
ATOM      4  C   UNL     1      34.229 -16.927 -23.309  0.00  0.00    +0.033 A 
ATOM      5  C   UNL     1      34.616 -18.045 -24.080  0.00  0.00    +0.081 A 
ATOM      6  C   UNL     1      34.006 -15.560 -23.544  0.00  0.00    +0.007 C 
ATOM      7  C   UNL     1      33.667 -16.647 -20.942  0.00  0.00    +0.019 C 
ATOM      8  C   UNL     1      33.616 -14.752 -22.469  0.00  0.00    +0.055 C 
ATOM      9  C   UNL     1      33.450 -15.288 -21.191  0.00  0.00    +0.006 C 
ATOM     10  C   UNL     1      34.932 -18.083 -25.519  0.00  0.00    +0.054 C 
ENDROOT
BRANCH   1  13
ATOM     11 CL   UNL     1      36.857 -21.676 -18.740  0.00  0.00    -0.077 Cl
ATOM     12  N   UNL     1      32.998 -21.092 -19.606  0.00  0.00    -0.208 NA
ATOM     13  C   UNL     1      34.308 -19.701 -21.088  0.00  0.00    +0.103 C 
ATOM     14  C   UNL     1      35.480 -20.167 -20.501  0.00  0.00    +0.037 C 
ATOM     15  C   UNL     1      33.103 -20.191 -20.608  0.00  0.00    +0.121 C 
ATOM     16  C   UNL     1      34.158 -21.522 -19.061  0.00  0.00    +0.236 C 
ATOM     17  C   UNL     1      35.412 -21.096 -19.468  0.00  0.00    +0.112 C 
BRANCH  16  18
ATOM     18  O   UNL     1      34.039 -22.436 -18.046  0.00  0.00    -0.460 OA
BRANCH  18  19
ATOM     19  C   UNL     1      32.728 -22.908 -17.761  0.00  0.00    +0.207 C 
BRANCH  19  20
ATOM     20  C   UNL     1      32.689 -23.529 -16.363  0.00  0.00    +0.044 C 
ATOM     21  C   UNL     1      31.514 -22.970 -15.564  0.00  0.00    +0.004 C 
ATOM     22  C   UNL     1      34.003 -23.295 -15.612  0.00  0.00    +0.004 C 
ENDBRANCH  19  20
ENDBRANCH  18  19
ENDBRANCH  16  18
ENDBRANCH   1  13
BRANCH   8  25
ATOM     23  O   UNL     1      32.589 -12.684 -21.989  0.00  0.00    -0.269 OA
ATOM     24  N   UNL     1      34.111 -12.715 -23.772  0.00  0.00    -0.185 N 
ATOM     25  C   UNL     1      33.380 -13.334 -22.690  0.00  0.00    +0.264 C 
ATOM     26  H   UNL     1      34.718 -13.291 -24.289  0.00  0.00    +0.176 HD
BRANCH  24  27
ATOM     27  S   UNL     1      34.011 -11.069 -24.234  0.00  0.00    +0.058 S 
ATOM     28  O   UNL     1      32.677 -10.561 -23.982  0.00  0.00    -0.154 OA
ATOM     29  O   UNL     1      35.181 -10.376 -23.734  0.00  0.00    -0.154 OA
ATOM     30  C   UNL     1      34.207 -11.245 -25.991  0.00  0.00    +0.200 C 
ENDBRANCH  24  27
ENDBRANCH   8  25
TORSDOF 6
ENDMDL
MODEL 8
REMARK VINA RESULT:      -9.1      4.238      6.710
REMARK  Name = 68109743
REMARK  6 active torsions:
REMARK  status: ('A' for Active; 'I' for Inactive)
REMARK    1  A    between atoms: N_1  and  C_13
REMARK    2  A    between atoms: C_8  and  C_25
REMARK    3  A    between atoms: C_16  and  O_18
REMARK    4  A    between atoms: O_18  and  C_19
REMARK    5  A    between atoms: C_19  and  C_20
REMARK    6  A    between atoms: N_24  and  S_27
REMARK                            x       y       z     vdW  Elec       q    Type
REMARK                         _______ _______ _______ _____ _____    ______ ____
ROOT
ATOM      1  N   UNL     1      32.782 -12.772 -22.402  0.00  0.00    -0.228 N 
ATOM      2  N   UNL     1      31.786 -12.770 -21.501  0.00  0.00    -0.169 NA
ATOM      3  C   UNL     1      33.057 -11.542 -22.938  0.00  0.00    +0.084 A 
ATOM      4  C   UNL     1      32.160 -10.670 -22.330  0.00  0.00    +0.033 A 
ATOM      5  C   UNL     1      31.409 -11.490 -21.460  0.00  0.00    +0.081 A 
ATOM      6  C   UNL     1      32.186  -9.308 -22.672  0.00  0.00    +0.007 C 
ATOM      7  C   UNL     1      33.997 -11.131 -23.884  0.00  0.00    +0.019 C 
ATOM      8  C   UNL     1      33.121  -8.874 -23.620  0.00  0.00    +0.055 C 
ATOM      9  C   UNL     1      34.011  -9.771 -24.214  0.00  0.00    +0.006 C 
ATOM     10  C   UNL     1      30.313 -11.086 -20.563  0.00  0.00    +0.054 C 
ENDROOT
BRANCH   1  13
ATOM     11 CL   UNL     1      33.836 -16.452 -25.804  0.00  0.00    -0.077 Cl
ATOM     12  N   UNL     1      34.862 -15.783 -21.998  0.00  0.00    -0.208 NA
ATOM     13  C   UNL     1      33.430 -13.969 -22.709  0.00  0.00    +0.103 C 
ATOM     14  C   UNL     1      33.316 -14.543 -23.971  0.00  0.00    +0.037 C 
ATOM     15  C   UNL     1      34.209 -14.623 -21.767  0.00  0.00    +0.121 C 
ATOM     16  C   UNL     1      34.728 -16.311 -23.235  0.00  0.00    +0.236 C 
ATOM     17  C   UNL     1      33.974 -15.737 -24.247  0.00  0.00    +0.112 C 
BRANCH  16  18
ATOM     18  O   UNL     1      35.395 -17.487 -23.460  0.00  0.00    -0.460 OA
BRANCH  18  19
ATOM     19  C   UNL     1      34.638 -18.685 -23.332  0.00  0.00    +0.207 C 
BRANCH  19  20
ATOM     20  C   UNL     1      35.024 -19.412 -22.041  0.00  0.00    +0.044 C 
ATOM     21  C   UNL     1      33.902 -19.303 -21.011  0.00  0.00    +0.004 C 
ATOM     22  C   UNL     1      36.331 -18.864 -21.462  0.00  0.00    +0.004 C 
ENDBRANCH  19  20
ENDBRANCH  18  19
ENDBRANCH  16  18
ENDBRANCH   1  13
BRANCH   8  25
ATOM     23  O   UNL     1      34.238  -6.872 -24.176  0.00  0.00    -0.269 OA
ATOM     24  N   UNL     1      31.895  -6.791 -24.122  0.00  0.00    -0.185 N 
ATOM     25  C   UNL     1      33.165  -7.468 -23.988  0.00  0.00    +0.264 C 
ATOM     26  H   UNL     1      31.085  -7.324 -23.955  0.00  0.00    +0.176 HD
BRANCH  24  27
ATOM     27  S   UNL     1      31.678  -5.146 -24.544  0.00  0.00    +0.058 S 
ATOM     28  O   UNL     1      32.770  -4.698 -25.384  0.00  0.00    -0.154 OA
ATOM     29  O   UNL     1      30.299  -4.949 -24.944  0.00  0.00    -0.154 OA
ATOM     30  C   UNL     1      31.878  -4.403 -22.942  0.00  0.00    +0.200 C 
ENDBRANCH  24  27
ENDBRANCH   8  25
TORSDOF 6
ENDMDL
MODEL 9
REMARK VINA RESULT:      -9.0      5.042     10.630
REMARK  Name = 68109743
REMARK  6 active torsions:
REMARK  status: ('A' for Active; 'I' for Inactive)
REMARK    1  A    between atoms: N_1  and  C_13
REMARK    2  A    between atoms: C_8  and  C_25
REMARK    3  A    between atoms: C_16  and  O_18
REMARK    4  A    between atoms: O_18  and  C_19
REMARK    5  A    between atoms: C_19  and  C_20
REMARK    6  A    between atoms: N_24  and  S_27
REMARK                            x       y       z     vdW  Elec       q    Type
REMARK                         _______ _______ _______ _____ _____    ______ ____
ROOT
ATOM      1  N   UNL     1      34.054 -21.806 -18.661  0.00  0.00    -0.228 N 
ATOM      2  N   UNL     1      32.894 -22.402 -18.343  0.00  0.00    -0.169 NA
ATOM      3  C   UNL     1      35.096 -22.126 -17.832  0.00  0.00    +0.084 A 
ATOM      4  C   UNL     1      34.563 -23.006 -16.898  0.00  0.00    +0.033 A 
ATOM      5  C   UNL     1      33.206 -23.132 -17.269  0.00  0.00    +0.081 A 
ATOM      6  C   UNL     1      35.393 -23.527 -15.891  0.00  0.00    +0.007 C 
ATOM      7  C   UNL     1      36.434 -21.726 -17.825  0.00  0.00    +0.019 C 
ATOM      8  C   UNL     1      36.738 -23.138 -15.865  0.00  0.00    +0.055 C 
ATOM      9  C   UNL     1      37.248 -22.253 -16.816  0.00  0.00    +0.006 C 
ATOM     10  C   UNL     1      32.166 -23.947 -16.618  0.00  0.00    +0.054 C 
ENDROOT
BRANCH   1  13
ATOM     11 CL   UNL     1      32.036 -17.901 -21.289  0.00  0.00    -0.077 Cl
ATOM     12  N   UNL     1      35.236 -20.248 -21.781  0.00  0.00    -0.208 NA
ATOM     13  C   UNL     1      34.108 -20.946 -19.759  0.00  0.00    +0.103 C 
ATOM     14  C   UNL     1      33.145 -19.961 -19.947  0.00  0.00    +0.037 C 
ATOM     15  C   UNL     1      35.125 -21.047 -20.697  0.00  0.00    +0.121 C 
ATOM     16  C   UNL     1      34.281 -19.303 -21.930  0.00  0.00    +0.236 C 
ATOM     17  C   UNL     1      33.225 -19.120 -21.051  0.00  0.00    +0.112 C 
BRANCH  16  18
ATOM     18  O   UNL     1      34.403 -18.497 -23.033  0.00  0.00    -0.460 OA
BRANCH  18  19
ATOM     19  C   UNL     1      35.505 -17.597 -23.048  0.00  0.00    +0.207 C 
BRANCH  19  20
ATOM     20  C   UNL     1      35.081 -16.264 -23.670  0.00  0.00    +0.044 C 
ATOM     21  C   UNL     1      34.310 -15.424 -22.654  0.00  0.00    +0.004 C 
ATOM     22  C   UNL     1      34.240 -16.479 -24.931  0.00  0.00    +0.004 C 
ENDBRANCH  19  20
ENDBRANCH  18  19
ENDBRANCH  16  18
ENDBRANCH   1  13
BRANCH   8  25
ATOM     23  O   UNL     1      37.663 -23.169 -13.696  0.00  0.00    -0.269 OA
ATOM     24  N   UNL     1      38.434 -24.801 -15.192  0.00  0.00    -0.185 N 
ATOM     25  C   UNL     1      37.614 -23.666 -14.831  0.00  0.00    +0.264 C 
ATOM     26  H   UNL     1      38.347 -25.141 -16.111  0.00  0.00    +0.176 HD
BRANCH  24  27
ATOM     27  S   UNL     1      39.542 -25.602 -14.163  0.00  0.00    +0.058 S 
ATOM     28  O   UNL     1      39.842 -26.921 -14.683  0.00  0.00    -0.154 OA
ATOM     29  O   UNL     1      40.603 -24.678 -13.815  0.00  0.00    -0.154 OA
ATOM     30  C   UNL     1      38.517 -25.801 -12.725  0.00  0.00    +0.200 C 
ENDBRANCH  24  27
ENDBRANCH   8  25
TORSDOF 6
ENDMDL
