MODEL 1
REMARK VINA RESULT:     -11.4      0.000      0.000
REMARK  Name = 10309899
REMARK  4 active torsions:
REMARK  status: ('A' for Active; 'I' for Inactive)
REMARK    1  A    between atoms: N_1  and  S_19
REMARK    2  A    between atoms: C_12  and  C_15
REMARK    3  A    between atoms: N_14  and  O_17
REMARK    4  A    between atoms: S_19  and  C_22
REMARK                            x       y       z     vdW  Elec       q    Type
REMARK                         _______ _______ _______ _____ _____    ______ ____
ROOT
ATOM      1  N   UNL     1      35.087 -19.822 -21.608  0.00  0.00    -0.152 NA
ATOM      2  N   UNL     1      34.124 -21.231 -19.344  0.00  0.00    -0.250 N 
ATOM      3  N   UNL     1      32.305 -22.170 -18.169  0.00  0.00    -0.180 NA
ATOM      4  N   UNL     1      34.569 -22.570 -17.451  0.00  0.00    -0.203 NA
ATOM      5  C   UNL     1      36.047 -20.346 -20.596  0.00  0.00    +0.118 C 
ATOM      6  C   UNL     1      33.806 -19.411 -20.967  0.00  0.00    +0.118 C 
ATOM      7  C   UNL     1      35.442 -21.563 -19.904  0.00  0.00    +0.120 C 
ATOM      8  C   UNL     1      33.171 -20.614 -20.274  0.00  0.00    +0.120 C 
ATOM      9  C   UNL     1      33.651 -22.016 -18.286  0.00  0.00    +0.090 C 
ATOM     10  C   UNL     1      31.883 -22.932 -17.139  0.00  0.00    +0.113 C 
ATOM     11  C   UNL     1      34.078 -23.321 -16.443  0.00  0.00    +0.170 C 
ATOM     12  C   UNL     1      32.732 -23.538 -16.236  0.00  0.00    +0.078 C 
ENDROOT
BRANCH  12  15
ATOM     13  O   UNL     1      31.072 -24.785 -15.136  0.00  0.00    -0.268 OA
ATOM     14  N   UNL     1      33.120 -24.608 -14.093  0.00  0.00    -0.194 N 
ATOM     15  C   UNL     1      32.241 -24.351 -15.139  0.00  0.00    +0.267 C 
ATOM     16  H   UNL     1      34.041 -24.262 -14.099  0.00  0.00    +0.183 HD
BRANCH  14  17
ATOM     17  O   UNL     1      32.634 -25.382 -13.030  0.00  0.00    -0.295 OA
ATOM     18  H   UNL     1      31.677 -25.251 -12.944  0.00  0.00    +0.241 HD
ENDBRANCH  14  17
ENDBRANCH  12  15
BRANCH   1  19
ATOM     19  S   UNL     1      35.738 -18.702 -22.730  0.00  0.00    +0.063 S 
ATOM     20  O   UNL     1      35.250 -19.023 -24.054  0.00  0.00    -0.153 OA
ATOM     21  O   UNL     1      37.154 -18.550 -22.472  0.00  0.00    -0.153 OA
BRANCH  19  22
ATOM     22  C   UNL     1      34.928 -17.227 -22.197  0.00  0.00    +0.122 C 
ATOM     23  C   UNL     1      34.265 -16.444 -23.127  0.00  0.00    +0.020 C 
ATOM     24  C   UNL     1      34.968 -16.879 -20.860  0.00  0.00    +0.020 C 
ATOM     25  C   UNL     1      33.616 -15.267 -22.719  0.00  0.00    +0.001 C 
ATOM     26  C   UNL     1      33.648 -14.896 -21.353  0.00  0.00    +0.000 C 
ATOM     27  C   UNL     1      34.328 -15.713 -20.436  0.00  0.00    +0.001 C 
ATOM     28  C   UNL     1      32.935 -14.450 -23.636  0.00  0.00    +0.000 C 
ATOM     29  C   UNL     1      32.999 -13.720 -20.946  0.00  0.00    +0.000 C 
ATOM     30  C   UNL     1      32.296 -13.284 -23.213  0.00  0.00    +0.000 C 
ATOM     31  C   UNL     1      32.328 -12.920 -21.871  0.00  0.00    +0.000 C 
ENDBRANCH  19  22
ENDBRANCH   1  19
TORSDOF 4
ENDMDL
MODEL 2
REMARK VINA RESULT:     -11.3      0.588      1.887
REMARK  Name = 10309899
REMARK  4 active torsions:
REMARK  status: ('A' for Active; 'I' for Inactive)
REMARK    1  A    between atoms: N_1  and  S_19
REMARK    2  A    between atoms: C_12  and  C_15
REMARK    3  A    between atoms: N_14  and  O_17
REMARK    4  A    between atoms: S_19  and  C_22
REMARK                            x       y       z     vdW  Elec       q    Type
REMARK                         _______ _______ _______ _____ _____    ______ ____
ROOT
ATOM      1  N   UNL     1      35.121 -19.608 -21.503  0.00  0.00    -0.152 NA
ATOM      2  N   UNL     1      34.183 -21.301 -19.430  0.00  0.00    -0.250 N 
ATOM      3  N   UNL     1      34.621 -22.504 -17.448  0.00  0.00    -0.180 NA
ATOM      4  N   UNL     1      32.369 -22.266 -18.268  0.00  0.00    -0.203 NA
ATOM      5  C   UNL     1      33.679 -19.977 -21.442  0.00  0.00    +0.118 C 
ATOM      6  C   UNL     1      35.980 -20.721 -21.007  0.00  0.00    +0.118 C 
ATOM      7  C   UNL     1      33.292 -20.278 -19.998  0.00  0.00    +0.120 C 
ATOM      8  C   UNL     1      35.621 -21.037 -19.557  0.00  0.00    +0.120 C 
ATOM      9  C   UNL     1      33.708 -22.049 -18.347  0.00  0.00    +0.090 C 
ATOM     10  C   UNL     1      34.130 -23.221 -16.416  0.00  0.00    +0.113 C 
ATOM     11  C   UNL     1      31.946 -22.990 -17.211  0.00  0.00    +0.170 C 
ATOM     12  C   UNL     1      32.789 -23.498 -16.244  0.00  0.00    +0.078 C 
ENDROOT
BRANCH  12  15
ATOM     13  O   UNL     1      31.105 -24.635 -15.066  0.00  0.00    -0.268 OA
ATOM     14  N   UNL     1      33.203 -24.580 -14.113  0.00  0.00    -0.194 N 
ATOM     15  C   UNL     1      32.297 -24.274 -15.122  0.00  0.00    +0.267 C 
ATOM     16  H   UNL     1      34.143 -24.291 -14.161  0.00  0.00    +0.183 HD
BRANCH  14  17
ATOM     17  O   UNL     1      32.718 -25.318 -13.024  0.00  0.00    -0.295 OA
ATOM     18  H   UNL     1      33.085 -24.960 -12.201  0.00  0.00    +0.241 HD
ENDBRANCH  14  17
ENDBRANCH  12  15
BRANCH   1  19
ATOM     19  S   UNL     1      35.633 -18.883 -22.969  0.00  0.00    +0.063 S 
ATOM     20  O   UNL     1      35.110 -19.647 -24.081  0.00  0.00    -0.153 OA
ATOM     21  O   UNL     1      37.044 -18.577 -22.872  0.00  0.00    -0.153 OA
BRANCH  19  22
ATOM     22  C   UNL     1      34.740 -17.363 -22.888  0.00  0.00    +0.122 C 
ATOM     23  C   UNL     1      34.355 -16.867 -21.654  0.00  0.00    +0.020 C 
ATOM     24  C   UNL     1      34.441 -16.692 -24.059  0.00  0.00    +0.020 C 
ATOM     25  C   UNL     1      33.643 -15.659 -21.574  0.00  0.00    +0.001 C 
ATOM     26  C   UNL     1      33.329 -14.960 -22.763  0.00  0.00    +0.000 C 
ATOM     27  C   UNL     1      33.735 -15.490 -23.999  0.00  0.00    +0.001 C 
ATOM     28  C   UNL     1      33.237 -15.128 -20.338  0.00  0.00    +0.000 C 
ATOM     29  C   UNL     1      32.617 -13.752 -22.682  0.00  0.00    +0.000 C 
ATOM     30  C   UNL     1      32.530 -13.927 -20.277  0.00  0.00    +0.000 C 
ATOM     31  C   UNL     1      32.221 -13.240 -21.447  0.00  0.00    +0.000 C 
ENDBRANCH  19  22
ENDBRANCH   1  19
TORSDOF 4
ENDMDL
MODEL 3
REMARK VINA RESULT:     -11.1      1.529      2.128
REMARK  Name = 10309899
REMARK  4 active torsions:
REMARK  status: ('A' for Active; 'I' for Inactive)
REMARK    1  A    between atoms: N_1  and  S_19
REMARK    2  A    between atoms: C_12  and  C_15
REMARK    3  A    between atoms: N_14  and  O_17
REMARK    4  A    between atoms: S_19  and  C_22
REMARK                            x       y       z     vdW  Elec       q    Type
REMARK                         _______ _______ _______ _____ _____    ______ ____
ROOT
ATOM      1  N   UNL     1      35.421 -19.509 -21.202  0.00  0.00    -0.152 NA
ATOM      2  N   UNL     1      35.459 -21.312 -19.015  0.00  0.00    -0.250 N 
ATOM      3  N   UNL     1      36.485 -22.053 -17.022  0.00  0.00    -0.180 NA
ATOM      4  N   UNL     1      34.349 -22.933 -17.705  0.00  0.00    -0.203 NA
ATOM      5  C   UNL     1      34.319 -20.498 -21.036  0.00  0.00    +0.118 C 
ATOM      6  C   UNL     1      36.717 -20.067 -20.723  0.00  0.00    +0.118 C 
ATOM      7  C   UNL     1      34.174 -20.854 -19.560  0.00  0.00    +0.120 C 
ATOM      8  C   UNL     1      36.604 -20.423 -19.242  0.00  0.00    +0.120 C 
ATOM      9  C   UNL     1      35.430 -22.126 -17.877  0.00  0.00    +0.090 C 
ATOM     10  C   UNL     1      36.424 -22.850 -15.936  0.00  0.00    +0.113 C 
ATOM     11  C   UNL     1      34.353 -23.703 -16.597  0.00  0.00    +0.170 C 
ATOM     12  C   UNL     1      35.373 -23.704 -15.669  0.00  0.00    +0.078 C 
ENDROOT
BRANCH  12  15
ATOM     13  O   UNL     1      35.995 -25.610 -14.446  0.00  0.00    -0.268 OA
ATOM     14  N   UNL     1      34.551 -24.131 -13.427  0.00  0.00    -0.194 N 
ATOM     15  C   UNL     1      35.343 -24.548 -14.490  0.00  0.00    +0.267 C 
ATOM     16  H   UNL     1      34.037 -23.292 -13.467  0.00  0.00    +0.183 HD
BRANCH  14  17
ATOM     17  O   UNL     1      34.515 -24.959 -12.296  0.00  0.00    -0.295 OA
ATOM     18  H   UNL     1      33.646 -25.384 -12.233  0.00  0.00    +0.241 HD
ENDBRANCH  14  17
ENDBRANCH  12  15
BRANCH   1  19
ATOM     19  S   UNL     1      35.479 -18.721 -22.723  0.00  0.00    +0.063 S 
ATOM     20  O   UNL     1      34.702 -19.482 -23.678  0.00  0.00    -0.153 OA
ATOM     21  O   UNL     1      36.848 -18.346 -23.005  0.00  0.00    -0.153 OA
BRANCH  19  22
ATOM     22  C   UNL     1      34.581 -17.251 -22.342  0.00  0.00    +0.122 C 
ATOM     23  C   UNL     1      34.529 -16.227 -23.273  0.00  0.00    +0.020 C 
ATOM     24  C   UNL     1      33.942 -17.147 -21.120  0.00  0.00    +0.020 C 
ATOM     25  C   UNL     1      33.818 -15.050 -22.984  0.00  0.00    +0.001 C 
ATOM     26  C   UNL     1      33.159 -14.927 -21.738  0.00  0.00    +0.000 C 
ATOM     27  C   UNL     1      33.231 -15.985 -20.816  0.00  0.00    +0.001 C 
ATOM     28  C   UNL     1      33.746 -13.993 -23.906  0.00  0.00    +0.000 C 
ATOM     29  C   UNL     1      32.448 -13.751 -21.450  0.00  0.00    +0.000 C 
ATOM     30  C   UNL     1      33.036 -12.831 -23.603  0.00  0.00    +0.000 C 
ATOM     31  C   UNL     1      32.388 -12.710 -22.377  0.00  0.00    +0.000 C 
ENDBRANCH  19  22
ENDBRANCH   1  19
TORSDOF 4
ENDMDL
MODEL 4
REMARK VINA RESULT:     -10.8      3.449      9.414
REMARK  Name = 10309899
REMARK  4 active torsions:
REMARK  status: ('A' for Active; 'I' for Inactive)
REMARK    1  A    between atoms: N_1  and  S_19
REMARK    2  A    between atoms: C_12  and  C_15
REMARK    3  A    between atoms: N_14  and  O_17
REMARK    4  A    between atoms: S_19  and  C_22
REMARK                            x       y       z     vdW  Elec       q    Type
REMARK                         _______ _______ _______ _____ _____    ______ ____
ROOT
ATOM      1  N   UNL     1      35.406 -23.280 -16.630  0.00  0.00    -0.152 NA
ATOM      2  N   UNL     1      35.310 -21.420 -18.768  0.00  0.00    -0.250 N 
ATOM      3  N   UNL     1      36.442 -19.917 -20.194  0.00  0.00    -0.180 NA
ATOM      4  N   UNL     1      34.136 -20.488 -20.592  0.00  0.00    -0.203 NA
ATOM      5  C   UNL     1      34.127 -23.050 -17.357  0.00  0.00    +0.118 C 
ATOM      6  C   UNL     1      36.215 -22.030 -16.564  0.00  0.00    +0.118 C 
ATOM      7  C   UNL     1      34.426 -22.594 -18.782  0.00  0.00    +0.120 C 
ATOM      8  C   UNL     1      36.540 -21.555 -17.978  0.00  0.00    +0.120 C 
ATOM      9  C   UNL     1      35.295 -20.580 -19.888  0.00  0.00    +0.090 C 
ATOM     10  C   UNL     1      36.393 -19.118 -21.279  0.00  0.00    +0.113 C 
ATOM     11  C   UNL     1      34.157 -19.671 -21.665  0.00  0.00    +0.170 C 
ATOM     12  C   UNL     1      35.267 -18.954 -22.060  0.00  0.00    +0.078 C 
ENDROOT
BRANCH  12  15
ATOM     13  O   UNL     1      34.942 -18.522 -24.346  0.00  0.00    -0.268 OA
ATOM     14  N   UNL     1      35.609 -16.754 -23.025  0.00  0.00    -0.194 N 
ATOM     15  C   UNL     1      35.251 -18.083 -23.221  0.00  0.00    +0.267 C 
ATOM     16  H   UNL     1      35.854 -16.413 -22.135  0.00  0.00    +0.183 HD
BRANCH  14  17
ATOM     17  O   UNL     1      35.605 -15.922 -24.154  0.00  0.00    -0.295 OA
ATOM     18  H   UNL     1      36.172 -15.153 -23.990  0.00  0.00    +0.241 HD
ENDBRANCH  14  17
ENDBRANCH  12  15
BRANCH   1  19
ATOM     19  S   UNL     1      35.270 -24.145 -15.157  0.00  0.00    +0.063 S 
ATOM     20  O   UNL     1      35.794 -23.331 -14.082  0.00  0.00    -0.153 OA
ATOM     21  O   UNL     1      35.738 -25.499 -15.364  0.00  0.00    -0.153 OA
BRANCH  19  22
ATOM     22  C   UNL     1      33.513 -24.196 -14.992  0.00  0.00    +0.122 C 
ATOM     23  C   UNL     1      32.730 -23.435 -15.843  0.00  0.00    +0.020 C 
ATOM     24  C   UNL     1      32.950 -24.996 -14.016  0.00  0.00    +0.020 C 
ATOM     25  C   UNL     1      31.331 -23.463 -15.723  0.00  0.00    +0.001 C 
ATOM     26  C   UNL     1      30.737 -24.277 -14.729  0.00  0.00    +0.000 C 
ATOM     27  C   UNL     1      31.561 -25.038 -13.882  0.00  0.00    +0.001 C 
ATOM     28  C   UNL     1      30.507 -22.704 -16.570  0.00  0.00    +0.000 C 
ATOM     29  C   UNL     1      29.338 -24.306 -14.610  0.00  0.00    +0.000 C 
ATOM     30  C   UNL     1      29.119 -22.744 -16.436  0.00  0.00    +0.000 C 
ATOM     31  C   UNL     1      28.536 -23.544 -15.458  0.00  0.00    +0.000 C 
ENDBRANCH  19  22
ENDBRANCH   1  19
TORSDOF 4
ENDMDL
MODEL 5
REMARK VINA RESULT:     -10.8      2.580      3.601
REMARK  Name = 10309899
REMARK  4 active torsions:
REMARK  status: ('A' for Active; 'I' for Inactive)
REMARK    1  A    between atoms: N_1  and  S_19
REMARK    2  A    between atoms: C_12  and  C_15
REMARK    3  A    between atoms: N_14  and  O_17
REMARK    4  A    between atoms: S_19  and  C_22
REMARK                            x       y       z     vdW  Elec       q    Type
REMARK                         _______ _______ _______ _____ _____    ______ ____
ROOT
ATOM      1  N   UNL     1      34.779 -17.899 -23.123  0.00  0.00    -0.152 NA
ATOM      2  N   UNL     1      35.405 -19.683 -21.010  0.00  0.00    -0.250 N 
ATOM      3  N   UNL     1      36.797 -20.255 -19.191  0.00  0.00    -0.180 NA
ATOM      4  N   UNL     1      34.761 -21.473 -19.612  0.00  0.00    -0.203 NA
ATOM      5  C   UNL     1      33.887 -19.058 -22.841  0.00  0.00    +0.118 C 
ATOM      6  C   UNL     1      36.202 -18.237 -22.833  0.00  0.00    +0.118 C 
ATOM      7  C   UNL     1      34.001 -19.441 -21.369  0.00  0.00    +0.120 C 
ATOM      8  C   UNL     1      36.348 -18.615 -21.361  0.00  0.00    +0.120 C 
ATOM      9  C   UNL     1      35.663 -20.498 -19.901  0.00  0.00    +0.090 C 
ATOM     10  C   UNL     1      37.013 -21.058 -18.129  0.00  0.00    +0.113 C 
ATOM     11  C   UNL     1      35.040 -22.239 -18.536  0.00  0.00    +0.170 C 
ATOM     12  C   UNL     1      36.162 -22.075 -17.750  0.00  0.00    +0.078 C 
ENDROOT
BRANCH  12  15
ATOM     13  O   UNL     1      35.537 -23.645 -16.118  0.00  0.00    -0.268 OA
ATOM     14  N   UNL     1      37.708 -22.873 -16.059  0.00  0.00    -0.194 N 
ATOM     15  C   UNL     1      36.429 -22.920 -16.601  0.00  0.00    +0.267 C 
ATOM     16  H   UNL     1      38.409 -22.297 -16.444  0.00  0.00    +0.183 HD
BRANCH  14  17
ATOM     17  O   UNL     1      37.955 -23.681 -14.941  0.00  0.00    -0.295 OA
ATOM     18  H   UNL     1      37.119 -24.046 -14.614  0.00  0.00    +0.241 HD
ENDBRANCH  14  17
ENDBRANCH  12  15
BRANCH   1  19
ATOM     19  S   UNL     1      34.503 -17.104 -24.616  0.00  0.00    +0.063 S 
ATOM     20  O   UNL     1      33.517 -17.847 -25.370  0.00  0.00    -0.153 OA
ATOM     21  O   UNL     1      35.778 -16.748 -25.201  0.00  0.00    -0.153 OA
BRANCH  19  22
ATOM     22  C   UNL     1      33.738 -15.621 -24.037  0.00  0.00    +0.122 C 
ATOM     23  C   UNL     1      33.532 -15.450 -22.679  0.00  0.00    +0.020 C 
ATOM     24  C   UNL     1      33.359 -14.656 -24.951  0.00  0.00    +0.020 C 
ATOM     25  C   UNL     1      32.924 -14.277 -22.203  0.00  0.00    +0.001 C 
ATOM     26  C   UNL     1      32.529 -13.278 -23.126  0.00  0.00    +0.000 C 
ATOM     27  C   UNL     1      32.754 -13.483 -24.497  0.00  0.00    +0.001 C 
ATOM     28  C   UNL     1      32.700 -14.071 -20.832  0.00  0.00    +0.000 C 
ATOM     29  C   UNL     1      31.922 -12.105 -22.650  0.00  0.00    +0.000 C 
ATOM     30  C   UNL     1      32.094 -12.899 -20.377  0.00  0.00    +0.000 C 
ATOM     31  C   UNL     1      31.706 -11.918 -21.285  0.00  0.00    +0.000 C 
ENDBRANCH  19  22
ENDBRANCH   1  19
TORSDOF 4
ENDMDL
MODEL 6
REMARK VINA RESULT:     -10.7      4.099      6.721
REMARK  Name = 10309899
REMARK  4 active torsions:
REMARK  status: ('A' for Active; 'I' for Inactive)
REMARK    1  A    between atoms: N_1  and  S_19
REMARK    2  A    between atoms: C_12  and  C_15
REMARK    3  A    between atoms: N_14  and  O_17
REMARK    4  A    between atoms: S_19  and  C_22
REMARK                            x       y       z     vdW  Elec       q    Type
REMARK                         _______ _______ _______ _____ _____    ______ ____
ROOT
ATOM      1  N   UNL     1      33.957 -14.446 -25.665  0.00  0.00    -0.152 NA
ATOM      2  N   UNL     1      34.341 -16.531 -23.781  0.00  0.00    -0.250 N 
ATOM      3  N   UNL     1      35.003 -18.751 -23.329  0.00  0.00    -0.180 NA
ATOM      4  N   UNL     1      34.533 -17.219 -21.531  0.00  0.00    -0.203 NA
ATOM      5  C   UNL     1      33.739 -14.186 -24.214  0.00  0.00    +0.118 C 
ATOM      6  C   UNL     1      33.584 -15.845 -26.019  0.00  0.00    +0.118 C 
ATOM      7  C   UNL     1      34.601 -15.137 -23.391  0.00  0.00    +0.120 C 
ATOM      8  C   UNL     1      34.440 -16.822 -25.217  0.00  0.00    +0.120 C 
ATOM      9  C   UNL     1      34.635 -17.533 -22.850  0.00  0.00    +0.090 C 
ATOM     10  C   UNL     1      35.279 -19.693 -22.404  0.00  0.00    +0.113 C 
ATOM     11  C   UNL     1      34.824 -18.207 -20.661  0.00  0.00    +0.170 C 
ATOM     12  C   UNL     1      35.206 -19.477 -21.044  0.00  0.00    +0.078 C 
ENDROOT
BRANCH  12  15
ATOM     13  O   UNL     1      36.584 -20.509 -19.447  0.00  0.00    -0.268 OA
ATOM     14  N   UNL     1      34.563 -21.518 -19.901  0.00  0.00    -0.194 N 
ATOM     15  C   UNL     1      35.509 -20.516 -20.078  0.00  0.00    +0.267 C 
ATOM     16  H   UNL     1      33.716 -21.520 -20.404  0.00  0.00    +0.183 HD
BRANCH  14  17
ATOM     17  O   UNL     1      34.869 -22.527 -18.977  0.00  0.00    -0.295 OA
ATOM     18  H   UNL     1      34.051 -22.956 -18.684  0.00  0.00    +0.241 HD
ENDBRANCH  14  17
ENDBRANCH  12  15
BRANCH   1  19
ATOM     19  S   UNL     1      33.365 -13.238 -26.726  0.00  0.00    +0.063 S 
ATOM     20  O   UNL     1      31.919 -13.297 -26.749  0.00  0.00    -0.153 OA
ATOM     21  O   UNL     1      34.133 -13.273 -27.952  0.00  0.00    -0.153 OA
BRANCH  19  22
ATOM     22  C   UNL     1      33.833 -11.789 -25.833  0.00  0.00    +0.122 C 
ATOM     23  C   UNL     1      33.001 -11.308 -24.836  0.00  0.00    +0.020 C 
ATOM     24  C   UNL     1      35.024 -11.159 -26.143  0.00  0.00    +0.020 C 
ATOM     25  C   UNL     1      33.359 -10.156 -24.117  0.00  0.00    +0.001 C 
ATOM     26  C   UNL     1      34.575  -9.499 -24.423  0.00  0.00    +0.000 C 
ATOM     27  C   UNL     1      35.397 -10.013 -25.439  0.00  0.00    +0.001 C 
ATOM     28  C   UNL     1      32.538  -9.642 -23.100  0.00  0.00    +0.000 C 
ATOM     29  C   UNL     1      34.933  -8.347 -23.703  0.00  0.00    +0.000 C 
ATOM     30  C   UNL     1      32.909  -8.496 -22.396  0.00  0.00    +0.000 C 
ATOM     31  C   UNL     1      34.104  -7.850 -22.697  0.00  0.00    +0.000 C 
ENDBRANCH  19  22
ENDBRANCH   1  19
TORSDOF 4
ENDMDL
MODEL 7
REMARK VINA RESULT:     -10.3      4.496      9.914
REMARK  Name = 10309899
REMARK  4 active torsions:
REMARK  status: ('A' for Active; 'I' for Inactive)
REMARK    1  A    between atoms: N_1  and  S_19
REMARK    2  A    between atoms: C_12  and  C_15
REMARK    3  A    between atoms: N_14  and  O_17
REMARK    4  A    between atoms: S_19  and  C_22
REMARK                            x       y       z     vdW  Elec       q    Type
REMARK                         _______ _______ _______ _____ _____    ______ ____
ROOT
ATOM      1  N   UNL     1      34.695 -17.419 -22.669  0.00  0.00    -0.152 NA
ATOM      2  N   UNL     1      33.755 -14.760 -22.377  0.00  0.00    -0.250 N 
ATOM      3  N   UNL     1      33.032 -12.749 -23.379  0.00  0.00    -0.180 NA
ATOM      4  N   UNL     1      32.844 -13.073 -21.000  0.00  0.00    -0.203 NA
ATOM      5  C   UNL     1      34.414 -16.876 -21.311  0.00  0.00    +0.118 C 
ATOM      6  C   UNL     1      35.196 -16.350 -23.579  0.00  0.00    +0.118 C 
ATOM      7  C   UNL     1      33.350 -15.788 -21.408  0.00  0.00    +0.120 C 
ATOM      8  C   UNL     1      34.145 -15.250 -23.704  0.00  0.00    +0.120 C 
ATOM      9  C   UNL     1      33.192 -13.485 -22.247  0.00  0.00    +0.090 C 
ATOM     10  C   UNL     1      32.486 -11.526 -23.218  0.00  0.00    +0.113 C 
ATOM     11  C   UNL     1      32.303 -11.840 -20.911  0.00  0.00    +0.170 C 
ATOM     12  C   UNL     1      32.098 -11.014 -21.997  0.00  0.00    +0.078 C 
ENDROOT
BRANCH  12  15
ATOM     13  O   UNL     1      31.255  -9.218 -20.739  0.00  0.00    -0.268 OA
ATOM     14  N   UNL     1      31.249  -8.991 -23.033  0.00  0.00    -0.194 N 
ATOM     15  C   UNL     1      31.515  -9.692 -21.863  0.00  0.00    +0.267 C 
ATOM     16  H   UNL     1      31.455  -9.370 -23.918  0.00  0.00    +0.183 HD
BRANCH  14  17
ATOM     17  O   UNL     1      30.672  -7.721 -22.896  0.00  0.00    -0.295 OA
ATOM     18  H   UNL     1      30.353  -7.415 -23.759  0.00  0.00    +0.241 HD
ENDBRANCH  14  17
ENDBRANCH  12  15
BRANCH   1  19
ATOM     19  S   UNL     1      35.578 -18.887 -22.706  0.00  0.00    +0.063 S 
ATOM     20  O   UNL     1      36.922 -18.642 -22.228  0.00  0.00    -0.153 OA
ATOM     21  O   UNL     1      35.346 -19.542 -23.975  0.00  0.00    -0.153 OA
BRANCH  19  22
ATOM     22  C   UNL     1      34.717 -19.794 -21.460  0.00  0.00    +0.122 C 
ATOM     23  C   UNL     1      35.438 -20.551 -20.552  0.00  0.00    +0.020 C 
ATOM     24  C   UNL     1      33.337 -19.733 -21.412  0.00  0.00    +0.020 C 
ATOM     25  C   UNL     1      34.767 -21.279 -19.556  0.00  0.00    +0.001 C 
ATOM     26  C   UNL     1      33.354 -21.227 -19.493  0.00  0.00    +0.000 C 
ATOM     27  C   UNL     1      32.654 -20.450 -20.429  0.00  0.00    +0.001 C 
ATOM     28  C   UNL     1      35.468 -22.056 -18.619  0.00  0.00    +0.000 C 
ATOM     29  C   UNL     1      32.685 -21.955 -18.496  0.00  0.00    +0.000 C 
ATOM     30  C   UNL     1      34.786 -22.774 -17.636  0.00  0.00    +0.000 C 
ATOM     31  C   UNL     1      33.397 -22.723 -17.575  0.00  0.00    +0.000 C 
ENDBRANCH  19  22
ENDBRANCH   1  19
TORSDOF 4
ENDMDL
MODEL 8
REMARK VINA RESULT:     -10.2      7.284     10.826
REMARK  Name = 10309899
REMARK  4 active torsions:
REMARK  status: ('A' for Active; 'I' for Inactive)
REMARK    1  A    between atoms: N_1  and  S_19
REMARK    2  A    between atoms: C_12  and  C_15
REMARK    3  A    between atoms: N_14  and  O_17
REMARK    4  A    between atoms: S_19  and  C_22
REMARK                            x       y       z     vdW  Elec       q    Type
REMARK                         _______ _______ _______ _____ _____    ______ ____
ROOT
ATOM      1  N   UNL     1      32.151  -9.077 -22.706  0.00  0.00    -0.152 NA
ATOM      2  N   UNL     1      32.761 -11.845 -22.752  0.00  0.00    -0.250 N 
ATOM      3  N   UNL     1      34.114 -13.605 -23.554  0.00  0.00    -0.180 NA
ATOM      4  N   UNL     1      32.502 -13.993 -21.806  0.00  0.00    -0.203 NA
ATOM      5  C   UNL     1      31.398 -10.017 -21.830  0.00  0.00    +0.118 C 
ATOM      6  C   UNL     1      32.534  -9.732 -23.989  0.00  0.00    +0.118 C 
ATOM      7  C   UNL     1      32.272 -11.226 -21.512  0.00  0.00    +0.120 C 
ATOM      8  C   UNL     1      33.420 -10.941 -23.702  0.00  0.00    +0.120 C 
ATOM      9  C   UNL     1      33.137 -13.192 -22.703  0.00  0.00    +0.090 C 
ATOM     10  C   UNL     1      34.453 -14.909 -23.479  0.00  0.00    +0.113 C 
ATOM     11  C   UNL     1      32.891 -15.285 -21.784  0.00  0.00    +0.170 C 
ATOM     12  C   UNL     1      33.870 -15.804 -22.605  0.00  0.00    +0.078 C 
ENDROOT
BRANCH  12  15
ATOM     13  O   UNL     1      34.222 -17.837 -21.483  0.00  0.00    -0.268 OA
ATOM     14  N   UNL     1      34.689 -17.786 -23.740  0.00  0.00    -0.194 N 
ATOM     15  C   UNL     1      34.260 -17.200 -22.554  0.00  0.00    +0.267 C 
ATOM     16  H   UNL     1      34.719 -17.278 -24.583  0.00  0.00    +0.183 HD
BRANCH  14  17
ATOM     17  O   UNL     1      35.079 -19.131 -23.680  0.00  0.00    -0.295 OA
ATOM     18  H   UNL     1      34.468 -19.620 -23.107  0.00  0.00    +0.241 HD
ENDBRANCH  14  17
ENDBRANCH  12  15
BRANCH   1  19
ATOM     19  S   UNL     1      31.475  -7.509 -22.856  0.00  0.00    +0.063 S 
ATOM     20  O   UNL     1      31.647  -6.800 -21.606  0.00  0.00    -0.153 OA
ATOM     21  O   UNL     1      30.174  -7.617 -23.480  0.00  0.00    -0.153 OA
BRANCH  19  22
ATOM     22  C   UNL     1      32.586  -6.806 -24.034  0.00  0.00    +0.122 C 
ATOM     23  C   UNL     1      32.114  -5.867 -24.936  0.00  0.00    +0.020 C 
ATOM     24  C   UNL     1      33.910  -7.204 -24.035  0.00  0.00    +0.020 C 
ATOM     25  C   UNL     1      32.985  -5.300 -25.880  0.00  0.00    +0.001 C 
ATOM     26  C   UNL     1      34.344  -5.696 -25.894  0.00  0.00    +0.000 C 
ATOM     27  C   UNL     1      34.791  -6.650 -24.965  0.00  0.00    +0.001 C 
ATOM     28  C   UNL     1      32.539  -4.346 -26.808  0.00  0.00    +0.000 C 
ATOM     29  C   UNL     1      35.215  -5.128 -26.838  0.00  0.00    +0.000 C 
ATOM     30  C   UNL     1      33.418  -3.792 -27.739  0.00  0.00    +0.000 C 
ATOM     31  C   UNL     1      34.753  -4.182 -27.754  0.00  0.00    +0.000 C 
ENDBRANCH  19  22
ENDBRANCH   1  19
TORSDOF 4
ENDMDL
MODEL 9
REMARK VINA RESULT:      -9.9      3.608     10.424
REMARK  Name = 10309899
REMARK  4 active torsions:
REMARK  status: ('A' for Active; 'I' for Inactive)
REMARK    1  A    between atoms: N_1  and  S_19
REMARK    2  A    between atoms: C_12  and  C_15
REMARK    3  A    between atoms: N_14  and  O_17
REMARK    4  A    between atoms: S_19  and  C_22
REMARK                            x       y       z     vdW  Elec       q    Type
REMARK                         _______ _______ _______ _____ _____    ______ ____
ROOT
ATOM      1  N   UNL     1      33.144 -23.578 -15.936  0.00  0.00    -0.152 NA
ATOM      2  N   UNL     1      33.697 -21.919 -18.168  0.00  0.00    -0.250 N 
ATOM      3  N   UNL     1      35.250 -21.112 -19.752  0.00  0.00    -0.180 NA
ATOM      4  N   UNL     1      32.904 -20.603 -19.961  0.00  0.00    -0.203 NA
ATOM      5  C   UNL     1      32.040 -22.819 -16.589  0.00  0.00    +0.118 C 
ATOM      6  C   UNL     1      34.424 -22.819 -15.997  0.00  0.00    +0.118 C 
ATOM      7  C   UNL     1      32.387 -22.576 -18.054  0.00  0.00    +0.120 C 
ATOM      8  C   UNL     1      34.803 -22.570 -17.455  0.00  0.00    +0.120 C 
ATOM      9  C   UNL     1      33.959 -21.187 -19.332  0.00  0.00    +0.090 C 
ATOM     10  C   UNL     1      35.466 -20.399 -20.876  0.00  0.00    +0.113 C 
ATOM     11  C   UNL     1      33.192 -19.906 -21.079  0.00  0.00    +0.170 C 
ATOM     12  C   UNL     1      34.466 -19.768 -21.589  0.00  0.00    +0.078 C 
ENDROOT
BRANCH  12  15
ATOM     13  O   UNL     1      34.538 -19.503 -23.922  0.00  0.00    -0.268 OA
ATOM     14  N   UNL     1      35.241 -17.722 -22.638  0.00  0.00    -0.194 N 
ATOM     15  C   UNL     1      34.738 -19.008 -22.795  0.00  0.00    +0.267 C 
ATOM     16  H   UNL     1      35.398 -17.337 -21.745  0.00  0.00    +0.183 HD
BRANCH  14  17
ATOM     17  O   UNL     1      35.514 -16.999 -23.807  0.00  0.00    -0.295 OA
ATOM     18  H   UNL     1      35.570 -17.608 -24.559  0.00  0.00    +0.241 HD
ENDBRANCH  14  17
ENDBRANCH  12  15
BRANCH   1  19
ATOM     19  S   UNL     1      32.766 -24.259 -14.409  0.00  0.00    +0.063 S 
ATOM     20  O   UNL     1      32.141 -25.549 -14.609  0.00  0.00    -0.153 OA
ATOM     21  O   UNL     1      32.141 -23.246 -13.586  0.00  0.00    -0.153 OA
BRANCH  19  22
ATOM     22  C   UNL     1      34.394 -24.537 -13.786  0.00  0.00    +0.122 C 
ATOM     23  C   UNL     1      35.361 -25.065 -14.625  0.00  0.00    +0.020 C 
ATOM     24  C   UNL     1      34.676 -24.223 -12.470  0.00  0.00    +0.020 C 
ATOM     25  C   UNL     1      36.660 -25.293 -14.144  0.00  0.00    +0.001 C 
ATOM     26  C   UNL     1      36.966 -24.977 -12.799  0.00  0.00    +0.000 C 
ATOM     27  C   UNL     1      35.962 -24.442 -11.974  0.00  0.00    +0.001 C 
ATOM     28  C   UNL     1      37.664 -25.827 -14.969  0.00  0.00    +0.000 C 
ATOM     29  C   UNL     1      38.266 -25.205 -12.318  0.00  0.00    +0.000 C 
ATOM     30  C   UNL     1      38.950 -26.047 -14.474  0.00  0.00    +0.000 C 
ATOM     31  C   UNL     1      39.249 -25.737 -13.151  0.00  0.00    +0.000 C 
ENDBRANCH  19  22
ENDBRANCH   1  19
TORSDOF 4
ENDMDL
