MODEL 1
REMARK VINA RESULT:      -1.9      0.000      0.000
REMARK  Name = 712
REMARK  0 active torsions:
REMARK  status: ('A' for Active; 'I' for Inactive)
REMARK                            x       y       z     vdW  Elec       q    Type
REMARK                         _______ _______ _______ _____ _____    ______ ____
ROOT
ATOM      1  O   UNL     1      26.166 -20.205 -17.969  0.00  0.00    -0.279 OA
ATOM      2  C   UNL     1      26.221 -21.418 -17.817  0.00  0.00    +0.279 C 
ENDROOT
TORSDOF 0
ENDMDL
MODEL 2
REMARK VINA RESULT:      -1.8     12.501     12.501
REMARK  Name = 712
REMARK  0 active torsions:
REMARK  status: ('A' for Active; 'I' for Inactive)
REMARK                            x       y       z     vdW  Elec       q    Type
REMARK                         _______ _______ _______ _____ _____    ______ ____
ROOT
ATOM      1  O   UNL     1      36.683 -27.379 -16.292  0.00  0.00    -0.279 OA
ATOM      2  C   UNL     1      36.836 -26.749 -15.254  0.00  0.00    +0.279 C 
ENDROOT
TORSDOF 0
ENDMDL
MODEL 3
REMARK VINA RESULT:      -1.8     12.580     12.580
REMARK  Name = 712
REMARK  0 active torsions:
REMARK  status: ('A' for Active; 'I' for Inactive)
REMARK                            x       y       z     vdW  Elec       q    Type
REMARK                         _______ _______ _______ _____ _____    ______ ____
ROOT
ATOM      1  O   UNL     1      35.379 -24.559  -9.811  0.00  0.00    -0.279 OA
ATOM      2  C   UNL     1      35.740 -24.332 -10.959  0.00  0.00    +0.279 C 
ENDROOT
TORSDOF 0
ENDMDL
MODEL 4
REMARK VINA RESULT:      -1.8     15.765     15.765
REMARK  Name = 712
REMARK  0 active torsions:
REMARK  status: ('A' for Active; 'I' for Inactive)
REMARK                            x       y       z     vdW  Elec       q    Type
REMARK                         _______ _______ _______ _____ _____    ______ ____
ROOT
ATOM      1  O   UNL     1      40.973 -26.657 -14.623  0.00  0.00    -0.279 OA
ATOM      2  C   UNL     1      40.278 -25.657 -14.746  0.00  0.00    +0.279 C 
ENDROOT
TORSDOF 0
ENDMDL
MODEL 5
REMARK VINA RESULT:      -1.7     18.289     18.289
REMARK  Name = 712
REMARK  0 active torsions:
REMARK  status: ('A' for Active; 'I' for Inactive)
REMARK                            x       y       z     vdW  Elec       q    Type
REMARK                         _______ _______ _______ _____ _____    ______ ____
ROOT
ATOM      1  O   UNL     1      42.522 -21.279 -25.536  0.00  0.00    -0.279 OA
ATOM      2  C   UNL     1      42.506 -20.700 -26.614  0.00  0.00    +0.279 C 
ENDROOT
TORSDOF 0
ENDMDL
MODEL 6
REMARK VINA RESULT:      -1.7     13.352     13.352
REMARK  Name = 712
REMARK  0 active torsions:
REMARK  status: ('A' for Active; 'I' for Inactive)
REMARK                            x       y       z     vdW  Elec       q    Type
REMARK                         _______ _______ _______ _____ _____    ______ ____
ROOT
ATOM      1  O   UNL     1      38.386 -22.828 -11.614  0.00  0.00    -0.279 OA
ATOM      2  C   UNL     1      37.173 -22.981 -11.686  0.00  0.00    +0.279 C 
ENDROOT
TORSDOF 0
ENDMDL
MODEL 7
REMARK VINA RESULT:      -1.7      3.390      3.390
REMARK  Name = 712
REMARK  0 active torsions:
REMARK  status: ('A' for Active; 'I' for Inactive)
REMARK                            x       y       z     vdW  Elec       q    Type
REMARK                         _______ _______ _______ _____ _____    ______ ____
ROOT
ATOM      1  O   UNL     1      27.642 -23.978 -17.641  0.00  0.00    -0.279 OA
ATOM      2  C   UNL     1      28.052 -22.998 -17.034  0.00  0.00    +0.279 C 
ENDROOT
TORSDOF 0
ENDMDL
MODEL 8
REMARK VINA RESULT:      -1.6      2.770      2.770
REMARK  Name = 712
REMARK  0 active torsions:
REMARK  status: ('A' for Active; 'I' for Inactive)
REMARK                            x       y       z     vdW  Elec       q    Type
REMARK                         _______ _______ _______ _____ _____    ______ ____
ROOT
ATOM      1  O   UNL     1      26.214 -22.215 -15.663  0.00  0.00    -0.279 OA
ATOM      2  C   UNL     1      27.392 -22.423 -15.920  0.00  0.00    +0.279 C 
ENDROOT
TORSDOF 0
ENDMDL
MODEL 9
REMARK VINA RESULT:      -1.6     16.477     16.477
REMARK  Name = 712
REMARK  0 active torsions:
REMARK  status: ('A' for Active; 'I' for Inactive)
REMARK                            x       y       z     vdW  Elec       q    Type
REMARK                         _______ _______ _______ _____ _____    ______ ____
ROOT
ATOM      1  O   UNL     1      42.402 -16.595 -15.713  0.00  0.00    -0.279 OA
ATOM      2  C   UNL     1      41.311 -16.042 -15.664  0.00  0.00    +0.279 C 
ENDROOT
TORSDOF 0
ENDMDL
