MODEL 1
REMARK VINA RESULT:      -6.4      0.000      0.000
REMARK  Name = 978
REMARK  3 active torsions:
REMARK  status: ('A' for Active; 'I' for Inactive)
REMARK    1  A    between atoms: C_1  and  C_11
REMARK    2  A    between atoms: C_2  and  N_7
REMARK    3  A    between atoms: C_11  and  O_12
REMARK                            x       y       z     vdW  Elec       q    Type
REMARK                         _______ _______ _______ _____ _____    ______ ____
ROOT
ATOM      1  C   UNL     1      34.070 -21.510 -19.542  0.00  0.00    +0.076 C 
ATOM      2  C   UNL     1      35.440 -19.511 -20.924  0.00  0.00    +0.042 C 
ATOM      3  C   UNL     1      33.361 -20.524 -20.228  0.00  0.00    +0.008 C 
ATOM      4  C   UNL     1      35.465 -21.497 -19.548  0.00  0.00    +0.008 C 
ATOM      5  C   UNL     1      34.046 -19.524 -20.918  0.00  0.00    +0.014 C 
ATOM      6  C   UNL     1      36.150 -20.498 -20.240  0.00  0.00    +0.014 C 
ENDROOT
BRANCH   2   7
ATOM      7  N   UNL     1      36.134 -18.501 -21.623  0.00  0.00    -0.357 N 
ATOM      8  H   UNL     1      37.054 -18.662 -21.936  0.00  0.00    +0.142 HD
ATOM      9  H   UNL     1      35.698 -17.636 -21.799  0.00  0.00    +0.142 HD
ENDBRANCH   2   7
BRANCH   1  11
ATOM     10  O   UNL     1      32.351 -22.382 -18.126  0.00  0.00    -0.245 OA
ATOM     11  C   UNL     1      33.356 -22.553 -18.824  0.00  0.00    +0.338 C 
BRANCH  11  12
ATOM     12  O   UNL     1      33.917 -23.781 -18.996  0.00  0.00    -0.477 OA
ATOM     13  H   UNL     1      34.566 -24.088 -18.395  0.00  0.00    +0.295 HD
ENDBRANCH  11  12
ENDBRANCH   1  11
TORSDOF 3
ENDMDL
MODEL 2
REMARK VINA RESULT:      -6.4      0.004      1.528
REMARK  Name = 978
REMARK  3 active torsions:
REMARK  status: ('A' for Active; 'I' for Inactive)
REMARK    1  A    between atoms: C_1  and  C_11
REMARK    2  A    between atoms: C_2  and  N_7
REMARK    3  A    between atoms: C_11  and  O_12
REMARK                            x       y       z     vdW  Elec       q    Type
REMARK                         _______ _______ _______ _____ _____    ______ ____
ROOT
ATOM      1  C   UNL     1      34.070 -21.512 -19.542  0.00  0.00    +0.076 C 
ATOM      2  C   UNL     1      35.443 -19.513 -20.922  0.00  0.00    +0.042 C 
ATOM      3  C   UNL     1      35.465 -21.499 -19.546  0.00  0.00    +0.008 C 
ATOM      4  C   UNL     1      33.362 -20.525 -20.228  0.00  0.00    +0.008 C 
ATOM      5  C   UNL     1      36.152 -20.500 -20.237  0.00  0.00    +0.014 C 
ATOM      6  C   UNL     1      34.048 -19.525 -20.918  0.00  0.00    +0.014 C 
ENDROOT
BRANCH   2   7
ATOM      7  N   UNL     1      36.137 -18.502 -21.620  0.00  0.00    -0.357 N 
ATOM      8  H   UNL     1      36.933 -18.084 -21.217  0.00  0.00    +0.142 HD
ATOM      9  H   UNL     1      35.827 -18.216 -22.509  0.00  0.00    +0.142 HD
ENDBRANCH   2   7
BRANCH   1  11
ATOM     10  O   UNL     1      32.349 -22.379 -18.126  0.00  0.00    -0.245 OA
ATOM     11  C   UNL     1      33.355 -22.553 -18.822  0.00  0.00    +0.338 C 
BRANCH  11  12
ATOM     12  O   UNL     1      33.915 -23.781 -18.992  0.00  0.00    -0.477 OA
ATOM     13  H   UNL     1      33.523 -24.398 -19.579  0.00  0.00    +0.295 HD
ENDBRANCH  11  12
ENDBRANCH   1  11
TORSDOF 3
ENDMDL
MODEL 3
REMARK VINA RESULT:      -6.3      6.785      7.659
REMARK  Name = 978
REMARK  3 active torsions:
REMARK  status: ('A' for Active; 'I' for Inactive)
REMARK    1  A    between atoms: C_1  and  C_11
REMARK    2  A    between atoms: C_2  and  N_7
REMARK    3  A    between atoms: C_11  and  O_12
REMARK                            x       y       z     vdW  Elec       q    Type
REMARK                         _______ _______ _______ _____ _____    ______ ____
ROOT
ATOM      1  C   UNL     1      29.303 -23.541 -16.057  0.00  0.00    +0.076 C 
ATOM      2  C   UNL     1      31.318 -24.653 -14.480  0.00  0.00    +0.042 C 
ATOM      3  C   UNL     1      30.560 -22.938 -16.004  0.00  0.00    +0.008 C 
ATOM      4  C   UNL     1      29.054 -24.700 -15.323  0.00  0.00    +0.008 C 
ATOM      5  C   UNL     1      31.568 -23.494 -15.215  0.00  0.00    +0.014 C 
ATOM      6  C   UNL     1      30.061 -25.257 -14.535  0.00  0.00    +0.014 C 
ENDROOT
BRANCH   2   7
ATOM      7  N   UNL     1      32.336 -25.217 -13.684  0.00  0.00    -0.357 N 
ATOM      8  H   UNL     1      33.282 -25.028 -13.887  0.00  0.00    +0.142 HD
ATOM      9  H   UNL     1      32.103 -25.796 -12.923  0.00  0.00    +0.142 HD
ENDBRANCH   2   7
BRANCH   1  11
ATOM     10  O   UNL     1      27.930 -21.770 -16.893  0.00  0.00    -0.245 OA
ATOM     11  C   UNL     1      28.253 -22.962 -16.880  0.00  0.00    +0.338 C 
BRANCH  11  12
ATOM     12  O   UNL     1      27.637 -23.887 -17.664  0.00  0.00    -0.477 OA
ATOM     13  H   UNL     1      26.774 -24.182 -17.451  0.00  0.00    +0.295 HD
ENDBRANCH  11  12
ENDBRANCH   1  11
TORSDOF 3
ENDMDL
MODEL 4
REMARK VINA RESULT:      -6.3      3.728      4.408
REMARK  Name = 978
REMARK  3 active torsions:
REMARK  status: ('A' for Active; 'I' for Inactive)
REMARK    1  A    between atoms: C_1  and  C_11
REMARK    2  A    between atoms: C_2  and  N_7
REMARK    3  A    between atoms: C_11  and  O_12
REMARK                            x       y       z     vdW  Elec       q    Type
REMARK                         _______ _______ _______ _____ _____    ______ ____
ROOT
ATOM      1  C   UNL     1      34.886 -19.011 -21.146  0.00  0.00    +0.076 C 
ATOM      2  C   UNL     1      33.716 -21.173 -19.826  0.00  0.00    +0.042 C 
ATOM      3  C   UNL     1      33.497 -19.109 -21.064  0.00  0.00    +0.008 C 
ATOM      4  C   UNL     1      35.690 -19.993 -20.568  0.00  0.00    +0.008 C 
ATOM      5  C   UNL     1      32.912 -20.191 -20.404  0.00  0.00    +0.014 C 
ATOM      6  C   UNL     1      35.105 -21.074 -19.908  0.00  0.00    +0.014 C 
ENDROOT
BRANCH   2   7
ATOM      7  N   UNL     1      33.126 -22.266 -19.159  0.00  0.00    -0.357 N 
ATOM      8  H   UNL     1      32.999 -22.236 -18.182  0.00  0.00    +0.142 HD
ATOM      9  H   UNL     1      32.839 -23.058 -19.668  0.00  0.00    +0.142 HD
ENDBRANCH   2   7
BRANCH   1  11
ATOM     10  O   UNL     1      35.181 -16.698 -21.680  0.00  0.00    -0.245 OA
ATOM     11  C   UNL     1      35.495 -17.883 -21.832  0.00  0.00    +0.338 C 
BRANCH  11  12
ATOM     12  O   UNL     1      36.480 -18.266 -22.690  0.00  0.00    -0.477 OA
ATOM     13  H   UNL     1      37.366 -18.322 -22.390  0.00  0.00    +0.295 HD
ENDBRANCH  11  12
ENDBRANCH   1  11
TORSDOF 3
ENDMDL
MODEL 5
REMARK VINA RESULT:      -6.3      3.717      4.652
REMARK  Name = 978
REMARK  3 active torsions:
REMARK  status: ('A' for Active; 'I' for Inactive)
REMARK    1  A    between atoms: C_1  and  C_11
REMARK    2  A    between atoms: C_2  and  N_7
REMARK    3  A    between atoms: C_11  and  O_12
REMARK                            x       y       z     vdW  Elec       q    Type
REMARK                         _______ _______ _______ _____ _____    ______ ____
ROOT
ATOM      1  C   UNL     1      34.890 -19.034 -21.117  0.00  0.00    +0.076 C 
ATOM      2  C   UNL     1      33.720 -21.201 -19.806  0.00  0.00    +0.042 C 
ATOM      3  C   UNL     1      35.694 -20.020 -20.544  0.00  0.00    +0.008 C 
ATOM      4  C   UNL     1      33.501 -19.131 -21.035  0.00  0.00    +0.008 C 
ATOM      5  C   UNL     1      35.109 -21.103 -19.888  0.00  0.00    +0.014 C 
ATOM      6  C   UNL     1      32.916 -20.215 -20.380  0.00  0.00    +0.014 C 
ENDROOT
BRANCH   2   7
ATOM      7  N   UNL     1      33.127 -22.296 -19.144  0.00  0.00    -0.357 N 
ATOM      8  H   UNL     1      32.811 -23.072 -19.663  0.00  0.00    +0.142 HD
ATOM      9  H   UNL     1      33.030 -22.286 -18.165  0.00  0.00    +0.142 HD
ENDBRANCH   2   7
BRANCH   1  11
ATOM     10  O   UNL     1      35.185 -16.720 -21.650  0.00  0.00    -0.245 OA
ATOM     11  C   UNL     1      35.501 -17.905 -21.801  0.00  0.00    +0.338 C 
BRANCH  11  12
ATOM     12  O   UNL     1      36.489 -18.287 -22.656  0.00  0.00    -0.477 OA
ATOM     13  H   UNL     1      37.381 -18.284 -22.371  0.00  0.00    +0.295 HD
ENDBRANCH  11  12
ENDBRANCH   1  11
TORSDOF 3
ENDMDL
MODEL 6
REMARK VINA RESULT:      -6.1      1.026      1.289
REMARK  Name = 978
REMARK  3 active torsions:
REMARK  status: ('A' for Active; 'I' for Inactive)
REMARK    1  A    between atoms: C_1  and  C_11
REMARK    2  A    between atoms: C_2  and  N_7
REMARK    3  A    between atoms: C_11  and  O_12
REMARK                            x       y       z     vdW  Elec       q    Type
REMARK                         _______ _______ _______ _____ _____    ______ ____
ROOT
ATOM      1  C   UNL     1      34.794 -21.160 -19.811  0.00  0.00    +0.076 C 
ATOM      2  C   UNL     1      35.173 -18.802 -21.254  0.00  0.00    +0.042 C 
ATOM      3  C   UNL     1      33.695 -20.474 -20.327  0.00  0.00    +0.008 C 
ATOM      4  C   UNL     1      36.083 -20.668 -20.017  0.00  0.00    +0.008 C 
ATOM      5  C   UNL     1      33.884 -19.294 -21.047  0.00  0.00    +0.014 C 
ATOM      6  C   UNL     1      36.272 -19.489 -20.739  0.00  0.00    +0.014 C 
ENDROOT
BRANCH   2   7
ATOM      7  N   UNL     1      35.365 -17.611 -21.983  0.00  0.00    -0.357 N 
ATOM      8  H   UNL     1      34.636 -16.951 -22.049  0.00  0.00    +0.142 HD
ATOM      9  H   UNL     1      36.227 -17.437 -22.425  0.00  0.00    +0.142 HD
ENDBRANCH   2   7
BRANCH   1  11
ATOM     10  O   UNL     1      33.780 -23.274 -19.337  0.00  0.00    -0.245 OA
ATOM     11  C   UNL     1      34.597 -22.390 -19.060  0.00  0.00    +0.338 C 
BRANCH  11  12
ATOM     12  O   UNL     1      35.425 -22.481 -17.985  0.00  0.00    -0.477 OA
ATOM     13  H   UNL     1      36.303 -22.790 -18.094  0.00  0.00    +0.295 HD
ENDBRANCH  11  12
ENDBRANCH   1  11
TORSDOF 3
ENDMDL
MODEL 7
REMARK VINA RESULT:      -6.1      8.264      9.178
REMARK  Name = 978
REMARK  3 active torsions:
REMARK  status: ('A' for Active; 'I' for Inactive)
REMARK    1  A    between atoms: C_1  and  C_11
REMARK    2  A    between atoms: C_2  and  N_7
REMARK    3  A    between atoms: C_11  and  O_12
REMARK                            x       y       z     vdW  Elec       q    Type
REMARK                         _______ _______ _______ _____ _____    ______ ____
ROOT
ATOM      1  C   UNL     1      38.952 -25.773 -14.206  0.00  0.00    +0.076 C 
ATOM      2  C   UNL     1      36.427 -25.146 -13.197  0.00  0.00    +0.042 C 
ATOM      3  C   UNL     1      37.817 -25.973 -14.992  0.00  0.00    +0.008 C 
ATOM      4  C   UNL     1      38.825 -25.259 -12.915  0.00  0.00    +0.008 C 
ATOM      5  C   UNL     1      36.554 -25.660 -14.487  0.00  0.00    +0.014 C 
ATOM      6  C   UNL     1      37.562 -24.945 -12.411  0.00  0.00    +0.014 C 
ENDROOT
BRANCH   2   7
ATOM      7  N   UNL     1      35.152 -24.828 -12.686  0.00  0.00    -0.357 N 
ATOM      8  H   UNL     1      34.344 -25.194 -13.116  0.00  0.00    +0.142 HD
ATOM      9  H   UNL     1      35.067 -24.242 -11.900  0.00  0.00    +0.142 HD
ENDBRANCH   2   7
BRANCH   1  11
ATOM     10  O   UNL     1      41.213 -26.540 -14.073  0.00  0.00    -0.245 OA
ATOM     11  C   UNL     1      40.267 -26.098 -14.733  0.00  0.00    +0.338 C 
BRANCH  11  12
ATOM     12  O   UNL     1      40.365 -25.863 -16.069  0.00  0.00    -0.477 OA
ATOM     13  H   UNL     1      40.082 -26.513 -16.682  0.00  0.00    +0.295 HD
ENDBRANCH  11  12
ENDBRANCH   1  11
TORSDOF 3
ENDMDL
MODEL 8
REMARK VINA RESULT:      -5.9      5.104      6.082
REMARK  Name = 978
REMARK  3 active torsions:
REMARK  status: ('A' for Active; 'I' for Inactive)
REMARK    1  A    between atoms: C_1  and  C_11
REMARK    2  A    between atoms: C_2  and  N_7
REMARK    3  A    between atoms: C_11  and  O_12
REMARK                            x       y       z     vdW  Elec       q    Type
REMARK                         _______ _______ _______ _____ _____    ______ ____
ROOT
ATOM      1  C   UNL     1      34.663 -17.188 -23.576  0.00  0.00    +0.076 C 
ATOM      2  C   UNL     1      35.310 -18.869 -21.446  0.00  0.00    +0.042 C 
ATOM      3  C   UNL     1      34.713 -18.569 -23.768  0.00  0.00    +0.008 C 
ATOM      4  C   UNL     1      34.935 -16.648 -22.319  0.00  0.00    +0.008 C 
ATOM      5  C   UNL     1      35.037 -19.410 -22.702  0.00  0.00    +0.014 C 
ATOM      6  C   UNL     1      35.259 -17.489 -21.254  0.00  0.00    +0.014 C 
ENDROOT
BRANCH   2   7
ATOM      7  N   UNL     1      35.637 -19.719 -20.368  0.00  0.00    -0.357 N 
ATOM      8  H   UNL     1      35.023 -19.800 -19.602  0.00  0.00    +0.142 HD
ATOM      9  H   UNL     1      36.477 -20.231 -20.382  0.00  0.00    +0.142 HD
ENDBRANCH   2   7
BRANCH   1  11
ATOM     10  O   UNL     1      33.639 -15.287 -24.606  0.00  0.00    -0.245 OA
ATOM     11  C   UNL     1      34.324 -16.312 -24.686  0.00  0.00    +0.338 C 
BRANCH  11  12
ATOM     12  O   UNL     1      34.850 -16.740 -25.866  0.00  0.00    -0.477 OA
ATOM     13  H   UNL     1      34.747 -16.223 -26.640  0.00  0.00    +0.295 HD
ENDBRANCH  11  12
ENDBRANCH   1  11
TORSDOF 3
ENDMDL
MODEL 9
REMARK VINA RESULT:      -5.9      5.100      6.064
REMARK  Name = 978
REMARK  3 active torsions:
REMARK  status: ('A' for Active; 'I' for Inactive)
REMARK    1  A    between atoms: C_1  and  C_11
REMARK    2  A    between atoms: C_2  and  N_7
REMARK    3  A    between atoms: C_11  and  O_12
REMARK                            x       y       z     vdW  Elec       q    Type
REMARK                         _______ _______ _______ _____ _____    ______ ____
ROOT
ATOM      1  C   UNL     1      34.664 -17.197 -23.574  0.00  0.00    +0.076 C 
ATOM      2  C   UNL     1      35.309 -18.879 -21.443  0.00  0.00    +0.042 C 
ATOM      3  C   UNL     1      34.946 -16.657 -22.320  0.00  0.00    +0.008 C 
ATOM      4  C   UNL     1      34.705 -18.579 -23.764  0.00  0.00    +0.008 C 
ATOM      5  C   UNL     1      35.268 -17.498 -21.254  0.00  0.00    +0.014 C 
ATOM      6  C   UNL     1      35.028 -19.419 -22.699  0.00  0.00    +0.014 C 
ENDROOT
BRANCH   2   7
ATOM      7  N   UNL     1      35.635 -19.730 -20.367  0.00  0.00    -0.357 N 
ATOM      8  H   UNL     1      34.953 -20.335 -19.993  0.00  0.00    +0.142 HD
ATOM      9  H   UNL     1      36.544 -19.720 -19.990  0.00  0.00    +0.142 HD
ENDBRANCH   2   7
BRANCH   1  11
ATOM     10  O   UNL     1      33.652 -15.291 -24.605  0.00  0.00    -0.245 OA
ATOM     11  C   UNL     1      34.330 -16.321 -24.685  0.00  0.00    +0.338 C 
BRANCH  11  12
ATOM     12  O   UNL     1      34.850 -16.755 -25.865  0.00  0.00    -0.477 OA
ATOM     13  H   UNL     1      35.454 -16.215 -26.338  0.00  0.00    +0.295 HD
ENDBRANCH  11  12
ENDBRANCH   1  11
TORSDOF 3
ENDMDL
