MODEL 1
REMARK VINA RESULT:      -6.3      0.000      0.000
REMARK  Name = 62065
REMARK  5 active torsions:
REMARK  status: ('A' for Active; 'I' for Inactive)
REMARK    1  A    between atoms: C_2  and  C_12
REMARK    2  A    between atoms: C_3  and  O_8
REMARK    3  A    between atoms: C_5  and  O_10
REMARK    4  A    between atoms: C_12  and  C_13
REMARK    5  A    between atoms: C_13  and  N_15
REMARK                            x       y       z     vdW  Elec       q    Type
REMARK                         _______ _______ _______ _____ _____    ______ ____
ROOT
ATOM      1 BR   UNL     1      33.808 -24.012 -13.511  0.00  0.00    -0.046 Br
ATOM      2  C   UNL     1      33.839 -22.716 -17.995  0.00  0.00    +0.013 C 
ATOM      3  C   UNL     1      35.017 -22.701 -17.264  0.00  0.00    +0.135 C 
ATOM      4  C   UNL     1      32.641 -23.111 -17.420  0.00  0.00    +0.036 C 
ATOM      5  C   UNL     1      32.620 -23.501 -16.081  0.00  0.00    +0.145 C 
ATOM      6  C   UNL     1      34.996 -23.089 -15.925  0.00  0.00    +0.046 C 
ATOM      7  C   UNL     1      33.798 -23.490 -15.333  0.00  0.00    +0.071 C 
ENDROOT
BRANCH   3   8
ATOM      8  O   UNL     1      36.196 -22.314 -17.828  0.00  0.00    -0.472 OA
ATOM      9  C   UNL     1      37.096 -21.578 -17.004  0.00  0.00    +0.252 C 
ENDBRANCH   3   8
BRANCH   5  10
ATOM     10  O   UNL     1      31.433 -23.886 -15.531  0.00  0.00    -0.471 OA
ATOM     11  C   UNL     1      30.539 -22.850 -15.134  0.00  0.00    +0.252 C 
ENDBRANCH   5  10
BRANCH   2  12
ATOM     12  C   UNL     1      33.840 -22.297 -19.447  0.00  0.00    +0.008 C 
BRANCH  12  13
ATOM     13  C   UNL     1      33.889 -20.770 -19.648  0.00  0.00    -0.061 C 
ATOM     14  C   UNL     1      32.869 -20.283 -20.677  0.00  0.00    -0.024 C 
BRANCH  13  15
ATOM     15  N   UNL     1      35.227 -20.380 -20.103  0.00  0.00    +0.382 N 
ATOM     16  H   UNL     1      35.802 -21.214 -20.221  0.00  0.00    -0.089 HD
ATOM     17  H   UNL     1      35.655 -19.767 -19.410  0.00  0.00    -0.089 HD
ATOM     18  H   UNL     1      35.153 -19.889 -20.994  0.00  0.00    -0.089 HD
ENDBRANCH  13  15
ENDBRANCH  12  13
ENDBRANCH   2  12
TORSDOF 5
ENDMDL
MODEL 2
REMARK VINA RESULT:      -6.3      6.558      8.450
REMARK  Name = 62065
REMARK  5 active torsions:
REMARK  status: ('A' for Active; 'I' for Inactive)
REMARK    1  A    between atoms: C_2  and  C_12
REMARK    2  A    between atoms: C_3  and  O_8
REMARK    3  A    between atoms: C_5  and  O_10
REMARK    4  A    between atoms: C_12  and  C_13
REMARK    5  A    between atoms: C_13  and  N_15
REMARK                            x       y       z     vdW  Elec       q    Type
REMARK                         _______ _______ _______ _____ _____    ______ ____
ROOT
ATOM      1 BR   UNL     1      33.429 -13.972 -23.952  0.00  0.00    -0.046 Br
ATOM      2  C   UNL     1      35.353 -17.625 -21.775  0.00  0.00    +0.013 C 
ATOM      3  C   UNL     1      35.231 -17.630 -23.156  0.00  0.00    +0.135 C 
ATOM      4  C   UNL     1      34.913 -16.549 -21.019  0.00  0.00    +0.036 C 
ATOM      5  C   UNL     1      34.337 -15.452 -21.659  0.00  0.00    +0.145 C 
ATOM      6  C   UNL     1      34.654 -16.534 -23.796  0.00  0.00    +0.046 C 
ATOM      7  C   UNL     1      34.207 -15.444 -23.048  0.00  0.00    +0.071 C 
ENDROOT
BRANCH   3   8
ATOM      8  O   UNL     1      35.663 -18.685 -23.902  0.00  0.00    -0.472 OA
ATOM      9  C   UNL     1      34.686 -19.373 -24.678  0.00  0.00    +0.252 C 
ENDBRANCH   3   8
BRANCH   5  10
ATOM     10  O   UNL     1      33.910 -14.403 -20.900  0.00  0.00    -0.471 OA
ATOM     11  C   UNL     1      32.643 -14.543 -20.261  0.00  0.00    +0.252 C 
ENDBRANCH   5  10
BRANCH   2  12
ATOM     12  C   UNL     1      35.974 -18.803 -21.063  0.00  0.00    +0.008 C 
BRANCH  12  13
ATOM     13  C   UNL     1      35.029 -20.012 -20.932  0.00  0.00    -0.061 C 
ATOM     14  C   UNL     1      33.557 -19.603 -20.887  0.00  0.00    -0.024 C 
BRANCH  13  15
ATOM     15  N   UNL     1      35.342 -20.746 -19.703  0.00  0.00    +0.382 N 
ATOM     16  H   UNL     1      35.804 -20.121 -19.042  0.00  0.00    -0.089 HD
ATOM     17  H   UNL     1      35.960 -21.527 -19.921  0.00  0.00    -0.089 HD
ATOM     18  H   UNL     1      34.479 -21.100 -19.289  0.00  0.00    -0.089 HD
ENDBRANCH  13  15
ENDBRANCH  12  13
ENDBRANCH   2  12
TORSDOF 5
ENDMDL
MODEL 3
REMARK VINA RESULT:      -6.3      3.369      5.197
REMARK  Name = 62065
REMARK  5 active torsions:
REMARK  status: ('A' for Active; 'I' for Inactive)
REMARK    1  A    between atoms: C_2  and  C_12
REMARK    2  A    between atoms: C_3  and  O_8
REMARK    3  A    between atoms: C_5  and  O_10
REMARK    4  A    between atoms: C_12  and  C_13
REMARK    5  A    between atoms: C_13  and  N_15
REMARK                            x       y       z     vdW  Elec       q    Type
REMARK                         _______ _______ _______ _____ _____    ______ ____
ROOT
ATOM      1 BR   UNL     1      37.416 -22.388 -16.101  0.00  0.00    -0.046 Br
ATOM      2  C   UNL     1      33.416 -24.048 -14.357  0.00  0.00    +0.013 C 
ATOM      3  C   UNL     1      34.532 -23.937 -13.541  0.00  0.00    +0.135 C 
ATOM      4  C   UNL     1      33.462 -23.673 -15.692  0.00  0.00    +0.036 C 
ATOM      5  C   UNL     1      34.652 -23.175 -16.222  0.00  0.00    +0.145 C 
ATOM      6  C   UNL     1      35.722 -23.440 -14.072  0.00  0.00    +0.046 C 
ATOM      7  C   UNL     1      35.782 -23.059 -15.413  0.00  0.00    +0.071 C 
ENDROOT
BRANCH   3   8
ATOM      8  O   UNL     1      34.490 -24.304 -12.230  0.00  0.00    -0.472 OA
ATOM      9  C   UNL     1      35.730 -24.632 -11.609  0.00  0.00    +0.252 C 
ENDBRANCH   3   8
BRANCH   5  10
ATOM     10  O   UNL     1      34.678 -22.812 -17.536  0.00  0.00    -0.471 OA
ATOM     11  C   UNL     1      33.429 -22.774 -18.222  0.00  0.00    +0.252 C 
ENDBRANCH   5  10
BRANCH   2  12
ATOM     12  C   UNL     1      32.119 -24.584 -13.801  0.00  0.00    +0.008 C 
BRANCH  12  13
ATOM     13  C   UNL     1      30.930 -24.451 -14.771  0.00  0.00    -0.061 C 
ATOM     14  C   UNL     1      30.193 -23.120 -14.615  0.00  0.00    -0.024 C 
BRANCH  13  15
ATOM     15  N   UNL     1      29.976 -25.538 -14.528  0.00  0.00    +0.382 N 
ATOM     16  H   UNL     1      30.429 -26.434 -14.709  0.00  0.00    -0.089 HD
ATOM     17  H   UNL     1      29.175 -25.431 -15.147  0.00  0.00    -0.089 HD
ATOM     18  H   UNL     1      29.664 -25.505 -13.557  0.00  0.00    -0.089 HD
ENDBRANCH  13  15
ENDBRANCH  12  13
ENDBRANCH   2  12
TORSDOF 5
ENDMDL
MODEL 4
REMARK VINA RESULT:      -6.2      3.631      6.311
REMARK  Name = 62065
REMARK  5 active torsions:
REMARK  status: ('A' for Active; 'I' for Inactive)
REMARK    1  A    between atoms: C_2  and  C_12
REMARK    2  A    between atoms: C_3  and  O_8
REMARK    3  A    between atoms: C_5  and  O_10
REMARK    4  A    between atoms: C_12  and  C_13
REMARK    5  A    between atoms: C_13  and  N_15
REMARK                            x       y       z     vdW  Elec       q    Type
REMARK                         _______ _______ _______ _____ _____    ______ ____
ROOT
ATOM      1 BR   UNL     1      33.389 -22.783 -18.125  0.00  0.00    -0.046 Br
ATOM      2  C   UNL     1      34.896 -23.860 -13.841  0.00  0.00    +0.013 C 
ATOM      3  C   UNL     1      33.551 -23.992 -14.153  0.00  0.00    +0.135 C 
ATOM      4  C   UNL     1      35.811 -23.412 -14.781  0.00  0.00    +0.036 C 
ATOM      5  C   UNL     1      35.372 -23.088 -16.064  0.00  0.00    +0.145 C 
ATOM      6  C   UNL     1      33.111 -23.667 -15.436  0.00  0.00    +0.046 C 
ATOM      7  C   UNL     1      34.022 -23.215 -16.392  0.00  0.00    +0.071 C 
ENDROOT
BRANCH   3   8
ATOM      8  O   UNL     1      32.649 -24.433 -13.231  0.00  0.00    -0.472 OA
ATOM      9  C   UNL     1      31.460 -25.041 -13.728  0.00  0.00    +0.252 C 
ENDBRANCH   3   8
BRANCH   5  10
ATOM     10  O   UNL     1      36.286 -22.649 -16.975  0.00  0.00    -0.471 OA
ATOM     11  C   UNL     1      37.223 -21.671 -16.531  0.00  0.00    +0.252 C 
ENDBRANCH   5  10
BRANCH   2  12
ATOM     12  C   UNL     1      35.391 -24.206 -12.456  0.00  0.00    +0.008 C 
BRANCH  12  13
ATOM     13  C   UNL     1      36.908 -24.004 -12.276  0.00  0.00    -0.061 C 
ATOM     14  C   UNL     1      37.677 -25.326 -12.266  0.00  0.00    -0.024 C 
BRANCH  13  15
ATOM     15  N   UNL     1      37.161 -23.313 -11.008  0.00  0.00    +0.382 N 
ATOM     16  H   UNL     1      37.653 -23.940 -10.372  0.00  0.00    -0.089 HD
ATOM     17  H   UNL     1      36.275 -23.033 -10.592  0.00  0.00    -0.089 HD
ATOM     18  H   UNL     1      37.733 -22.486 -11.181  0.00  0.00    -0.089 HD
ENDBRANCH  13  15
ENDBRANCH  12  13
ENDBRANCH   2  12
TORSDOF 5
ENDMDL
MODEL 5
REMARK VINA RESULT:      -6.2      6.812      9.312
REMARK  Name = 62065
REMARK  5 active torsions:
REMARK  status: ('A' for Active; 'I' for Inactive)
REMARK    1  A    between atoms: C_2  and  C_12
REMARK    2  A    between atoms: C_3  and  O_8
REMARK    3  A    between atoms: C_5  and  O_10
REMARK    4  A    between atoms: C_12  and  C_13
REMARK    5  A    between atoms: C_13  and  N_15
REMARK                            x       y       z     vdW  Elec       q    Type
REMARK                         _______ _______ _______ _____ _____    ______ ____
ROOT
ATOM      1 BR   UNL     1      33.241 -14.836 -26.105  0.00  0.00    -0.046 Br
ATOM      2  C   UNL     1      34.770 -16.855 -22.184  0.00  0.00    +0.013 C 
ATOM      3  C   UNL     1      34.294 -15.553 -22.149  0.00  0.00    +0.135 C 
ATOM      4  C   UNL     1      34.803 -17.577 -23.367  0.00  0.00    +0.036 C 
ATOM      5  C   UNL     1      34.348 -16.984 -24.544  0.00  0.00    +0.145 C 
ATOM      6  C   UNL     1      33.840 -14.959 -23.326  0.00  0.00    +0.046 C 
ATOM      7  C   UNL     1      33.867 -15.674 -24.524  0.00  0.00    +0.071 C 
ENDROOT
BRANCH   3   8
ATOM      8  O   UNL     1      34.260 -14.841 -20.988  0.00  0.00    -0.472 OA
ATOM      9  C   UNL     1      32.976 -14.569 -20.432  0.00  0.00    +0.252 C 
ENDBRANCH   3   8
BRANCH   5  10
ATOM     10  O   UNL     1      34.388 -17.709 -25.698  0.00  0.00    -0.471 OA
ATOM     11  C   UNL     1      34.339 -19.127 -25.572  0.00  0.00    +0.252 C 
ENDBRANCH   5  10
BRANCH   2  12
ATOM     12  C   UNL     1      35.268 -17.515 -20.919  0.00  0.00    +0.008 C 
BRANCH  12  13
ATOM     13  C   UNL     1      35.448 -19.039 -21.049  0.00  0.00    -0.061 C 
ATOM     14  C   UNL     1      34.195 -19.813 -20.641  0.00  0.00    -0.024 C 
BRANCH  13  15
ATOM     15  N   UNL     1      36.558 -19.474 -20.197  0.00  0.00    +0.382 N 
ATOM     16  H   UNL     1      37.147 -20.127 -20.713  0.00  0.00    -0.089 HD
ATOM     17  H   UNL     1      36.188 -19.934 -19.366  0.00  0.00    -0.089 HD
ATOM     18  H   UNL     1      37.112 -18.663 -19.920  0.00  0.00    -0.089 HD
ENDBRANCH  13  15
ENDBRANCH  12  13
ENDBRANCH   2  12
TORSDOF 5
ENDMDL
MODEL 6
REMARK VINA RESULT:      -6.2      6.789      9.462
REMARK  Name = 62065
REMARK  5 active torsions:
REMARK  status: ('A' for Active; 'I' for Inactive)
REMARK    1  A    between atoms: C_2  and  C_12
REMARK    2  A    between atoms: C_3  and  O_8
REMARK    3  A    between atoms: C_5  and  O_10
REMARK    4  A    between atoms: C_12  and  C_13
REMARK    5  A    between atoms: C_13  and  N_15
REMARK                            x       y       z     vdW  Elec       q    Type
REMARK                         _______ _______ _______ _____ _____    ______ ____
ROOT
ATOM      1 BR   UNL     1      34.933 -19.715 -24.849  0.00  0.00    -0.046 Br
ATOM      2  C   UNL     1      34.473 -15.470 -22.962  0.00  0.00    +0.013 C 
ATOM      3  C   UNL     1      34.041 -15.699 -24.260  0.00  0.00    +0.135 C 
ATOM      4  C   UNL     1      35.043 -16.483 -22.205  0.00  0.00    +0.036 C 
ATOM      5  C   UNL     1      35.184 -17.755 -22.759  0.00  0.00    +0.145 C 
ATOM      6  C   UNL     1      34.184 -16.971 -24.814  0.00  0.00    +0.046 C 
ATOM      7  C   UNL     1      34.756 -17.999 -24.064  0.00  0.00    +0.071 C 
ENDROOT
BRANCH   3   8
ATOM      8  O   UNL     1      33.480 -14.707 -25.005  0.00  0.00    -0.472 OA
ATOM      9  C   UNL     1      32.971 -15.068 -26.286  0.00  0.00    +0.252 C 
ENDBRANCH   3   8
BRANCH   5  10
ATOM     10  O   UNL     1      35.748 -18.738 -22.000  0.00  0.00    -0.471 OA
ATOM     11  C   UNL     1      34.913 -19.361 -21.027  0.00  0.00    +0.252 C 
ENDBRANCH   5  10
BRANCH   2  12
ATOM     12  C   UNL     1      34.328 -14.100 -22.344  0.00  0.00    +0.008 C 
BRANCH  12  13
ATOM     13  C   UNL     1      32.961 -13.866 -21.675  0.00  0.00    -0.061 C 
ATOM     14  C   UNL     1      32.372 -15.148 -21.084  0.00  0.00    -0.024 C 
BRANCH  13  15
ATOM     15  N   UNL     1      32.016 -13.337 -22.663  0.00  0.00    +0.382 N 
ATOM     16  H   UNL     1      31.064 -13.437 -22.311  0.00  0.00    -0.089 HD
ATOM     17  H   UNL     1      32.112 -13.856 -23.535  0.00  0.00    -0.089 HD
ATOM     18  H   UNL     1      32.216 -12.351 -22.829  0.00  0.00    -0.089 HD
ENDBRANCH  13  15
ENDBRANCH  12  13
ENDBRANCH   2  12
TORSDOF 5
ENDMDL
MODEL 7
REMARK VINA RESULT:      -6.1      2.906      4.501
REMARK  Name = 62065
REMARK  5 active torsions:
REMARK  status: ('A' for Active; 'I' for Inactive)
REMARK    1  A    between atoms: C_2  and  C_12
REMARK    2  A    between atoms: C_3  and  O_8
REMARK    3  A    between atoms: C_5  and  O_10
REMARK    4  A    between atoms: C_12  and  C_13
REMARK    5  A    between atoms: C_13  and  N_15
REMARK                            x       y       z     vdW  Elec       q    Type
REMARK                         _______ _______ _______ _____ _____    ______ ____
ROOT
ATOM      1 BR   UNL     1      29.601 -22.846 -16.410  0.00  0.00    -0.046 Br
ATOM      2  C   UNL     1      34.159 -23.536 -15.679  0.00  0.00    +0.013 C 
ATOM      3  C   UNL     1      33.700 -23.250 -16.956  0.00  0.00    +0.135 C 
ATOM      4  C   UNL     1      33.287 -23.622 -14.605  0.00  0.00    +0.036 C 
ATOM      5  C   UNL     1      31.923 -23.417 -14.812  0.00  0.00    +0.145 C 
ATOM      6  C   UNL     1      32.336 -23.046 -17.164  0.00  0.00    +0.046 C 
ATOM      7  C   UNL     1      31.447 -23.129 -16.091  0.00  0.00    +0.071 C 
ENDROOT
BRANCH   3   8
ATOM      8  O   UNL     1      34.555 -23.164 -18.014  0.00  0.00    -0.472 OA
ATOM      9  C   UNL     1      34.187 -22.287 -19.075  0.00  0.00    +0.252 C 
ENDBRANCH   3   8
BRANCH   5  10
ATOM     10  O   UNL     1      31.080 -23.506 -13.744  0.00  0.00    -0.471 OA
ATOM     11  C   UNL     1      30.709 -24.816 -13.321  0.00  0.00    +0.252 C 
ENDBRANCH   5  10
BRANCH   2  12
ATOM     12  C   UNL     1      35.632 -23.762 -15.435  0.00  0.00    +0.008 C 
BRANCH  12  13
ATOM     13  C   UNL     1      35.926 -24.924 -14.466  0.00  0.00    -0.061 C 
ATOM     14  C   UNL     1      37.336 -24.854 -13.879  0.00  0.00    -0.024 C 
BRANCH  13  15
ATOM     15  N   UNL     1      35.784 -26.198 -15.176  0.00  0.00    +0.382 N 
ATOM     16  H   UNL     1      36.258 -26.934 -14.651  0.00  0.00    -0.089 HD
ATOM     17  H   UNL     1      36.200 -26.120 -16.102  0.00  0.00    -0.089 HD
ATOM     18  H   UNL     1      34.794 -26.429 -15.265  0.00  0.00    -0.089 HD
ENDBRANCH  13  15
ENDBRANCH  12  13
ENDBRANCH   2  12
TORSDOF 5
ENDMDL
MODEL 8
REMARK VINA RESULT:      -6.1     10.035     12.318
REMARK  Name = 62065
REMARK  5 active torsions:
REMARK  status: ('A' for Active; 'I' for Inactive)
REMARK    1  A    between atoms: C_2  and  C_12
REMARK    2  A    between atoms: C_3  and  O_8
REMARK    3  A    between atoms: C_5  and  O_10
REMARK    4  A    between atoms: C_12  and  C_13
REMARK    5  A    between atoms: C_13  and  N_15
REMARK                            x       y       z     vdW  Elec       q    Type
REMARK                         _______ _______ _______ _____ _____    ______ ____
ROOT
ATOM      1 BR   UNL     1      33.831 -15.090 -24.382  0.00  0.00    -0.046 Br
ATOM      2  C   UNL     1      32.204 -11.301 -22.196  0.00  0.00    +0.013 C 
ATOM      3  C   UNL     1      32.959 -11.161 -23.350  0.00  0.00    +0.135 C 
ATOM      4  C   UNL     1      31.918 -12.552 -21.671  0.00  0.00    +0.036 C 
ATOM      5  C   UNL     1      32.399 -13.691 -22.316  0.00  0.00    +0.145 C 
ATOM      6  C   UNL     1      33.440 -12.299 -23.995  0.00  0.00    +0.046 C 
ATOM      7  C   UNL     1      33.160 -13.565 -23.479  0.00  0.00    +0.071 C 
ENDROOT
BRANCH   3   8
ATOM      8  O   UNL     1      33.240  -9.932 -23.869  0.00  0.00    -0.472 OA
ATOM      9  C   UNL     1      34.611  -9.630 -24.111  0.00  0.00    +0.252 C 
ENDBRANCH   3   8
BRANCH   5  10
ATOM     10  O   UNL     1      32.109 -14.913 -21.786  0.00  0.00    -0.471 OA
ATOM     11  C   UNL     1      32.807 -15.285 -20.600  0.00  0.00    +0.252 C 
ENDBRANCH   5  10
BRANCH   2  12
ATOM     12  C   UNL     1      31.674 -10.079 -21.482  0.00  0.00    +0.008 C 
BRANCH  12  13
ATOM     13  C   UNL     1      32.124  -9.980 -20.012  0.00  0.00    -0.061 C 
ATOM     14  C   UNL     1      31.016 -10.367 -19.033  0.00  0.00    -0.024 C 
BRANCH  13  15
ATOM     15  N   UNL     1      32.539  -8.605 -19.720  0.00  0.00    +0.382 N 
ATOM     16  H   UNL     1      32.353  -8.395 -18.739  0.00  0.00    -0.089 HD
ATOM     17  H   UNL     1      32.016  -7.960 -20.310  0.00  0.00    -0.089 HD
ATOM     18  H   UNL     1      33.537  -8.504 -19.905  0.00  0.00    -0.089 HD
ENDBRANCH  13  15
ENDBRANCH  12  13
ENDBRANCH   2  12
TORSDOF 5
ENDMDL
MODEL 9
REMARK VINA RESULT:      -6.1      8.759     11.366
REMARK  Name = 62065
REMARK  5 active torsions:
REMARK  status: ('A' for Active; 'I' for Inactive)
REMARK    1  A    between atoms: C_2  and  C_12
REMARK    2  A    between atoms: C_3  and  O_8
REMARK    3  A    between atoms: C_5  and  O_10
REMARK    4  A    between atoms: C_12  and  C_13
REMARK    5  A    between atoms: C_13  and  N_15
REMARK                            x       y       z     vdW  Elec       q    Type
REMARK                         _______ _______ _______ _____ _____    ______ ____
ROOT
ATOM      1 BR   UNL     1      34.892 -18.001 -24.354  0.00  0.00    -0.046 Br
ATOM      2  C   UNL     1      33.420 -13.588 -23.971  0.00  0.00    +0.013 C 
ATOM      3  C   UNL     1      33.246 -14.273 -25.164  0.00  0.00    +0.135 C 
ATOM      4  C   UNL     1      34.025 -14.191 -22.878  0.00  0.00    +0.036 C 
ATOM      5  C   UNL     1      34.468 -15.509 -22.982  0.00  0.00    +0.145 C 
ATOM      6  C   UNL     1      33.690 -15.591 -25.268  0.00  0.00    +0.046 C 
ATOM      7  C   UNL     1      34.302 -16.209 -24.177  0.00  0.00    +0.071 C 
ENDROOT
BRANCH   3   8
ATOM      8  O   UNL     1      32.650 -13.684 -26.239  0.00  0.00    -0.472 OA
ATOM      9  C   UNL     1      33.452 -13.496 -27.402  0.00  0.00    +0.252 C 
ENDBRANCH   3   8
BRANCH   5  10
ATOM     10  O   UNL     1      35.063 -16.085 -21.898  0.00  0.00    -0.471 OA
ATOM     11  C   UNL     1      34.616 -15.658 -20.614  0.00  0.00    +0.252 C 
ENDBRANCH   5  10
BRANCH   2  12
ATOM     12  C   UNL     1      32.946 -12.160 -23.839  0.00  0.00    +0.008 C 
BRANCH  12  13
ATOM     13  C   UNL     1      34.085 -11.125 -23.902  0.00  0.00    -0.061 C 
ATOM     14  C   UNL     1      33.597  -9.700 -23.639  0.00  0.00    -0.024 C 
BRANCH  13  15
ATOM     15  N   UNL     1      34.706 -11.163 -25.230  0.00  0.00    +0.382 N 
ATOM     16  H   UNL     1      33.985 -11.070 -25.945  0.00  0.00    -0.089 HD
ATOM     17  H   UNL     1      35.194 -12.049 -25.351  0.00  0.00    -0.089 HD
ATOM     18  H   UNL     1      35.371 -10.393 -25.316  0.00  0.00    -0.089 HD
ENDBRANCH  13  15
ENDBRANCH  12  13
ENDBRANCH   2  12
TORSDOF 5
ENDMDL
