MODEL 1
REMARK VINA RESULT:      -7.9      0.000      0.000
REMARK  Name = 5280911
REMARK  5 active torsions:
REMARK  status: ('A' for Active; 'I' for Inactive)
REMARK    1  A    between atoms: C_1  and  C_9
REMARK    2  A    between atoms: C_2  and  O_7
REMARK    3  A    between atoms: C_10  and  C_12
REMARK    4  A    between atoms: C_12  and  C_14
REMARK    5  A    between atoms: C_14  and  O_15
REMARK                            x       y       z     vdW  Elec       q    Type
REMARK                         _______ _______ _______ _____ _____    ______ ____
ROOT
ATOM      1  C   UNL     1      34.707 -19.826 -20.773  0.00  0.00    +0.034 C 
ATOM      2  C   UNL     1      33.570 -20.491 -20.315  0.00  0.00    +0.134 C 
ATOM      3  C   UNL     1      35.974 -20.261 -20.381  0.00  0.00    +0.003 C 
ATOM      4  C   UNL     1      33.698 -21.589 -19.465  0.00  0.00    +0.037 C 
ATOM      5  C   UNL     1      36.102 -21.359 -19.531  0.00  0.00    +0.000 C 
ATOM      6  C   UNL     1      34.964 -22.023 -19.072  0.00  0.00    +0.003 C 
ENDROOT
BRANCH   2   7
ATOM      7  O   UNL     1      32.320 -20.086 -20.682  0.00  0.00    -0.506 OA
ATOM      8  H   UNL     1      32.050 -19.202 -20.528  0.00  0.00    +0.292 HD
ENDBRANCH   2   7
BRANCH   1   9
ATOM      9  C   UNL     1      34.600 -18.677 -21.661  0.00  0.00    +0.007 C 
ATOM     10  C   UNL     1      35.358 -18.469 -22.759  0.00  0.00    +0.049 C 
BRANCH  10  12
ATOM     11  O   UNL     1      35.412 -16.115 -23.208  0.00  0.00    -0.280 OA
ATOM     12  C   UNL     1      35.162 -17.250 -23.582  0.00  0.00    +0.270 C 
BRANCH  12  14
ATOM     13  O   UNL     1      34.663 -16.611 -25.847  0.00  0.00    -0.241 OA
ATOM     14  C   UNL     1      34.627 -17.462 -24.981  0.00  0.00    +0.378 C 
BRANCH  14  15
ATOM     15  O   UNL     1      34.129 -18.704 -25.095  0.00  0.00    -0.475 OA
ATOM     16  H   UNL     1      33.322 -18.845 -25.548  0.00  0.00    +0.296 HD
ENDBRANCH  14  15
ENDBRANCH  12  14
ENDBRANCH  10  12
ENDBRANCH   1   9
TORSDOF 5
ENDMDL
MODEL 2
REMARK VINA RESULT:      -7.8      1.356      1.869
REMARK  Name = 5280911
REMARK  5 active torsions:
REMARK  status: ('A' for Active; 'I' for Inactive)
REMARK    1  A    between atoms: C_1  and  C_9
REMARK    2  A    between atoms: C_2  and  O_7
REMARK    3  A    between atoms: C_10  and  C_12
REMARK    4  A    between atoms: C_12  and  C_14
REMARK    5  A    between atoms: C_14  and  O_15
REMARK                            x       y       z     vdW  Elec       q    Type
REMARK                         _______ _______ _______ _____ _____    ______ ____
ROOT
ATOM      1  C   UNL     1      34.588 -19.458 -20.929  0.00  0.00    +0.034 C 
ATOM      2  C   UNL     1      35.777 -20.008 -20.452  0.00  0.00    +0.134 C 
ATOM      3  C   UNL     1      33.367 -20.053 -20.609  0.00  0.00    +0.003 C 
ATOM      4  C   UNL     1      35.747 -21.153 -19.656  0.00  0.00    +0.037 C 
ATOM      5  C   UNL     1      33.337 -21.198 -19.813  0.00  0.00    +0.000 C 
ATOM      6  C   UNL     1      34.526 -21.749 -19.337  0.00  0.00    +0.003 C 
ENDROOT
BRANCH   2   7
ATOM      7  O   UNL     1      36.984 -19.447 -20.750  0.00  0.00    -0.506 OA
ATOM      8  H   UNL     1      37.021 -18.638 -21.221  0.00  0.00    +0.292 HD
ENDBRANCH   2   7
BRANCH   1   9
ATOM      9  C   UNL     1      34.593 -18.263 -21.761  0.00  0.00    +0.007 C 
ATOM     10  C   UNL     1      34.947 -18.224 -23.064  0.00  0.00    +0.049 C 
BRANCH  10  12
ATOM     11  O   UNL     1      35.326 -15.876 -23.363  0.00  0.00    -0.280 OA
ATOM     12  C   UNL     1      34.923 -16.940 -23.807  0.00  0.00    +0.270 C 
BRANCH  12  14
ATOM     13  O   UNL     1      34.310 -16.017 -25.942  0.00  0.00    -0.241 OA
ATOM     14  C   UNL     1      34.367 -16.987 -25.213  0.00  0.00    +0.378 C 
BRANCH  14  15
ATOM     15  O   UNL     1      33.968 -18.235 -25.503  0.00  0.00    -0.475 OA
ATOM     16  H   UNL     1      34.589 -18.936 -25.505  0.00  0.00    +0.296 HD
ENDBRANCH  14  15
ENDBRANCH  12  14
ENDBRANCH  10  12
ENDBRANCH   1   9
TORSDOF 5
ENDMDL
MODEL 3
REMARK VINA RESULT:      -7.7      2.352      5.813
REMARK  Name = 5280911
REMARK  5 active torsions:
REMARK  status: ('A' for Active; 'I' for Inactive)
REMARK    1  A    between atoms: C_1  and  C_9
REMARK    2  A    between atoms: C_2  and  O_7
REMARK    3  A    between atoms: C_10  and  C_12
REMARK    4  A    between atoms: C_12  and  C_14
REMARK    5  A    between atoms: C_14  and  O_15
REMARK                            x       y       z     vdW  Elec       q    Type
REMARK                         _______ _______ _______ _____ _____    ______ ____
ROOT
ATOM      1  C   UNL     1      35.169 -18.552 -22.154  0.00  0.00    +0.034 C 
ATOM      2  C   UNL     1      35.104 -17.202 -21.812  0.00  0.00    +0.134 C 
ATOM      3  C   UNL     1      35.011 -18.943 -23.484  0.00  0.00    +0.003 C 
ATOM      4  C   UNL     1      34.880 -16.242 -22.798  0.00  0.00    +0.037 C 
ATOM      5  C   UNL     1      34.787 -17.983 -24.471  0.00  0.00    +0.000 C 
ATOM      6  C   UNL     1      34.721 -16.632 -24.129  0.00  0.00    +0.003 C 
ENDROOT
BRANCH   2   7
ATOM      7  O   UNL     1      35.254 -16.793 -20.519  0.00  0.00    -0.506 OA
ATOM      8  H   UNL     1      35.124 -17.400 -19.818  0.00  0.00    +0.292 HD
ENDBRANCH   2   7
BRANCH   1   9
ATOM      9  C   UNL     1      35.402 -19.574 -21.142  0.00  0.00    +0.007 C 
ATOM     10  C   UNL     1      34.439 -20.301 -20.536  0.00  0.00    +0.049 C 
BRANCH  10  12
ATOM     11  O   UNL     1      35.816 -21.273 -18.830  0.00  0.00    -0.280 OA
ATOM     12  C   UNL     1      34.800 -21.309 -19.508  0.00  0.00    +0.270 C 
BRANCH  12  14
ATOM     13  O   UNL     1      34.084 -23.605 -19.510  0.00  0.00    -0.241 OA
ATOM     14  C   UNL     1      33.817 -22.439 -19.299  0.00  0.00    +0.378 C 
BRANCH  14  15
ATOM     15  O   UNL     1      32.649 -21.950 -18.855  0.00  0.00    -0.475 OA
ATOM     16  H   UNL     1      32.479 -21.908 -17.935  0.00  0.00    +0.296 HD
ENDBRANCH  14  15
ENDBRANCH  12  14
ENDBRANCH  10  12
ENDBRANCH   1   9
TORSDOF 5
ENDMDL
MODEL 4
REMARK VINA RESULT:      -7.4      1.456      2.347
REMARK  Name = 5280911
REMARK  5 active torsions:
REMARK  status: ('A' for Active; 'I' for Inactive)
REMARK    1  A    between atoms: C_1  and  C_9
REMARK    2  A    between atoms: C_2  and  O_7
REMARK    3  A    between atoms: C_10  and  C_12
REMARK    4  A    between atoms: C_12  and  C_14
REMARK    5  A    between atoms: C_14  and  O_15
REMARK                            x       y       z     vdW  Elec       q    Type
REMARK                         _______ _______ _______ _____ _____    ______ ____
ROOT
ATOM      1  C   UNL     1      34.695 -19.800 -20.682  0.00  0.00    +0.034 C 
ATOM      2  C   UNL     1      33.620 -20.548 -20.203  0.00  0.00    +0.134 C 
ATOM      3  C   UNL     1      36.002 -20.211 -20.419  0.00  0.00    +0.003 C 
ATOM      4  C   UNL     1      33.850 -21.705 -19.459  0.00  0.00    +0.037 C 
ATOM      5  C   UNL     1      36.233 -21.369 -19.676  0.00  0.00    +0.000 C 
ATOM      6  C   UNL     1      35.158 -22.116 -19.195  0.00  0.00    +0.003 C 
ENDROOT
BRANCH   2   7
ATOM      7  O   UNL     1      32.332 -20.168 -20.445  0.00  0.00    -0.506 OA
ATOM      8  H   UNL     1      32.135 -19.623 -21.181  0.00  0.00    +0.292 HD
ENDBRANCH   2   7
BRANCH   1   9
ATOM      9  C   UNL     1      34.480 -18.588 -21.461  0.00  0.00    +0.007 C 
ATOM     10  C   UNL     1      35.346 -17.557 -21.549  0.00  0.00    +0.049 C 
BRANCH  10  12
ATOM     11  O   UNL     1      35.080 -16.323 -23.587  0.00  0.00    -0.280 OA
ATOM     12  C   UNL     1      35.010 -16.366 -22.368  0.00  0.00    +0.270 C 
BRANCH  12  14
ATOM     13  O   UNL     1      33.960 -14.214 -22.143  0.00  0.00    -0.241 OA
ATOM     14  C   UNL     1      34.539 -15.142 -21.615  0.00  0.00    +0.378 C 
BRANCH  14  15
ATOM     15  O   UNL     1      34.856 -15.257 -20.316  0.00  0.00    -0.475 OA
ATOM     16  H   UNL     1      35.751 -15.351 -20.059  0.00  0.00    +0.296 HD
ENDBRANCH  14  15
ENDBRANCH  12  14
ENDBRANCH  10  12
ENDBRANCH   1   9
TORSDOF 5
ENDMDL
MODEL 5
REMARK VINA RESULT:      -7.4      2.087      3.041
REMARK  Name = 5280911
REMARK  5 active torsions:
REMARK  status: ('A' for Active; 'I' for Inactive)
REMARK    1  A    between atoms: C_1  and  C_9
REMARK    2  A    between atoms: C_2  and  O_7
REMARK    3  A    between atoms: C_10  and  C_12
REMARK    4  A    between atoms: C_12  and  C_14
REMARK    5  A    between atoms: C_14  and  O_15
REMARK                            x       y       z     vdW  Elec       q    Type
REMARK                         _______ _______ _______ _____ _____    ______ ____
ROOT
ATOM      1  C   UNL     1      34.586 -19.367 -21.047  0.00  0.00    +0.034 C 
ATOM      2  C   UNL     1      35.791 -19.904 -20.595  0.00  0.00    +0.134 C 
ATOM      3  C   UNL     1      33.377 -19.959 -20.678  0.00  0.00    +0.003 C 
ATOM      4  C   UNL     1      35.789 -21.032 -19.775  0.00  0.00    +0.037 C 
ATOM      5  C   UNL     1      33.375 -21.086 -19.857  0.00  0.00    +0.000 C 
ATOM      6  C   UNL     1      34.581 -21.624 -19.406  0.00  0.00    +0.003 C 
ENDROOT
BRANCH   2   7
ATOM      7  O   UNL     1      36.987 -19.346 -20.942  0.00  0.00    -0.506 OA
ATOM      8  H   UNL     1      37.744 -19.889 -21.048  0.00  0.00    +0.292 HD
ENDBRANCH   2   7
BRANCH   1   9
ATOM      9  C   UNL     1      34.562 -18.190 -21.905  0.00  0.00    +0.007 C 
ATOM     10  C   UNL     1      34.519 -16.913 -21.470  0.00  0.00    +0.049 C 
BRANCH  10  12
ATOM     11  O   UNL     1      35.285 -15.648 -23.358  0.00  0.00    -0.280 OA
ATOM     12  C   UNL     1      34.487 -15.793 -22.444  0.00  0.00    +0.270 C 
BRANCH  12  14
ATOM     13  O   UNL     1      32.287 -15.062 -21.804  0.00  0.00    -0.241 OA
ATOM     14  C   UNL     1      33.371 -14.786 -22.276  0.00  0.00    +0.378 C 
BRANCH  14  15
ATOM     15  O   UNL     1      33.773 -13.584 -22.717  0.00  0.00    -0.475 OA
ATOM     16  H   UNL     1      34.250 -13.012 -22.149  0.00  0.00    +0.296 HD
ENDBRANCH  14  15
ENDBRANCH  12  14
ENDBRANCH  10  12
ENDBRANCH   1   9
TORSDOF 5
ENDMDL
MODEL 6
REMARK VINA RESULT:      -7.3      8.448      9.607
REMARK  Name = 5280911
REMARK  5 active torsions:
REMARK  status: ('A' for Active; 'I' for Inactive)
REMARK    1  A    between atoms: C_1  and  C_9
REMARK    2  A    between atoms: C_2  and  O_7
REMARK    3  A    between atoms: C_10  and  C_12
REMARK    4  A    between atoms: C_12  and  C_14
REMARK    5  A    between atoms: C_14  and  O_15
REMARK                            x       y       z     vdW  Elec       q    Type
REMARK                         _______ _______ _______ _____ _____    ______ ____
ROOT
ATOM      1  C   UNL     1      31.053 -23.931 -15.451  0.00  0.00    +0.034 C 
ATOM      2  C   UNL     1      31.074 -24.768 -14.337  0.00  0.00    +0.134 C 
ATOM      3  C   UNL     1      32.197 -23.214 -15.806  0.00  0.00    +0.003 C 
ATOM      4  C   UNL     1      32.236 -24.890 -13.576  0.00  0.00    +0.037 C 
ATOM      5  C   UNL     1      33.360 -23.336 -15.045  0.00  0.00    +0.000 C 
ATOM      6  C   UNL     1      33.380 -24.173 -13.930  0.00  0.00    +0.003 C 
ENDROOT
BRANCH   2   7
ATOM      7  O   UNL     1      29.970 -25.479 -13.967  0.00  0.00    -0.506 OA
ATOM      8  H   UNL     1      30.058 -26.219 -13.399  0.00  0.00    +0.292 HD
ENDBRANCH   2   7
BRANCH   1   9
ATOM      9  C   UNL     1      29.852 -23.787 -16.262  0.00  0.00    +0.007 C 
ATOM     10  C   UNL     1      28.956 -22.782 -16.153  0.00  0.00    +0.049 C 
BRANCH  10  12
ATOM     11  O   UNL     1      27.648 -23.379 -18.071  0.00  0.00    -0.280 OA
ATOM     12  C   UNL     1      27.760 -22.749 -17.030  0.00  0.00    +0.270 C 
BRANCH  12  14
ATOM     13  O   UNL     1      25.948 -22.112 -15.582  0.00  0.00    -0.241 OA
ATOM     14  C   UNL     1      26.613 -21.877 -16.571  0.00  0.00    +0.378 C 
BRANCH  14  15
ATOM     15  O   UNL     1      26.465 -20.840 -17.411  0.00  0.00    -0.475 OA
ATOM     16  H   UNL     1      27.200 -20.522 -17.895  0.00  0.00    +0.296 HD
ENDBRANCH  14  15
ENDBRANCH  12  14
ENDBRANCH  10  12
ENDBRANCH   1   9
TORSDOF 5
ENDMDL
MODEL 7
REMARK VINA RESULT:      -7.2      4.180      7.071
REMARK  Name = 5280911
REMARK  5 active torsions:
REMARK  status: ('A' for Active; 'I' for Inactive)
REMARK    1  A    between atoms: C_1  and  C_9
REMARK    2  A    between atoms: C_2  and  O_7
REMARK    3  A    between atoms: C_10  and  C_12
REMARK    4  A    between atoms: C_12  and  C_14
REMARK    5  A    between atoms: C_14  and  O_15
REMARK                            x       y       z     vdW  Elec       q    Type
REMARK                         _______ _______ _______ _____ _____    ______ ____
ROOT
ATOM      1  C   UNL     1      35.047 -21.295 -19.340  0.00  0.00    +0.034 C 
ATOM      2  C   UNL     1      33.668 -21.304 -19.550  0.00  0.00    +0.134 C 
ATOM      3  C   UNL     1      35.868 -20.493 -20.134  0.00  0.00    +0.003 C 
ATOM      4  C   UNL     1      33.110 -20.512 -20.553  0.00  0.00    +0.037 C 
ATOM      5  C   UNL     1      35.309 -19.702 -21.137  0.00  0.00    +0.000 C 
ATOM      6  C   UNL     1      33.931 -19.711 -21.348  0.00  0.00    +0.003 C 
ENDROOT
BRANCH   2   7
ATOM      7  O   UNL     1      32.843 -22.079 -18.789  0.00  0.00    -0.506 OA
ATOM      8  H   UNL     1      32.530 -22.897 -19.122  0.00  0.00    +0.292 HD
ENDBRANCH   2   7
BRANCH   1   9
ATOM      9  C   UNL     1      35.653 -22.112 -18.298  0.00  0.00    +0.007 C 
ATOM     10  C   UNL     1      36.525 -21.666 -17.369  0.00  0.00    +0.049 C 
BRANCH  10  12
ATOM     11  O   UNL     1      38.278 -22.735 -16.131  0.00  0.00    -0.280 OA
ATOM     12  C   UNL     1      37.086 -22.600 -16.361  0.00  0.00    +0.270 C 
BRANCH  12  14
ATOM     13  O   UNL     1      35.195 -22.928 -14.911  0.00  0.00    -0.241 OA
ATOM     14  C   UNL     1      36.088 -23.418 -15.572  0.00  0.00    +0.378 C 
BRANCH  14  15
ATOM     15  O   UNL     1      36.347 -24.726 -15.728  0.00  0.00    -0.475 OA
ATOM     16  H   UNL     1      35.643 -25.340 -15.783  0.00  0.00    +0.296 HD
ENDBRANCH  14  15
ENDBRANCH  12  14
ENDBRANCH  10  12
ENDBRANCH   1   9
TORSDOF 5
ENDMDL
MODEL 8
REMARK VINA RESULT:      -7.2      6.779      9.024
REMARK  Name = 5280911
REMARK  5 active torsions:
REMARK  status: ('A' for Active; 'I' for Inactive)
REMARK    1  A    between atoms: C_1  and  C_9
REMARK    2  A    between atoms: C_2  and  O_7
REMARK    3  A    between atoms: C_10  and  C_12
REMARK    4  A    between atoms: C_12  and  C_14
REMARK    5  A    between atoms: C_14  and  O_15
REMARK                            x       y       z     vdW  Elec       q    Type
REMARK                         _______ _______ _______ _____ _____    ______ ____
ROOT
ATOM      1  C   UNL     1      31.811 -23.193 -16.121  0.00  0.00    +0.034 C 
ATOM      2  C   UNL     1      32.901 -23.050 -16.979  0.00  0.00    +0.134 C 
ATOM      3  C   UNL     1      32.019 -23.495 -14.774  0.00  0.00    +0.003 C 
ATOM      4  C   UNL     1      34.198 -23.209 -16.492  0.00  0.00    +0.037 C 
ATOM      5  C   UNL     1      33.316 -23.654 -14.288  0.00  0.00    +0.000 C 
ATOM      6  C   UNL     1      34.406 -23.511 -15.146  0.00  0.00    +0.003 C 
ENDROOT
BRANCH   2   7
ATOM      7  O   UNL     1      32.726 -22.755 -18.299  0.00  0.00    -0.506 OA
ATOM      8  H   UNL     1      33.470 -22.675 -18.864  0.00  0.00    +0.292 HD
ENDBRANCH   2   7
BRANCH   1   9
ATOM      9  C   UNL     1      30.447 -23.032 -16.605  0.00  0.00    +0.007 C 
ATOM     10  C   UNL     1      29.396 -23.796 -16.238  0.00  0.00    +0.049 C 
BRANCH  10  12
ATOM     11  O   UNL     1      27.515 -24.240 -17.656  0.00  0.00    -0.280 OA
ATOM     12  C   UNL     1      28.051 -23.541 -16.810  0.00  0.00    +0.270 C 
BRANCH  12  14
ATOM     13  O   UNL     1      26.863 -22.263 -15.154  0.00  0.00    -0.241 OA
ATOM     14  C   UNL     1      27.312 -22.332 -16.280  0.00  0.00    +0.378 C 
BRANCH  14  15
ATOM     15  O   UNL     1      27.246 -21.386 -17.231  0.00  0.00    -0.475 OA
ATOM     16  H   UNL     1      27.233 -20.481 -16.991  0.00  0.00    +0.296 HD
ENDBRANCH  14  15
ENDBRANCH  12  14
ENDBRANCH  10  12
ENDBRANCH   1   9
TORSDOF 5
ENDMDL
MODEL 9
REMARK VINA RESULT:      -7.2      1.805      5.772
REMARK  Name = 5280911
REMARK  5 active torsions:
REMARK  status: ('A' for Active; 'I' for Inactive)
REMARK    1  A    between atoms: C_1  and  C_9
REMARK    2  A    between atoms: C_2  and  O_7
REMARK    3  A    between atoms: C_10  and  C_12
REMARK    4  A    between atoms: C_12  and  C_14
REMARK    5  A    between atoms: C_14  and  O_15
REMARK                            x       y       z     vdW  Elec       q    Type
REMARK                         _______ _______ _______ _____ _____    ______ ____
ROOT
ATOM      1  C   UNL     1      35.036 -18.306 -22.720  0.00  0.00    +0.034 C 
ATOM      2  C   UNL     1      34.838 -18.640 -24.059  0.00  0.00    +0.134 C 
ATOM      3  C   UNL     1      34.970 -16.971 -22.317  0.00  0.00    +0.003 C 
ATOM      4  C   UNL     1      34.575 -17.641 -24.996  0.00  0.00    +0.037 C 
ATOM      5  C   UNL     1      34.707 -15.973 -23.254  0.00  0.00    +0.000 C 
ATOM      6  C   UNL     1      34.510 -16.307 -24.594  0.00  0.00    +0.003 C 
ENDROOT
BRANCH   2   7
ATOM      7  O   UNL     1      34.898 -19.936 -24.480  0.00  0.00    -0.506 OA
ATOM      8  H   UNL     1      34.429 -20.601 -24.015  0.00  0.00    +0.292 HD
ENDBRANCH   2   7
BRANCH   1   9
ATOM      9  C   UNL     1      35.311 -19.331 -21.722  0.00  0.00    +0.007 C 
ATOM     10  C   UNL     1      34.416 -19.811 -20.833  0.00  0.00    +0.049 C 
BRANCH  10  12
ATOM     11  O   UNL     1      35.920 -20.918 -19.329  0.00  0.00    -0.280 OA
ATOM     12  C   UNL     1      34.819 -20.852 -19.855  0.00  0.00    +0.270 C 
BRANCH  12  14
ATOM     13  O   UNL     1      33.985 -23.074 -19.464  0.00  0.00    -0.241 OA
ATOM     14  C   UNL     1      33.769 -21.879 -19.494  0.00  0.00    +0.378 C 
BRANCH  14  15
ATOM     15  O   UNL     1      32.607 -21.265 -19.220  0.00  0.00    -0.475 OA
ATOM     16  H   UNL     1      32.510 -20.779 -18.426  0.00  0.00    +0.296 HD
ENDBRANCH  14  15
ENDBRANCH  12  14
ENDBRANCH  10  12
ENDBRANCH   1   9
TORSDOF 5
ENDMDL
