MODEL 1
REMARK VINA RESULT:      -9.7      0.000      0.000
REMARK  Name = 39985
REMARK  6 active torsions:
REMARK  status: ('A' for Active; 'I' for Inactive)
REMARK    1  A    between atoms: C_1  and  O_7
REMARK    2  A    between atoms: C_2  and  O_14
REMARK    3  A    between atoms: O_7  and  C_8
REMARK    4  A    between atoms: C_8  and  C_11
REMARK    5  A    between atoms: C_11  and  O_12
REMARK    6  A    between atoms: O_14  and  C_17
REMARK                            x       y       z     vdW  Elec       q    Type
REMARK                         _______ _______ _______ _____ _____    ______ ____
ROOT
ATOM      1  C   UNL     1      34.198 -19.719 -20.835  0.00  0.00    +0.139 C 
ATOM      2  C   UNL     1      34.527 -21.973 -19.244  0.00  0.00    +0.146 C 
ATOM      3  C   UNL     1      33.080 -20.362 -20.315  0.00  0.00    +0.040 C 
ATOM      4  C   UNL     1      35.477 -20.191 -20.568  0.00  0.00    +0.040 C 
ATOM      5  C   UNL     1      33.246 -21.493 -19.516  0.00  0.00    +0.041 C 
ATOM      6  C   UNL     1      35.643 -21.322 -19.769  0.00  0.00    +0.041 C 
ENDROOT
BRANCH   1   7
ATOM      7  O   UNL     1      34.035 -18.606 -21.620  0.00  0.00    -0.468 OA
BRANCH   7   8
ATOM      8  C   UNL     1      35.173 -18.148 -22.330  0.00  0.00    +0.263 C 
ATOM      9  C   UNL     1      35.032 -18.582 -23.779  0.00  0.00    +0.060 C 
BRANCH   8  11
ATOM     10  O   UNL     1      35.348 -15.872 -23.159  0.00  0.00    -0.246 OA
ATOM     11  C   UNL     1      35.246 -16.638 -22.210  0.00  0.00    +0.358 C 
BRANCH  11  12
ATOM     12  O   UNL     1      35.152 -16.277 -20.897  0.00  0.00    -0.442 OA
ATOM     13  C   UNL     1      34.351 -15.121 -20.632  0.00  0.00    +0.256 C 
ENDBRANCH  11  12
ENDBRANCH   8  11
ENDBRANCH   7   8
ENDBRANCH   1   7
BRANCH   2  14
ATOM     14  O   UNL     1      34.688 -23.079 -18.466  0.00  0.00    -0.453 OA
BRANCH  14  17
ATOM     15 CL   UNL     1      36.403 -22.908 -16.003  0.00  0.00    -0.079 Cl
ATOM     16 CL   UNL     1      31.692 -23.284 -13.417  0.00  0.00    -0.082 Cl
ATOM     17  C   UNL     1      34.002 -23.126 -17.264  0.00  0.00    +0.156 C 
ATOM     18  C   UNL     1      34.685 -23.056 -16.062  0.00  0.00    +0.093 C 
ATOM     19  C   UNL     1      32.623 -23.242 -17.307  0.00  0.00    +0.039 C 
ATOM     20  C   UNL     1      33.968 -23.104 -14.867  0.00  0.00    +0.026 C 
ATOM     21  C   UNL     1      31.905 -23.291 -16.112  0.00  0.00    +0.015 C 
ATOM     22  C   UNL     1      32.578 -23.222 -14.891  0.00  0.00    +0.059 C 
ENDBRANCH  14  17
ENDBRANCH   2  14
TORSDOF 6
ENDMDL
MODEL 2
REMARK VINA RESULT:      -9.6      0.548      1.357
REMARK  Name = 39985
REMARK  6 active torsions:
REMARK  status: ('A' for Active; 'I' for Inactive)
REMARK    1  A    between atoms: C_1  and  O_7
REMARK    2  A    between atoms: C_2  and  O_14
REMARK    3  A    between atoms: O_7  and  C_8
REMARK    4  A    between atoms: C_8  and  C_11
REMARK    5  A    between atoms: C_11  and  O_12
REMARK    6  A    between atoms: O_14  and  C_17
REMARK                            x       y       z     vdW  Elec       q    Type
REMARK                         _______ _______ _______ _____ _____    ______ ____
ROOT
ATOM      1  C   UNL     1      34.192 -19.731 -20.785  0.00  0.00    +0.139 C 
ATOM      2  C   UNL     1      34.491 -21.998 -19.206  0.00  0.00    +0.146 C 
ATOM      3  C   UNL     1      35.466 -20.217 -20.515  0.00  0.00    +0.040 C 
ATOM      4  C   UNL     1      33.066 -20.365 -20.274  0.00  0.00    +0.040 C 
ATOM      5  C   UNL     1      35.616 -21.355 -19.723  0.00  0.00    +0.041 C 
ATOM      6  C   UNL     1      33.216 -21.504 -19.482  0.00  0.00    +0.041 C 
ENDROOT
BRANCH   1   7
ATOM      7  O   UNL     1      34.045 -18.612 -21.565  0.00  0.00    -0.468 OA
BRANCH   7   8
ATOM      8  C   UNL     1      35.223 -17.885 -21.873  0.00  0.00    +0.263 C 
ATOM      9  C   UNL     1      35.515 -18.064 -23.352  0.00  0.00    +0.060 C 
BRANCH   8  11
ATOM     10  O   UNL     1      34.966 -15.981 -20.387  0.00  0.00    -0.246 OA
ATOM     11  C   UNL     1      34.997 -16.426 -21.527  0.00  0.00    +0.358 C 
BRANCH  11  12
ATOM     12  O   UNL     1      34.865 -15.696 -22.673  0.00  0.00    -0.442 OA
ATOM     13  C   UNL     1      34.342 -14.375 -22.506  0.00  0.00    +0.256 C 
ENDBRANCH  11  12
ENDBRANCH   8  11
ENDBRANCH   7   8
ENDBRANCH   1   7
BRANCH   2  14
ATOM     14  O   UNL     1      34.637 -23.107 -18.431  0.00  0.00    -0.453 OA
BRANCH  14  17
ATOM     15 CL   UNL     1      36.316 -22.963 -15.942  0.00  0.00    -0.079 Cl
ATOM     16 CL   UNL     1      31.565 -23.323 -13.428  0.00  0.00    -0.082 Cl
ATOM     17  C   UNL     1      33.933 -23.157 -17.240  0.00  0.00    +0.156 C 
ATOM     18  C   UNL     1      34.599 -23.099 -16.028  0.00  0.00    +0.093 C 
ATOM     19  C   UNL     1      32.554 -23.264 -17.303  0.00  0.00    +0.039 C 
ATOM     20  C   UNL     1      33.863 -23.150 -14.843  0.00  0.00    +0.026 C 
ATOM     21  C   UNL     1      31.818 -23.315 -16.119  0.00  0.00    +0.015 C 
ATOM     22  C   UNL     1      32.473 -23.259 -14.889  0.00  0.00    +0.059 C 
ENDBRANCH  14  17
ENDBRANCH   2  14
TORSDOF 6
ENDMDL
MODEL 3
REMARK VINA RESULT:      -9.5      3.722      7.823
REMARK  Name = 39985
REMARK  6 active torsions:
REMARK  status: ('A' for Active; 'I' for Inactive)
REMARK    1  A    between atoms: C_1  and  O_7
REMARK    2  A    between atoms: C_2  and  O_14
REMARK    3  A    between atoms: O_7  and  C_8
REMARK    4  A    between atoms: C_8  and  C_11
REMARK    5  A    between atoms: C_11  and  O_12
REMARK    6  A    between atoms: O_14  and  C_17
REMARK                            x       y       z     vdW  Elec       q    Type
REMARK                         _______ _______ _______ _____ _____    ______ ____
ROOT
ATOM      1  C   UNL     1      35.064 -21.621 -19.506  0.00  0.00    +0.139 C 
ATOM      2  C   UNL     1      35.790 -19.376 -20.975  0.00  0.00    +0.146 C 
ATOM      3  C   UNL     1      36.401 -21.245 -19.571  0.00  0.00    +0.040 C 
ATOM      4  C   UNL     1      34.087 -20.887 -20.167  0.00  0.00    +0.040 C 
ATOM      5  C   UNL     1      36.765 -20.119 -20.308  0.00  0.00    +0.041 C 
ATOM      6  C   UNL     1      34.451 -19.759 -20.905  0.00  0.00    +0.041 C 
ENDROOT
BRANCH   1   7
ATOM      7  O   UNL     1      34.706 -22.728 -18.779  0.00  0.00    -0.468 OA
BRANCH   7   8
ATOM      8  C   UNL     1      34.219 -22.505 -17.466  0.00  0.00    +0.263 C 
ATOM      9  C   UNL     1      32.860 -23.173 -17.347  0.00  0.00    +0.060 C 
BRANCH   8  11
ATOM     10  O   UNL     1      35.206 -24.246 -16.092  0.00  0.00    -0.246 OA
ATOM     11  C   UNL     1      35.209 -23.084 -16.476  0.00  0.00    +0.358 C 
BRANCH  11  12
ATOM     12  O   UNL     1      36.107 -22.124 -16.109  0.00  0.00    -0.442 OA
ATOM     13  C   UNL     1      37.484 -22.507 -16.181  0.00  0.00    +0.256 C 
ENDBRANCH  11  12
ENDBRANCH   8  11
ENDBRANCH   7   8
ENDBRANCH   1   7
BRANCH   2  14
ATOM     14  O   UNL     1      36.146 -18.278 -21.697  0.00  0.00    -0.453 OA
BRANCH  14  17
ATOM     15 CL   UNL     1      35.051 -17.762 -24.448  0.00  0.00    -0.079 Cl
ATOM     16 CL   UNL     1      32.277 -13.866 -21.969  0.00  0.00    -0.082 Cl
ATOM     17  C   UNL     1      35.232 -17.241 -21.784  0.00  0.00    +0.156 C 
ATOM     18  C   UNL     1      34.660 -16.910 -23.000  0.00  0.00    +0.093 C 
ATOM     19  C   UNL     1      34.913 -16.556 -20.623  0.00  0.00    +0.039 C 
ATOM     20  C   UNL     1      33.741 -15.862 -23.058  0.00  0.00    +0.026 C 
ATOM     21  C   UNL     1      33.995 -15.508 -20.681  0.00  0.00    +0.015 C 
ATOM     22  C   UNL     1      33.409 -15.160 -21.899  0.00  0.00    +0.059 C 
ENDBRANCH  14  17
ENDBRANCH   2  14
TORSDOF 6
ENDMDL
MODEL 4
REMARK VINA RESULT:      -9.4      3.448      8.133
REMARK  Name = 39985
REMARK  6 active torsions:
REMARK  status: ('A' for Active; 'I' for Inactive)
REMARK    1  A    between atoms: C_1  and  O_7
REMARK    2  A    between atoms: C_2  and  O_14
REMARK    3  A    between atoms: O_7  and  C_8
REMARK    4  A    between atoms: C_8  and  C_11
REMARK    5  A    between atoms: C_11  and  O_12
REMARK    6  A    between atoms: O_14  and  C_17
REMARK                            x       y       z     vdW  Elec       q    Type
REMARK                         _______ _______ _______ _____ _____    ______ ____
ROOT
ATOM      1  C   UNL     1      33.766 -21.696 -19.463  0.00  0.00    +0.139 C 
ATOM      2  C   UNL     1      35.272 -19.741 -20.740  0.00  0.00    +0.146 C 
ATOM      3  C   UNL     1      35.151 -21.813 -19.503  0.00  0.00    +0.040 C 
ATOM      4  C   UNL     1      33.127 -20.613 -20.054  0.00  0.00    +0.040 C 
ATOM      5  C   UNL     1      35.907 -20.832 -20.144  0.00  0.00    +0.041 C 
ATOM      6  C   UNL     1      33.883 -19.631 -20.695  0.00  0.00    +0.041 C 
ENDROOT
BRANCH   1   7
ATOM      7  O   UNL     1      33.023 -22.661 -18.832  0.00  0.00    -0.468 OA
BRANCH   7   8
ATOM      8  C   UNL     1      32.731 -22.452 -17.460  0.00  0.00    +0.263 C 
ATOM      9  C   UNL     1      31.238 -22.642 -17.260  0.00  0.00    +0.060 C 
BRANCH   8  11
ATOM     10  O   UNL     1      34.666 -23.810 -16.905  0.00  0.00    -0.246 OA
ATOM     11  C   UNL     1      33.530 -23.443 -16.637  0.00  0.00    +0.358 C 
BRANCH  11  12
ATOM     12  O   UNL     1      32.799 -23.834 -15.552  0.00  0.00    -0.442 OA
ATOM     13  C   UNL     1      33.532 -23.967 -14.330  0.00  0.00    +0.256 C 
ENDBRANCH  11  12
ENDBRANCH   8  11
ENDBRANCH   7   8
ENDBRANCH   1   7
BRANCH   2  14
ATOM     14  O   UNL     1      36.010 -18.784 -21.368  0.00  0.00    -0.453 OA
BRANCH  14  17
ATOM     15 CL   UNL     1      34.892 -16.102 -20.601  0.00  0.00    -0.079 Cl
ATOM     16 CL   UNL     1      33.479 -15.867 -25.794  0.00  0.00    -0.082 Cl
ATOM     17  C   UNL     1      35.408 -18.079 -22.396  0.00  0.00    +0.156 C 
ATOM     18  C   UNL     1      34.857 -16.832 -22.163  0.00  0.00    +0.093 C 
ATOM     19  C   UNL     1      35.380 -18.660 -23.653  0.00  0.00    +0.039 C 
ATOM     20  C   UNL     1      34.258 -16.143 -23.219  0.00  0.00    +0.026 C 
ATOM     21  C   UNL     1      34.780 -17.973 -24.708  0.00  0.00    +0.015 C 
ATOM     22  C   UNL     1      34.219 -16.714 -24.491  0.00  0.00    +0.059 C 
ENDBRANCH  14  17
ENDBRANCH   2  14
TORSDOF 6
ENDMDL
MODEL 5
REMARK VINA RESULT:      -9.3      5.609     10.108
REMARK  Name = 39985
REMARK  6 active torsions:
REMARK  status: ('A' for Active; 'I' for Inactive)
REMARK    1  A    between atoms: C_1  and  O_7
REMARK    2  A    between atoms: C_2  and  O_14
REMARK    3  A    between atoms: O_7  and  C_8
REMARK    4  A    between atoms: C_8  and  C_11
REMARK    5  A    between atoms: C_11  and  O_12
REMARK    6  A    between atoms: O_14  and  C_17
REMARK                            x       y       z     vdW  Elec       q    Type
REMARK                         _______ _______ _______ _____ _____    ______ ____
ROOT
ATOM      1  C   UNL     1      34.538 -16.391 -21.349  0.00  0.00    +0.139 C 
ATOM      2  C   UNL     1      32.990 -14.481 -22.645  0.00  0.00    +0.146 C 
ATOM      3  C   UNL     1      33.727 -15.543 -20.604  0.00  0.00    +0.040 C 
ATOM      4  C   UNL     1      34.584 -16.295 -22.734  0.00  0.00    +0.040 C 
ATOM      5  C   UNL     1      32.950 -14.585 -21.254  0.00  0.00    +0.041 C 
ATOM      6  C   UNL     1      33.806 -15.336 -23.385  0.00  0.00    +0.041 C 
ENDROOT
BRANCH   1   7
ATOM      7  O   UNL     1      35.300 -17.335 -20.709  0.00  0.00    -0.468 OA
BRANCH   7   8
ATOM      8  C   UNL     1      35.497 -18.567 -21.382  0.00  0.00    +0.263 C 
ATOM      9  C   UNL     1      36.907 -19.047 -21.086  0.00  0.00    +0.060 C 
BRANCH   8  11
ATOM     10  O   UNL     1      33.319 -19.639 -21.325  0.00  0.00    -0.246 OA
ATOM     11  C   UNL     1      34.461 -19.559 -20.892  0.00  0.00    +0.358 C 
BRANCH  11  12
ATOM     12  O   UNL     1      35.007 -20.355 -19.927  0.00  0.00    -0.442 OA
ATOM     13  C   UNL     1      34.211 -21.475 -19.528  0.00  0.00    +0.256 C 
ENDBRANCH  11  12
ENDBRANCH   8  11
ENDBRANCH   7   8
ENDBRANCH   1   7
BRANCH   2  14
ATOM     14  O   UNL     1      32.234 -13.544 -23.280  0.00  0.00    -0.453 OA
BRANCH  14  17
ATOM     15 CL   UNL     1      31.046 -11.431 -21.503  0.00  0.00    -0.079 Cl
ATOM     16 CL   UNL     1      34.577  -8.202 -23.977  0.00  0.00    -0.082 Cl
ATOM     17  C   UNL     1      32.772 -12.276 -23.428  0.00  0.00    +0.156 C 
ATOM     18  C   UNL     1      32.304 -11.222 -22.663  0.00  0.00    +0.093 C 
ATOM     19  C   UNL     1      33.784 -12.104 -24.357  0.00  0.00    +0.039 C 
ATOM     20  C   UNL     1      32.865  -9.956 -22.833  0.00  0.00    +0.026 C 
ATOM     21  C   UNL     1      34.345 -10.838 -24.527  0.00  0.00    +0.015 C 
ATOM     22  C   UNL     1      33.885  -9.763 -23.765  0.00  0.00    +0.059 C 
ENDBRANCH  14  17
ENDBRANCH   2  14
TORSDOF 6
ENDMDL
MODEL 6
REMARK VINA RESULT:      -9.2      2.791      4.977
REMARK  Name = 39985
REMARK  6 active torsions:
REMARK  status: ('A' for Active; 'I' for Inactive)
REMARK    1  A    between atoms: C_1  and  O_7
REMARK    2  A    between atoms: C_2  and  O_14
REMARK    3  A    between atoms: O_7  and  C_8
REMARK    4  A    between atoms: C_8  and  C_11
REMARK    5  A    between atoms: C_11  and  O_12
REMARK    6  A    between atoms: O_14  and  C_17
REMARK                            x       y       z     vdW  Elec       q    Type
REMARK                         _______ _______ _______ _____ _____    ______ ____
ROOT
ATOM      1  C   UNL     1      34.688 -15.366 -22.329  0.00  0.00    +0.139 C 
ATOM      2  C   UNL     1      35.271 -18.074 -22.107  0.00  0.00    +0.146 C 
ATOM      3  C   UNL     1      34.799 -15.944 -21.070  0.00  0.00    +0.040 C 
ATOM      4  C   UNL     1      34.864 -16.128 -23.478  0.00  0.00    +0.040 C 
ATOM      5  C   UNL     1      35.092 -17.303 -20.958  0.00  0.00    +0.041 C 
ATOM      6  C   UNL     1      35.157 -17.487 -23.367  0.00  0.00    +0.041 C 
ENDROOT
BRANCH   1   7
ATOM      7  O   UNL     1      34.401 -14.029 -22.438  0.00  0.00    -0.468 OA
BRANCH   7   8
ATOM      8  C   UNL     1      33.189 -13.683 -23.087  0.00  0.00    +0.263 C 
ATOM      9  C   UNL     1      32.177 -13.298 -22.023  0.00  0.00    +0.060 C 
BRANCH   8  11
ATOM     10  O   UNL     1      33.549 -11.360 -23.696  0.00  0.00    -0.246 OA
ATOM     11  C   UNL     1      33.458 -12.532 -24.037  0.00  0.00    +0.358 C 
BRANCH  11  12
ATOM     12  O   UNL     1      33.610 -13.009 -25.307  0.00  0.00    -0.442 OA
ATOM     13  C   UNL     1      32.818 -14.155 -25.634  0.00  0.00    +0.256 C 
ENDBRANCH  11  12
ENDBRANCH   8  11
ENDBRANCH   7   8
ENDBRANCH   1   7
BRANCH   2  14
ATOM     14  O   UNL     1      35.554 -19.402 -21.999  0.00  0.00    -0.453 OA
BRANCH  14  17
ATOM     15 CL   UNL     1      37.285 -21.071 -20.196  0.00  0.00    -0.079 Cl
ATOM     16 CL   UNL     1      32.590 -22.442 -17.938  0.00  0.00    -0.082 Cl
ATOM     17  C   UNL     1      34.875 -20.127 -21.034  0.00  0.00    +0.156 C 
ATOM     18  C   UNL     1      35.567 -20.933 -20.146  0.00  0.00    +0.093 C 
ATOM     19  C   UNL     1      33.496 -20.018 -20.989  0.00  0.00    +0.039 C 
ATOM     20  C   UNL     1      34.857 -21.652 -19.183  0.00  0.00    +0.026 C 
ATOM     21  C   UNL     1      32.786 -20.737 -20.027  0.00  0.00    +0.015 C 
ATOM     22  C   UNL     1      33.467 -21.554 -19.124  0.00  0.00    +0.059 C 
ENDBRANCH  14  17
ENDBRANCH   2  14
TORSDOF 6
ENDMDL
MODEL 7
REMARK VINA RESULT:      -9.1      6.053     10.374
REMARK  Name = 39985
REMARK  6 active torsions:
REMARK  status: ('A' for Active; 'I' for Inactive)
REMARK    1  A    between atoms: C_1  and  O_7
REMARK    2  A    between atoms: C_2  and  O_14
REMARK    3  A    between atoms: O_7  and  C_8
REMARK    4  A    between atoms: C_8  and  C_11
REMARK    5  A    between atoms: C_11  and  O_12
REMARK    6  A    between atoms: O_14  and  C_17
REMARK                            x       y       z     vdW  Elec       q    Type
REMARK                         _______ _______ _______ _____ _____    ______ ____
ROOT
ATOM      1  C   UNL     1      34.231 -14.990 -22.327  0.00  0.00    +0.139 C 
ATOM      2  C   UNL     1      32.221 -13.138 -21.823  0.00  0.00    +0.146 C 
ATOM      3  C   UNL     1      33.749 -14.198 -23.364  0.00  0.00    +0.040 C 
ATOM      4  C   UNL     1      33.718 -14.865 -21.042  0.00  0.00    +0.040 C 
ATOM      5  C   UNL     1      32.741 -13.269 -23.111  0.00  0.00    +0.041 C 
ATOM      6  C   UNL     1      32.709 -13.935 -20.789  0.00  0.00    +0.041 C 
ENDROOT
BRANCH   1   7
ATOM      7  O   UNL     1      35.223 -15.903 -22.576  0.00  0.00    -0.468 OA
BRANCH   7   8
ATOM      8  C   UNL     1      34.828 -17.255 -22.732  0.00  0.00    +0.263 C 
ATOM      9  C   UNL     1      34.965 -17.621 -24.200  0.00  0.00    +0.060 C 
BRANCH   8  11
ATOM     10  O   UNL     1      36.888 -18.374 -22.099  0.00  0.00    -0.246 OA
ATOM     11  C   UNL     1      35.713 -18.124 -21.861  0.00  0.00    +0.358 C 
BRANCH  11  12
ATOM     12  O   UNL     1      35.010 -18.552 -20.773  0.00  0.00    -0.442 OA
ATOM     13  C   UNL     1      33.879 -19.381 -21.056  0.00  0.00    +0.256 C 
ENDBRANCH  11  12
ENDBRANCH   8  11
ENDBRANCH   7   8
ENDBRANCH   1   7
BRANCH   2  14
ATOM     14  O   UNL     1      31.235 -12.232 -21.577  0.00  0.00    -0.453 OA
BRANCH  14  17
ATOM     15 CL   UNL     1      31.424 -11.030 -18.829  0.00  0.00    -0.079 Cl
ATOM     16 CL   UNL     1      32.728  -6.551 -21.522  0.00  0.00    -0.082 Cl
ATOM     17  C   UNL     1      31.585 -10.893 -21.541  0.00  0.00    +0.156 C 
ATOM     18  C   UNL     1      31.703 -10.231 -20.331  0.00  0.00    +0.093 C 
ATOM     19  C   UNL     1      31.813 -10.247 -22.744  0.00  0.00    +0.039 C 
ATOM     20  C   UNL     1      32.059  -8.882 -20.325  0.00  0.00    +0.026 C 
ATOM     21  C   UNL     1      32.168  -8.899 -22.738  0.00  0.00    +0.015 C 
ATOM     22  C   UNL     1      32.291  -8.215 -21.528  0.00  0.00    +0.059 C 
ENDBRANCH  14  17
ENDBRANCH   2  14
TORSDOF 6
ENDMDL
MODEL 8
REMARK VINA RESULT:      -9.1      5.840      9.745
REMARK  Name = 39985
REMARK  6 active torsions:
REMARK  status: ('A' for Active; 'I' for Inactive)
REMARK    1  A    between atoms: C_1  and  O_7
REMARK    2  A    between atoms: C_2  and  O_14
REMARK    3  A    between atoms: O_7  and  C_8
REMARK    4  A    between atoms: C_8  and  C_11
REMARK    5  A    between atoms: C_11  and  O_12
REMARK    6  A    between atoms: O_14  and  C_17
REMARK                            x       y       z     vdW  Elec       q    Type
REMARK                         _______ _______ _______ _____ _____    ______ ____
ROOT
ATOM      1  C   UNL     1      34.564 -16.323 -21.351  0.00  0.00    +0.139 C 
ATOM      2  C   UNL     1      32.946 -14.422 -22.573  0.00  0.00    +0.146 C 
ATOM      3  C   UNL     1      34.937 -15.790 -22.580  0.00  0.00    +0.040 C 
ATOM      4  C   UNL     1      33.392 -15.915 -20.727  0.00  0.00    +0.040 C 
ATOM      5  C   UNL     1      34.126 -14.836 -23.193  0.00  0.00    +0.041 C 
ATOM      6  C   UNL     1      32.579 -14.960 -21.340  0.00  0.00    +0.041 C 
ENDROOT
BRANCH   1   7
ATOM      7  O   UNL     1      35.364 -17.260 -20.748  0.00  0.00    -0.468 OA
BRANCH   7   8
ATOM      8  C   UNL     1      35.827 -18.326 -21.560  0.00  0.00    +0.263 C 
ATOM      9  C   UNL     1      36.893 -19.081 -20.784  0.00  0.00    +0.060 C 
BRANCH   8  11
ATOM     10  O   UNL     1      34.225 -19.402 -23.034  0.00  0.00    -0.246 OA
ATOM     11  C   UNL     1      34.653 -19.223 -21.902  0.00  0.00    +0.358 C 
BRANCH  11  12
ATOM     12  O   UNL     1      34.177 -19.810 -20.765  0.00  0.00    -0.442 OA
ATOM     13  C   UNL     1      32.753 -19.921 -20.678  0.00  0.00    +0.256 C 
ENDBRANCH  11  12
ENDBRANCH   8  11
ENDBRANCH   7   8
ENDBRANCH   1   7
BRANCH   2  14
ATOM     14  O   UNL     1      32.152 -13.492 -23.172  0.00  0.00    -0.453 OA
BRANCH  14  17
ATOM     15 CL   UNL     1      33.748 -11.496 -24.755  0.00  0.00    -0.079 Cl
ATOM     16 CL   UNL     1      32.152  -8.067 -20.918  0.00  0.00    -0.082 Cl
ATOM     17  C   UNL     1      32.166 -12.206 -22.658  0.00  0.00    +0.156 C 
ATOM     18  C   UNL     1      32.868 -11.201 -23.301  0.00  0.00    +0.093 C 
ATOM     19  C   UNL     1      31.460 -11.965 -21.492  0.00  0.00    +0.039 C 
ATOM     20  C   UNL     1      32.863  -9.915 -22.761  0.00  0.00    +0.026 C 
ATOM     21  C   UNL     1      31.455 -10.679 -20.952  0.00  0.00    +0.015 C 
ATOM     22  C   UNL     1      32.157  -9.653 -21.586  0.00  0.00    +0.059 C 
ENDBRANCH  14  17
ENDBRANCH   2  14
TORSDOF 6
ENDMDL
MODEL 9
REMARK VINA RESULT:      -9.0      1.397      2.463
REMARK  Name = 39985
REMARK  6 active torsions:
REMARK  status: ('A' for Active; 'I' for Inactive)
REMARK    1  A    between atoms: C_1  and  O_7
REMARK    2  A    between atoms: C_2  and  O_14
REMARK    3  A    between atoms: O_7  and  C_8
REMARK    4  A    between atoms: C_8  and  C_11
REMARK    5  A    between atoms: C_11  and  O_12
REMARK    6  A    between atoms: O_14  and  C_17
REMARK                            x       y       z     vdW  Elec       q    Type
REMARK                         _______ _______ _______ _____ _____    ______ ____
ROOT
ATOM      1  C   UNL     1      34.805 -19.651 -20.666  0.00  0.00    +0.139 C 
ATOM      2  C   UNL     1      33.540 -21.760 -19.371  0.00  0.00    +0.146 C 
ATOM      3  C   UNL     1      33.418 -19.665 -20.569  0.00  0.00    +0.040 C 
ATOM      4  C   UNL     1      35.565 -20.680 -20.122  0.00  0.00    +0.040 C 
ATOM      5  C   UNL     1      32.783 -20.723 -19.919  0.00  0.00    +0.041 C 
ATOM      6  C   UNL     1      34.930 -21.738 -19.472  0.00  0.00    +0.041 C 
ENDROOT
BRANCH   1   7
ATOM      7  O   UNL     1      35.429 -18.610 -21.304  0.00  0.00    -0.468 OA
BRANCH   7   8
ATOM      8  C   UNL     1      34.613 -17.522 -21.706  0.00  0.00    +0.263 C 
ATOM      9  C   UNL     1      34.774 -16.408 -20.686  0.00  0.00    +0.060 C 
BRANCH   8  11
ATOM     10  O   UNL     1      35.396 -15.935 -23.368  0.00  0.00    -0.246 OA
ATOM     11  C   UNL     1      35.048 -17.074 -23.087  0.00  0.00    +0.358 C 
BRANCH  11  12
ATOM     12  O   UNL     1      35.016 -18.134 -23.946  0.00  0.00    -0.442 OA
ATOM     13  C   UNL     1      34.416 -17.878 -25.220  0.00  0.00    +0.256 C 
ENDBRANCH  11  12
ENDBRANCH   8  11
ENDBRANCH   7   8
ENDBRANCH   1   7
BRANCH   2  14
ATOM     14  O   UNL     1      32.920 -22.794 -18.738  0.00  0.00    -0.453 OA
BRANCH  14  17
ATOM     15 CL   UNL     1      30.610 -22.810 -16.815  0.00  0.00    -0.079 Cl
ATOM     16 CL   UNL     1      34.432 -23.816 -13.155  0.00  0.00    -0.082 Cl
ATOM     17  C   UNL     1      33.254 -23.033 -17.416  0.00  0.00    +0.156 C 
ATOM     18  C   UNL     1      32.274 -23.063 -16.439  0.00  0.00    +0.093 C 
ATOM     19  C   UNL     1      34.588 -23.239 -17.109  0.00  0.00    +0.039 C 
ATOM     20  C   UNL     1      32.639 -23.308 -15.115  0.00  0.00    +0.026 C 
ATOM     21  C   UNL     1      34.954 -23.482 -15.786  0.00  0.00    +0.015 C 
ATOM     22  C   UNL     1      33.980 -23.516 -14.788  0.00  0.00    +0.059 C 
ENDBRANCH  14  17
ENDBRANCH   2  14
TORSDOF 6
ENDMDL
