MODEL 1
REMARK VINA RESULT:      -8.1      0.000      0.000
REMARK  Name = 65781
REMARK  4 active torsions:
REMARK  status: ('A' for Active; 'I' for Inactive)
REMARK    1  A    between atoms: C_3  and  C_25
REMARK    2  A    between atoms: C_15  and  S_17
REMARK    3  A    between atoms: C_16  and  C_21
REMARK    4  A    between atoms: C_25  and  O_26
REMARK                            x       y       z     vdW  Elec       q    Type
REMARK                         _______ _______ _______ _____ _____    ______ ____
ROOT
ATOM      1  C   UNL     1      35.305 -20.729 -19.691  0.00  0.00    +0.014 C 
ATOM      2  C   UNL     1      34.177 -21.750 -19.293  0.00  0.00    +0.019 C 
ATOM      3  C   UNL     1      35.075 -19.909 -21.000  0.00  0.00    +0.090 C 
ATOM      4  C   UNL     1      32.817 -20.999 -19.344  0.00  0.00    +0.004 C 
ATOM      5  C   UNL     1      36.682 -21.407 -19.613  0.00  0.00    +0.006 C 
ATOM      6  C   UNL     1      33.662 -19.289 -21.000  0.00  0.00    +0.011 C 
ATOM      7  C   UNL     1      32.561 -20.288 -20.671  0.00  0.00    +0.001 C 
ATOM      8  C   UNL     1      34.486 -22.302 -17.882  0.00  0.00    -0.025 C 
ATOM      9  C   UNL     1      36.988 -21.814 -18.175  0.00  0.00    +0.026 C 
ATOM     10  C   UNL     1      34.090 -23.003 -20.201  0.00  0.00    +0.004 C 
ATOM     11  C   UNL     1      35.814 -22.363 -17.404  0.00  0.00    -0.026 C 
ATOM     12  C   UNL     1      35.340 -20.658 -22.312  0.00  0.00    +0.011 C 
ATOM     13  C   UNL     1      33.463 -22.828 -17.068  0.00  0.00    +0.014 C 
ATOM     14  C   UNL     1      36.075 -22.906 -16.132  0.00  0.00    -0.008 C 
ATOM     15  C   UNL     1      33.738 -23.369 -15.811  0.00  0.00    +0.108 C 
ATOM     16  C   UNL     1      35.044 -23.405 -15.341  0.00  0.00    -0.005 C 
ENDROOT
BRANCH  15  17
ATOM     17  S   UNL     1      32.414 -23.999 -14.856  0.00  0.00    +0.042 S 
ATOM     18  O   UNL     1      31.121 -23.977 -15.855  0.00  0.00    -0.065 OA
ATOM     19  O   UNL     1      32.702 -25.394 -14.562  0.00  0.00    -0.065 OA
ATOM     20  O   UNL     1      32.177 -23.046 -13.785  0.00  0.00    -0.065 OA
ENDBRANCH  15  17
BRANCH  16  21
ATOM     21  C   UNL     1      35.376 -23.973 -14.001  0.00  0.00    +0.024 C 
ATOM     22  C   UNL     1      36.311 -23.057 -13.189  0.00  0.00    +0.005 C 
ATOM     23  C   UNL     1      35.982 -25.386 -14.095  0.00  0.00    +0.005 C 
ENDBRANCH  16  21
BRANCH   3  25
ATOM     24  O   UNL     1      37.208 -18.788 -21.338  0.00  0.00    -0.250 OA
ATOM     25  C   UNL     1      36.042 -18.741 -20.974  0.00  0.00    +0.313 C 
BRANCH  25  26
ATOM     26  O   UNL     1      35.439 -17.630 -20.487  0.00  0.00    -0.480 OA
ATOM     27  H   UNL     1      34.620 -17.701 -20.038  0.00  0.00    +0.295 HD
ENDBRANCH  25  26
ENDBRANCH   3  25
TORSDOF 4
ENDMDL
MODEL 2
REMARK VINA RESULT:      -7.9      8.482     11.846
REMARK  Name = 65781
REMARK  4 active torsions:
REMARK  status: ('A' for Active; 'I' for Inactive)
REMARK    1  A    between atoms: C_3  and  C_25
REMARK    2  A    between atoms: C_15  and  S_17
REMARK    3  A    between atoms: C_16  and  C_21
REMARK    4  A    between atoms: C_25  and  O_26
REMARK                            x       y       z     vdW  Elec       q    Type
REMARK                         _______ _______ _______ _____ _____    ______ ____
ROOT
ATOM      1  C   UNL     1      32.868  -9.588 -22.875  0.00  0.00    +0.014 C 
ATOM      2  C   UNL     1      32.091 -10.671 -22.041  0.00  0.00    +0.019 C 
ATOM      3  C   UNL     1      32.619  -8.096 -22.489  0.00  0.00    +0.090 C 
ATOM      4  C   UNL     1      32.309 -10.358 -20.535  0.00  0.00    +0.004 C 
ATOM      5  C   UNL     1      32.725  -9.876 -24.379  0.00  0.00    +0.006 C 
ATOM      6  C   UNL     1      32.758  -7.909 -20.963  0.00  0.00    +0.011 C 
ATOM      7  C   UNL     1      31.961  -8.921 -20.152  0.00  0.00    +0.001 C 
ATOM      8  C   UNL     1      32.623 -12.070 -22.430  0.00  0.00    -0.025 C 
ATOM      9  C   UNL     1      33.382 -11.209 -24.724  0.00  0.00    +0.026 C 
ATOM     10  C   UNL     1      30.568 -10.732 -22.323  0.00  0.00    +0.004 C 
ATOM     11  C   UNL     1      33.180 -12.304 -23.707  0.00  0.00    -0.026 C 
ATOM     12  C   UNL     1      31.303  -7.487 -22.993  0.00  0.00    +0.011 C 
ATOM     13  C   UNL     1      32.499 -13.164 -21.550  0.00  0.00    +0.014 C 
ATOM     14  C   UNL     1      33.622 -13.594 -24.052  0.00  0.00    -0.008 C 
ATOM     15  C   UNL     1      32.937 -14.441 -21.909  0.00  0.00    +0.108 C 
ATOM     16  C   UNL     1      33.501 -14.655 -23.159  0.00  0.00    -0.005 C 
ENDROOT
BRANCH  15  17
ATOM     17  S   UNL     1      32.752 -15.749 -20.761  0.00  0.00    +0.042 S 
ATOM     18  O   UNL     1      32.266 -15.033 -19.375  0.00  0.00    -0.065 OA
ATOM     19  O   UNL     1      31.655 -16.588 -21.216  0.00  0.00    -0.065 OA
ATOM     20  O   UNL     1      34.076 -16.306 -20.544  0.00  0.00    -0.065 OA
ENDBRANCH  15  17
BRANCH  16  21
ATOM     21  C   UNL     1      33.983 -16.005 -23.576  0.00  0.00    +0.024 C 
ATOM     22  C   UNL     1      35.442 -16.265 -23.155  0.00  0.00    +0.005 C 
ATOM     23  C   UNL     1      33.826 -16.243 -25.090  0.00  0.00    +0.005 C 
ENDBRANCH  16  21
BRANCH   3  25
ATOM     24  O   UNL     1      34.927  -7.473 -22.941  0.00  0.00    -0.250 OA
ATOM     25  C   UNL     1      33.733  -7.278 -23.112  0.00  0.00    +0.313 C 
BRANCH  25  26
ATOM     26  O   UNL     1      33.225  -6.290 -23.888  0.00  0.00    -0.480 OA
ATOM     27  H   UNL     1      32.443  -6.438 -24.382  0.00  0.00    +0.295 HD
ENDBRANCH  25  26
ENDBRANCH   3  25
TORSDOF 4
ENDMDL
MODEL 3
REMARK VINA RESULT:      -7.1      2.187      2.907
REMARK  Name = 65781
REMARK  4 active torsions:
REMARK  status: ('A' for Active; 'I' for Inactive)
REMARK    1  A    between atoms: C_3  and  C_25
REMARK    2  A    between atoms: C_15  and  S_17
REMARK    3  A    between atoms: C_16  and  C_21
REMARK    4  A    between atoms: C_25  and  O_26
REMARK                            x       y       z     vdW  Elec       q    Type
REMARK                         _______ _______ _______ _____ _____    ______ ____
ROOT
ATOM      1  C   UNL     1      34.997 -21.627 -18.504  0.00  0.00    +0.014 C 
ATOM      2  C   UNL     1      33.561 -22.195 -18.799  0.00  0.00    +0.019 C 
ATOM      3  C   UNL     1      35.760 -20.992 -19.709  0.00  0.00    +0.090 C 
ATOM      4  C   UNL     1      32.761 -21.095 -19.551  0.00  0.00    +0.004 C 
ATOM      5  C   UNL     1      35.822 -22.660 -17.718  0.00  0.00    +0.006 C 
ATOM      6  C   UNL     1      34.848 -19.991 -20.450  0.00  0.00    +0.011 C 
ATOM      7  C   UNL     1      33.476 -20.557 -20.789  0.00  0.00    +0.001 C 
ATOM      8  C   UNL     1      32.898 -22.585 -17.458  0.00  0.00    -0.025 C 
ATOM      9  C   UNL     1      35.191 -22.908 -16.351  0.00  0.00    +0.026 C 
ATOM     10  C   UNL     1      33.541 -23.493 -19.645  0.00  0.00    +0.004 C 
ATOM     11  C   UNL     1      33.683 -22.958 -16.344  0.00  0.00    -0.026 C 
ATOM     12  C   UNL     1      36.394 -21.982 -20.695  0.00  0.00    +0.011 C 
ATOM     13  C   UNL     1      31.496 -22.651 -17.333  0.00  0.00    +0.014 C 
ATOM     14  C   UNL     1      33.057 -23.347 -15.145  0.00  0.00    -0.008 C 
ATOM     15  C   UNL     1      30.889 -23.045 -16.139  0.00  0.00    +0.108 C 
ATOM     16  C   UNL     1      31.669 -23.390 -15.044  0.00  0.00    -0.005 C 
ENDROOT
BRANCH  15  17
ATOM     17  S   UNL     1      29.142 -23.099 -16.059  0.00  0.00    +0.042 S 
ATOM     18  O   UNL     1      28.636 -22.743 -17.572  0.00  0.00    -0.065 OA
ATOM     19  O   UNL     1      28.751 -24.475 -15.792  0.00  0.00    -0.065 OA
ATOM     20  O   UNL     1      28.728 -22.022 -15.177  0.00  0.00    -0.065 OA
ENDBRANCH  15  17
BRANCH  16  21
ATOM     21  C   UNL     1      31.055 -23.813 -13.750  0.00  0.00    +0.024 C 
ATOM     22  C   UNL     1      31.402 -22.855 -12.594  0.00  0.00    +0.005 C 
ATOM     23  C   UNL     1      31.432 -25.255 -13.364  0.00  0.00    +0.005 C 
ENDBRANCH  16  21
BRANCH   3  25
ATOM     24  O   UNL     1      37.326 -20.262 -17.995  0.00  0.00    -0.250 OA
ATOM     25  C   UNL     1      36.900 -20.172 -19.138  0.00  0.00    +0.313 C 
BRANCH  25  26
ATOM     26  O   UNL     1      37.387 -19.315 -20.067  0.00  0.00    -0.480 OA
ATOM     27  H   UNL     1      37.208 -18.398 -19.999  0.00  0.00    +0.295 HD
ENDBRANCH  25  26
ENDBRANCH   3  25
TORSDOF 4
ENDMDL
MODEL 4
REMARK VINA RESULT:      -6.7     14.317     18.813
REMARK  Name = 65781
REMARK  4 active torsions:
REMARK  status: ('A' for Active; 'I' for Inactive)
REMARK    1  A    between atoms: C_3  and  C_25
REMARK    2  A    between atoms: C_15  and  S_17
REMARK    3  A    between atoms: C_16  and  C_21
REMARK    4  A    between atoms: C_25  and  O_26
REMARK                            x       y       z     vdW  Elec       q    Type
REMARK                         _______ _______ _______ _____ _____    ______ ____
ROOT
ATOM      1  C   UNL     1      33.017  -7.909 -23.791  0.00  0.00    +0.014 C 
ATOM      2  C   UNL     1      32.337  -6.517 -24.057  0.00  0.00    +0.019 C 
ATOM      3  C   UNL     1      32.288  -8.864 -22.793  0.00  0.00    +0.090 C 
ATOM      4  C   UNL     1      30.843  -6.775 -24.399  0.00  0.00    +0.004 C 
ATOM      5  C   UNL     1      34.513  -7.719 -23.493  0.00  0.00    +0.006 C 
ATOM      6  C   UNL     1      30.792  -8.973 -23.155  0.00  0.00    +0.011 C 
ATOM      7  C   UNL     1      30.116  -7.624 -23.358  0.00  0.00    +0.001 C 
ATOM      8  C   UNL     1      33.087  -5.814 -25.213  0.00  0.00    -0.025 C 
ATOM      9  C   UNL     1      35.224  -7.143 -24.714  0.00  0.00    +0.026 C 
ATOM     10  C   UNL     1      32.414  -5.523 -22.871  0.00  0.00    +0.004 C 
ATOM     11  C   UNL     1      34.448  -6.092 -25.468  0.00  0.00    -0.026 C 
ATOM     12  C   UNL     1      32.464  -8.534 -21.305  0.00  0.00    +0.011 C 
ATOM     13  C   UNL     1      32.455  -4.825 -25.994  0.00  0.00    +0.014 C 
ATOM     14  C   UNL     1      35.120  -5.412 -26.500  0.00  0.00    -0.008 C 
ATOM     15  C   UNL     1      33.136  -4.154 -27.011  0.00  0.00    +0.108 C 
ATOM     16  C   UNL     1      34.468  -4.450 -27.266  0.00  0.00    -0.005 C 
ENDROOT
BRANCH  15  17
ATOM     17  S   UNL     1      32.283  -2.941 -27.939  0.00  0.00    +0.042 S 
ATOM     18  O   UNL     1      31.035  -2.478 -26.990  0.00  0.00    -0.065 OA
ATOM     19  O   UNL     1      33.161  -1.790 -28.081  0.00  0.00    -0.065 OA
ATOM     20  O   UNL     1      31.739  -3.612 -29.107  0.00  0.00    -0.065 OA
ENDBRANCH  15  17
BRANCH  16  21
ATOM     21  C   UNL     1      35.229  -3.754 -28.347  0.00  0.00    +0.024 C 
ATOM     22  C   UNL     1      35.162  -4.507 -29.690  0.00  0.00    +0.005 C 
ATOM     23  C   UNL     1      36.698  -3.500 -27.962  0.00  0.00    +0.005 C 
ENDBRANCH  16  21
BRANCH   3  25
ATOM     24  O   UNL     1      33.749 -10.535 -23.790  0.00  0.00    -0.250 OA
ATOM     25  C   UNL     1      32.867 -10.251 -22.993  0.00  0.00    +0.313 C 
BRANCH  25  26
ATOM     26  O   UNL     1      32.271 -11.143 -22.166  0.00  0.00    -0.480 OA
ATOM     27  H   UNL     1      32.640 -11.997 -22.054  0.00  0.00    +0.295 HD
ENDBRANCH  25  26
ENDBRANCH   3  25
TORSDOF 4
ENDMDL
MODEL 5
REMARK VINA RESULT:      -6.4      3.903      6.888
REMARK  Name = 65781
REMARK  4 active torsions:
REMARK  status: ('A' for Active; 'I' for Inactive)
REMARK    1  A    between atoms: C_3  and  C_25
REMARK    2  A    between atoms: C_15  and  S_17
REMARK    3  A    between atoms: C_16  and  C_21
REMARK    4  A    between atoms: C_25  and  O_26
REMARK                            x       y       z     vdW  Elec       q    Type
REMARK                         _______ _______ _______ _____ _____    ______ ____
ROOT
ATOM      1  C   UNL     1      37.615 -24.349 -14.337  0.00  0.00    +0.014 C 
ATOM      2  C   UNL     1      36.329 -24.294 -13.433  0.00  0.00    +0.019 C 
ATOM      3  C   UNL     1      38.934 -24.822 -13.648  0.00  0.00    +0.090 C 
ATOM      4  C   UNL     1      36.209 -25.657 -12.695  0.00  0.00    +0.004 C 
ATOM      5  C   UNL     1      37.760 -23.040 -15.129  0.00  0.00    +0.006 C 
ATOM      6  C   UNL     1      38.686 -26.125 -12.858  0.00  0.00    +0.011 C 
ATOM      7  C   UNL     1      37.474 -26.056 -11.939  0.00  0.00    +0.001 C 
ATOM      8  C   UNL     1      35.105 -24.008 -14.334  0.00  0.00    -0.025 C 
ATOM      9  C   UNL     1      36.589 -22.875 -16.094  0.00  0.00    +0.026 C 
ATOM     10  C   UNL     1      36.326 -23.155 -12.383  0.00  0.00    +0.004 C 
ATOM     11  C   UNL     1      35.249 -23.303 -15.549  0.00  0.00    -0.026 C 
ATOM     12  C   UNL     1      39.639 -23.780 -12.770  0.00  0.00    +0.011 C 
ATOM     13  C   UNL     1      33.805 -24.377 -13.931  0.00  0.00    +0.014 C 
ATOM     14  C   UNL     1      34.114 -23.020 -16.333  0.00  0.00    -0.008 C 
ATOM     15  C   UNL     1      32.689 -24.084 -14.716  0.00  0.00    +0.108 C 
ATOM     16  C   UNL     1      32.844 -23.408 -15.919  0.00  0.00    -0.005 C 
ENDROOT
BRANCH  15  17
ATOM     17  S   UNL     1      31.108 -24.576 -14.150  0.00  0.00    +0.042 S 
ATOM     18  O   UNL     1      31.396 -25.504 -12.836  0.00  0.00    -0.065 OA
ATOM     19  O   UNL     1      30.410 -23.387 -13.688  0.00  0.00    -0.065 OA
ATOM     20  O   UNL     1      30.536 -25.420 -15.186  0.00  0.00    -0.065 OA
ENDBRANCH  15  17
BRANCH  16  21
ATOM     21  C   UNL     1      31.673 -23.080 -16.786  0.00  0.00    +0.024 C 
ATOM     22  C   UNL     1      32.084 -22.334 -18.070  0.00  0.00    +0.005 C 
ATOM     23  C   UNL     1      30.593 -22.277 -16.037  0.00  0.00    +0.005 C 
ENDBRANCH  16  21
BRANCH   3  25
ATOM     24  O   UNL     1      41.057 -24.764 -14.835  0.00  0.00    -0.250 OA
ATOM     25  C   UNL     1      39.912 -25.183 -14.749  0.00  0.00    +0.313 C 
BRANCH  25  26
ATOM     26  O   UNL     1      39.343 -26.035 -15.636  0.00  0.00    -0.480 OA
ATOM     27  H   UNL     1      39.483 -25.916 -16.555  0.00  0.00    +0.295 HD
ENDBRANCH  25  26
ENDBRANCH   3  25
TORSDOF 4
ENDMDL
MODEL 6
REMARK VINA RESULT:      -5.3      3.833      7.444
REMARK  Name = 65781
REMARK  4 active torsions:
REMARK  status: ('A' for Active; 'I' for Inactive)
REMARK    1  A    between atoms: C_3  and  C_25
REMARK    2  A    between atoms: C_15  and  S_17
REMARK    3  A    between atoms: C_16  and  C_21
REMARK    4  A    between atoms: C_25  and  O_26
REMARK                            x       y       z     vdW  Elec       q    Type
REMARK                         _______ _______ _______ _____ _____    ______ ____
ROOT
ATOM      1  C   UNL     1      35.799 -24.032 -12.816  0.00  0.00    +0.014 C 
ATOM      2  C   UNL     1      35.950 -24.212 -14.371  0.00  0.00    +0.019 C 
ATOM      3  C   UNL     1      37.104 -24.156 -11.968  0.00  0.00    +0.090 C 
ATOM      4  C   UNL     1      37.109 -23.292 -14.845  0.00  0.00    +0.004 C 
ATOM      5  C   UNL     1      34.632 -24.887 -12.296  0.00  0.00    +0.006 C 
ATOM      6  C   UNL     1      38.222 -23.286 -12.578  0.00  0.00    +0.011 C 
ATOM      7  C   UNL     1      38.411 -23.500 -14.073  0.00  0.00    +0.001 C 
ATOM      8  C   UNL     1      34.606 -23.851 -15.043  0.00  0.00    -0.025 C 
ATOM      9  C   UNL     1      33.316 -24.402 -12.894  0.00  0.00    +0.026 C 
ATOM     10  C   UNL     1      36.246 -25.663 -14.827  0.00  0.00    +0.004 C 
ATOM     11  C   UNL     1      33.385 -23.993 -14.345  0.00  0.00    -0.026 C 
ATOM     12  C   UNL     1      37.603 -25.586 -11.717  0.00  0.00    +0.011 C 
ATOM     13  C   UNL     1      34.554 -23.443 -16.391  0.00  0.00    +0.014 C 
ATOM     14  C   UNL     1      32.171 -23.695 -14.990  0.00  0.00    -0.008 C 
ATOM     15  C   UNL     1      33.341 -23.157 -17.020  0.00  0.00    +0.108 C 
ATOM     16  C   UNL     1      32.149 -23.280 -16.318  0.00  0.00    -0.005 C 
ENDROOT
BRANCH  15  17
ATOM     17  S   UNL     1      33.358 -22.653 -18.696  0.00  0.00    +0.042 S 
ATOM     18  O   UNL     1      34.679 -21.702 -18.840  0.00  0.00    -0.065 OA
ATOM     19  O   UNL     1      33.591 -23.834 -19.513  0.00  0.00    -0.065 OA
ATOM     20  O   UNL     1      32.179 -21.828 -18.898  0.00  0.00    -0.065 OA
ENDBRANCH  15  17
BRANCH  16  21
ATOM     21  C   UNL     1      30.833 -22.980 -16.957  0.00  0.00    +0.024 C 
ATOM     22  C   UNL     1      30.023 -21.933 -16.169  0.00  0.00    +0.005 C 
ATOM     23  C   UNL     1      29.982 -24.246 -17.172  0.00  0.00    +0.005 C 
ENDBRANCH  16  21
BRANCH   3  25
ATOM     24  O   UNL     1      36.345 -24.178  -9.655  0.00  0.00    -0.250 OA
ATOM     25  C   UNL     1      36.811 -23.562 -10.603  0.00  0.00    +0.313 C 
BRANCH  25  26
ATOM     26  O   UNL     1      37.134 -22.247 -10.574  0.00  0.00    -0.480 OA
ATOM     27  H   UNL     1      37.574 -21.856 -11.303  0.00  0.00    +0.295 HD
ENDBRANCH  25  26
ENDBRANCH   3  25
TORSDOF 4
ENDMDL
MODEL 7
REMARK VINA RESULT:      -5.2      2.979      6.995
REMARK  Name = 65781
REMARK  4 active torsions:
REMARK  status: ('A' for Active; 'I' for Inactive)
REMARK    1  A    between atoms: C_3  and  C_25
REMARK    2  A    between atoms: C_15  and  S_17
REMARK    3  A    between atoms: C_16  and  C_21
REMARK    4  A    between atoms: C_25  and  O_26
REMARK                            x       y       z     vdW  Elec       q    Type
REMARK                         _______ _______ _______ _____ _____    ______ ____
ROOT
ATOM      1  C   UNL     1      37.681 -24.159 -15.051  0.00  0.00    +0.014 C 
ATOM      2  C   UNL     1      36.171 -23.750 -15.204  0.00  0.00    +0.019 C 
ATOM      3  C   UNL     1      38.025 -25.145 -13.891  0.00  0.00    +0.090 C 
ATOM      4  C   UNL     1      35.323 -25.053 -15.204  0.00  0.00    +0.004 C 
ATOM      5  C   UNL     1      38.574 -22.908 -15.092  0.00  0.00    +0.006 C 
ATOM      6  C   UNL     1      37.064 -26.353 -13.915  0.00  0.00    +0.011 C 
ATOM      7  C   UNL     1      35.596 -25.959 -14.005  0.00  0.00    +0.001 C 
ATOM      8  C   UNL     1      36.006 -22.947 -16.515  0.00  0.00    -0.025 C 
ATOM      9  C   UNL     1      38.469 -22.230 -16.454  0.00  0.00    +0.026 C 
ATOM     10  C   UNL     1      35.641 -22.809 -14.092  0.00  0.00    +0.004 C 
ATOM     11  C   UNL     1      37.084 -22.208 -17.052  0.00  0.00    -0.026 C 
ATOM     12  C   UNL     1      38.087 -24.529 -12.487  0.00  0.00    +0.011 C 
ATOM     13  C   UNL     1      34.759 -22.870 -17.168  0.00  0.00    +0.014 C 
ATOM     14  C   UNL     1      36.900 -21.454 -18.226  0.00  0.00    -0.008 C 
ATOM     15  C   UNL     1      34.590 -22.112 -18.328  0.00  0.00    +0.108 C 
ATOM     16  C   UNL     1      35.662 -21.406 -18.859  0.00  0.00    -0.005 C 
ENDROOT
BRANCH  15  17
ATOM     17  S   UNL     1      33.012 -22.067 -19.084  0.00  0.00    +0.042 S 
ATOM     18  O   UNL     1      31.969 -22.540 -17.918  0.00  0.00    -0.065 OA
ATOM     19  O   UNL     1      32.706 -20.679 -19.393  0.00  0.00    -0.065 OA
ATOM     20  O   UNL     1      33.018 -23.079 -20.126  0.00  0.00    -0.065 OA
ENDBRANCH  15  17
BRANCH  16  21
ATOM     21  C   UNL     1      35.519 -20.588 -20.100  0.00  0.00    +0.024 C 
ATOM     22  C   UNL     1      35.599 -21.441 -21.380  0.00  0.00    +0.005 C 
ATOM     23  C   UNL     1      36.547 -19.443 -20.169  0.00  0.00    +0.005 C 
ENDBRANCH  16  21
BRANCH   3  25
ATOM     24  O   UNL     1      40.458 -25.136 -13.922  0.00  0.00    -0.250 OA
ATOM     25  C   UNL     1      39.406 -25.706 -14.171  0.00  0.00    +0.313 C 
BRANCH  25  26
ATOM     26  O   UNL     1      39.319 -26.931 -14.743  0.00  0.00    -0.480 OA
ATOM     27  H   UNL     1      38.656 -27.532 -14.464  0.00  0.00    +0.295 HD
ENDBRANCH  25  26
ENDBRANCH   3  25
TORSDOF 4
ENDMDL
