MODEL 1
REMARK VINA RESULT:      -9.4      0.000      0.000
REMARK  Name = 9549180
REMARK  2 active torsions:
REMARK  status: ('A' for Active; 'I' for Inactive)
REMARK    1  A    between atoms: C_3  and  O_20
REMARK    2  A    between atoms: C_19  and  O_22
REMARK                            x       y       z     vdW  Elec       q    Type
REMARK                         _______ _______ _______ _____ _____    ______ ____
ROOT
ATOM      1  C   UNL     1      36.005 -24.362 -14.164  0.00  0.00    +0.027 C 
ATOM      2  C   UNL     1      35.564 -23.207 -15.094  0.00  0.00    +0.024 C 
ATOM      3  C   UNL     1      37.495 -23.975 -13.940  0.00  0.00    +0.089 C 
ATOM      4  C   UNL     1      36.694 -23.141 -16.126  0.00  0.00    +0.007 C 
ATOM      5  C   UNL     1      37.966 -23.535 -15.348  0.00  0.00    +0.027 C 
ATOM      6  C   UNL     1      35.093 -24.286 -12.931  0.00  0.00    +0.007 C 
ATOM      7  C   UNL     1      34.125 -23.311 -15.525  0.00  0.00    -0.026 C 
ATOM      8  C   UNL     1      35.893 -25.763 -14.824  0.00  0.00    +0.003 C 
ATOM      9  C   UNL     1      33.612 -24.465 -13.306  0.00  0.00    +0.026 C 
ATOM     10  C   UNL     1      33.167 -23.865 -14.639  0.00  0.00    -0.026 C 
ATOM     11  C   UNL     1      38.380 -25.057 -13.330  0.00  0.00    +0.029 C 
ATOM     12  C   UNL     1      33.711 -22.785 -16.751  0.00  0.00    -0.005 C 
ATOM     13  C   UNL     1      31.791 -23.918 -15.020  0.00  0.00    -0.004 C 
ATOM     14  C   UNL     1      31.406 -23.389 -16.278  0.00  0.00    +0.003 C 
ATOM     15  C   UNL     1      32.370 -22.828 -17.124  0.00  0.00    -0.000 C 
ATOM     16  C   UNL     1      30.773 -24.478 -14.214  0.00  0.00    +0.003 C 
ATOM     17  C   UNL     1      30.060 -23.424 -16.679  0.00  0.00    +0.037 C 
ATOM     18  C   UNL     1      29.438 -24.508 -14.625  0.00  0.00    +0.037 C 
ATOM     19  C   UNL     1      29.082 -23.980 -15.858  0.00  0.00    +0.134 C 
ENDROOT
BRANCH   3  20
ATOM     20  O   UNL     1      37.569 -22.832 -13.074  0.00  0.00    -0.387 OA
ATOM     21  H   UNL     1      36.673 -22.555 -12.828  0.00  0.00    +0.210 HD
ENDBRANCH   3  20
BRANCH  19  22
ATOM     22  O   UNL     1      27.785 -24.007 -16.265  0.00  0.00    -0.506 OA
ATOM     23  H   UNL     1      27.504 -24.635 -16.900  0.00  0.00    +0.292 HD
ENDBRANCH  19  22
TORSDOF 2
ENDMDL
MODEL 2
REMARK VINA RESULT:      -9.0      5.626      7.883
REMARK  Name = 9549180
REMARK  2 active torsions:
REMARK  status: ('A' for Active; 'I' for Inactive)
REMARK    1  A    between atoms: C_3  and  O_20
REMARK    2  A    between atoms: C_19  and  O_22
REMARK                            x       y       z     vdW  Elec       q    Type
REMARK                         _______ _______ _______ _____ _____    ______ ____
ROOT
ATOM      1  C   UNL     1      34.435 -18.799 -21.818  0.00  0.00    +0.027 C 
ATOM      2  C   UNL     1      35.639 -19.728 -21.539  0.00  0.00    +0.024 C 
ATOM      3  C   UNL     1      34.919 -18.115 -23.129  0.00  0.00    +0.089 C 
ATOM      4  C   UNL     1      36.844 -18.805 -21.739  0.00  0.00    +0.007 C 
ATOM      5  C   UNL     1      36.414 -17.825 -22.849  0.00  0.00    +0.027 C 
ATOM      6  C   UNL     1      33.211 -19.717 -21.947  0.00  0.00    +0.007 C 
ATOM      7  C   UNL     1      35.483 -20.537 -20.279  0.00  0.00    -0.026 C 
ATOM      8  C   UNL     1      34.196 -17.746 -20.703  0.00  0.00    +0.003 C 
ATOM      9  C   UNL     1      32.958 -20.513 -20.654  0.00  0.00    +0.026 C 
ATOM     10  C   UNL     1      34.193 -20.968 -19.879  0.00  0.00    -0.026 C 
ATOM     11  C   UNL     1      34.145 -16.873 -23.558  0.00  0.00    +0.029 C 
ATOM     12  C   UNL     1      36.604 -20.941 -19.550  0.00  0.00    -0.005 C 
ATOM     13  C   UNL     1      34.042 -21.781 -18.714  0.00  0.00    -0.004 C 
ATOM     14  C   UNL     1      35.200 -22.162 -17.989  0.00  0.00    +0.003 C 
ATOM     15  C   UNL     1      36.463 -21.739 -18.418  0.00  0.00    -0.000 C 
ATOM     16  C   UNL     1      32.794 -22.233 -18.226  0.00  0.00    +0.003 C 
ATOM     17  C   UNL     1      35.084 -22.964 -16.840  0.00  0.00    +0.037 C 
ATOM     18  C   UNL     1      32.693 -23.028 -17.082  0.00  0.00    +0.037 C 
ATOM     19  C   UNL     1      33.839 -23.394 -16.390  0.00  0.00    +0.134 C 
ENDROOT
BRANCH   3  20
ATOM     20  O   UNL     1      34.848 -19.052 -24.214  0.00  0.00    -0.387 OA
ATOM     21  H   UNL     1      35.706 -19.491 -24.318  0.00  0.00    +0.210 HD
ENDBRANCH   3  20
BRANCH  19  22
ATOM     22  O   UNL     1      33.746 -24.168 -15.275  0.00  0.00    -0.506 OA
ATOM     23  H   UNL     1      34.420 -24.788 -15.077  0.00  0.00    +0.292 HD
ENDBRANCH  19  22
TORSDOF 2
ENDMDL
MODEL 3
REMARK VINA RESULT:      -8.9      9.747     11.476
REMARK  Name = 9549180
REMARK  2 active torsions:
REMARK  status: ('A' for Active; 'I' for Inactive)
REMARK    1  A    between atoms: C_3  and  O_20
REMARK    2  A    between atoms: C_19  and  O_22
REMARK                            x       y       z     vdW  Elec       q    Type
REMARK                         _______ _______ _______ _____ _____    ______ ____
ROOT
ATOM      1  C   UNL     1      34.690 -17.782 -21.626  0.00  0.00    +0.027 C 
ATOM      2  C   UNL     1      34.894 -16.943 -22.910  0.00  0.00    +0.024 C 
ATOM      3  C   UNL     1      35.670 -18.956 -21.912  0.00  0.00    +0.089 C 
ATOM      4  C   UNL     1      34.822 -17.990 -24.024  0.00  0.00    +0.007 C 
ATOM      5  C   UNL     1      35.426 -19.269 -23.409  0.00  0.00    +0.027 C 
ATOM      6  C   UNL     1      35.061 -16.862 -20.454  0.00  0.00    +0.007 C 
ATOM      7  C   UNL     1      34.037 -15.706 -22.950  0.00  0.00    -0.026 C 
ATOM      8  C   UNL     1      33.239 -18.305 -21.455  0.00  0.00    +0.003 C 
ATOM      9  C   UNL     1      34.160 -15.616 -20.402  0.00  0.00    +0.026 C 
ATOM     10  C   UNL     1      33.728 -15.028 -21.745  0.00  0.00    -0.026 C 
ATOM     11  C   UNL     1      35.518 -20.183 -21.018  0.00  0.00    +0.029 C 
ATOM     12  C   UNL     1      33.618 -15.172 -24.171  0.00  0.00    -0.005 C 
ATOM     13  C   UNL     1      32.960 -13.824 -21.780  0.00  0.00    -0.004 C 
ATOM     14  C   UNL     1      32.539 -13.316 -23.035  0.00  0.00    +0.003 C 
ATOM     15  C   UNL     1      32.875 -13.995 -24.212  0.00  0.00    -0.000 C 
ATOM     16  C   UNL     1      32.582 -13.098 -20.627  0.00  0.00    +0.003 C 
ATOM     17  C   UNL     1      31.784 -12.132 -23.103  0.00  0.00    +0.037 C 
ATOM     18  C   UNL     1      31.830 -11.923 -20.709  0.00  0.00    +0.037 C 
ATOM     19  C   UNL     1      31.432 -11.440 -21.947  0.00  0.00    +0.134 C 
ENDROOT
BRANCH   3  20
ATOM     20  O   UNL     1      37.023 -18.498 -21.772  0.00  0.00    -0.387 OA
ATOM     21  H   UNL     1      37.323 -18.116 -22.612  0.00  0.00    +0.210 HD
ENDBRANCH   3  20
BRANCH  19  22
ATOM     22  O   UNL     1      30.700 -10.297 -22.033  0.00  0.00    -0.506 OA
ATOM     23  H   UNL     1      30.566  -9.767 -21.272  0.00  0.00    +0.292 HD
ENDBRANCH  19  22
TORSDOF 2
ENDMDL
MODEL 4
REMARK VINA RESULT:      -8.8      1.321      6.425
REMARK  Name = 9549180
REMARK  2 active torsions:
REMARK  status: ('A' for Active; 'I' for Inactive)
REMARK    1  A    between atoms: C_3  and  O_20
REMARK    2  A    between atoms: C_19  and  O_22
REMARK                            x       y       z     vdW  Elec       q    Type
REMARK                         _______ _______ _______ _____ _____    ______ ____
ROOT
ATOM      1  C   UNL     1      31.028 -23.737 -14.842  0.00  0.00    +0.027 C 
ATOM      2  C   UNL     1      32.198 -23.722 -15.853  0.00  0.00    +0.024 C 
ATOM      3  C   UNL     1      29.829 -23.910 -15.819  0.00  0.00    +0.089 C 
ATOM      4  C   UNL     1      31.709 -22.758 -16.937  0.00  0.00    +0.007 C 
ATOM      5  C   UNL     1      30.180 -22.959 -16.989  0.00  0.00    +0.027 C 
ATOM      6  C   UNL     1      31.301 -24.911 -13.892  0.00  0.00    +0.007 C 
ATOM      7  C   UNL     1      33.542 -23.538 -15.200  0.00  0.00    -0.026 C 
ATOM      8  C   UNL     1      30.894 -22.417 -14.034  0.00  0.00    +0.003 C 
ATOM      9  C   UNL     1      32.631 -24.735 -13.137  0.00  0.00    +0.026 C 
ATOM     10  C   UNL     1      33.773 -24.078 -13.910  0.00  0.00    -0.026 C 
ATOM     11  C   UNL     1      28.447 -23.640 -15.231  0.00  0.00    +0.029 C 
ATOM     12  C   UNL     1      34.587 -22.920 -15.890  0.00  0.00    -0.005 C 
ATOM     13  C   UNL     1      35.062 -23.954 -13.307  0.00  0.00    -0.004 C 
ATOM     14  C   UNL     1      36.098 -23.308 -14.027  0.00  0.00    +0.003 C 
ATOM     15  C   UNL     1      35.848 -22.802 -15.308  0.00  0.00    -0.000 C 
ATOM     16  C   UNL     1      35.375 -24.436 -12.014  0.00  0.00    +0.003 C 
ATOM     17  C   UNL     1      37.377 -23.173 -13.461  0.00  0.00    +0.037 C 
ATOM     18  C   UNL     1      36.651 -24.294 -11.463  0.00  0.00    +0.037 C 
ATOM     19  C   UNL     1      37.652 -23.662 -12.187  0.00  0.00    +0.134 C 
ENDROOT
BRANCH   3  20
ATOM     20  O   UNL     1      29.815 -25.251 -16.329  0.00  0.00    -0.387 OA
ATOM     21  H   UNL     1      29.883 -25.878 -15.592  0.00  0.00    +0.210 HD
ENDBRANCH   3  20
BRANCH  19  22
ATOM     22  O   UNL     1      38.895 -23.521 -11.655  0.00  0.00    -0.506 OA
ATOM     23  H   UNL     1      39.652 -23.598 -12.202  0.00  0.00    +0.292 HD
ENDBRANCH  19  22
TORSDOF 2
ENDMDL
MODEL 5
REMARK VINA RESULT:      -8.8      2.694      3.746
REMARK  Name = 9549180
REMARK  2 active torsions:
REMARK  status: ('A' for Active; 'I' for Inactive)
REMARK    1  A    between atoms: C_3  and  O_20
REMARK    2  A    between atoms: C_19  and  O_22
REMARK                            x       y       z     vdW  Elec       q    Type
REMARK                         _______ _______ _______ _____ _____    ______ ____
ROOT
ATOM      1  C   UNL     1      36.558 -24.870 -14.123  0.00  0.00    +0.027 C 
ATOM      2  C   UNL     1      37.262 -23.608 -14.674  0.00  0.00    +0.024 C 
ATOM      3  C   UNL     1      37.469 -25.175 -12.899  0.00  0.00    +0.089 C 
ATOM      4  C   UNL     1      38.741 -24.003 -14.666  0.00  0.00    +0.007 C 
ATOM      5  C   UNL     1      38.897 -24.936 -13.448  0.00  0.00    +0.027 C 
ATOM      6  C   UNL     1      35.117 -24.449 -13.804  0.00  0.00    +0.007 C 
ATOM      7  C   UNL     1      36.611 -23.063 -15.918  0.00  0.00    -0.026 C 
ATOM      8  C   UNL     1      36.558 -26.062 -15.119  0.00  0.00    +0.003 C 
ATOM      9  C   UNL     1      34.378 -23.956 -15.061  0.00  0.00    +0.026 C 
ATOM     10  C   UNL     1      35.207 -23.178 -16.081  0.00  0.00    -0.026 C 
ATOM     11  C   UNL     1      37.300 -26.554 -12.270  0.00  0.00    +0.029 C 
ATOM     12  C   UNL     1      37.364 -22.369 -16.868  0.00  0.00    -0.005 C 
ATOM     13  C   UNL     1      34.576 -22.616 -17.232  0.00  0.00    -0.004 C 
ATOM     14  C   UNL     1      35.371 -21.930 -18.185  0.00  0.00    +0.003 C 
ATOM     15  C   UNL     1      36.752 -21.814 -17.989  0.00  0.00    -0.000 C 
ATOM     16  C   UNL     1      33.188 -22.707 -17.492  0.00  0.00    +0.003 C 
ATOM     17  C   UNL     1      34.778 -21.365 -19.327  0.00  0.00    +0.037 C 
ATOM     18  C   UNL     1      32.612 -22.141 -18.632  0.00  0.00    +0.037 C 
ATOM     19  C   UNL     1      33.407 -21.470 -19.549  0.00  0.00    +0.134 C 
ENDROOT
BRANCH   3  20
ATOM     20  O   UNL     1      37.226 -24.208 -11.867  0.00  0.00    -0.387 OA
ATOM     21  H   UNL     1      36.605 -24.576 -11.220  0.00  0.00    +0.210 HD
ENDBRANCH   3  20
BRANCH  19  22
ATOM     22  O   UNL     1      32.852 -20.918 -20.661  0.00  0.00    -0.506 OA
ATOM     23  H   UNL     1      32.978 -21.319 -21.498  0.00  0.00    +0.292 HD
ENDBRANCH  19  22
TORSDOF 2
ENDMDL
MODEL 6
REMARK VINA RESULT:      -8.7      4.019      5.864
REMARK  Name = 9549180
REMARK  2 active torsions:
REMARK  status: ('A' for Active; 'I' for Inactive)
REMARK    1  A    between atoms: C_3  and  O_20
REMARK    2  A    between atoms: C_19  and  O_22
REMARK                            x       y       z     vdW  Elec       q    Type
REMARK                         _______ _______ _______ _____ _____    ______ ____
ROOT
ATOM      1  C   UNL     1      36.057 -23.003 -15.877  0.00  0.00    +0.027 C 
ATOM      2  C   UNL     1      34.950 -23.461 -16.856  0.00  0.00    +0.024 C 
ATOM      3  C   UNL     1      36.048 -24.198 -14.880  0.00  0.00    +0.089 C 
ATOM      4  C   UNL     1      33.824 -23.910 -15.921  0.00  0.00    +0.007 C 
ATOM      5  C   UNL     1      34.541 -24.488 -14.684  0.00  0.00    +0.027 C 
ATOM      6  C   UNL     1      37.328 -22.835 -16.721  0.00  0.00    +0.007 C 
ATOM      7  C   UNL     1      34.693 -22.473 -17.962  0.00  0.00    -0.026 C 
ATOM      8  C   UNL     1      35.723 -21.674 -15.146  0.00  0.00    +0.003 C 
ATOM      9  C   UNL     1      37.145 -21.776 -17.822  0.00  0.00    +0.026 C 
ATOM     10  C   UNL     1      35.764 -21.698 -18.472  0.00  0.00    -0.026 C 
ATOM     11  C   UNL     1      36.785 -23.972 -13.564  0.00  0.00    +0.029 C 
ATOM     12  C   UNL     1      33.429 -22.378 -18.549  0.00  0.00    -0.005 C 
ATOM     13  C   UNL     1      35.539 -20.798 -19.558  0.00  0.00    -0.004 C 
ATOM     14  C   UNL     1      34.241 -20.714 -20.123  0.00  0.00    +0.003 C 
ATOM     15  C   UNL     1      33.206 -21.506 -19.613  0.00  0.00    -0.000 C 
ATOM     16  C   UNL     1      36.540 -19.966 -20.111  0.00  0.00    +0.003 C 
ATOM     17  C   UNL     1      33.988 -19.840 -21.193  0.00  0.00    +0.037 C 
ATOM     18  C   UNL     1      36.275 -19.099 -21.175  0.00  0.00    +0.037 C 
ATOM     19  C   UNL     1      34.999 -19.037 -21.716  0.00  0.00    +0.134 C 
ENDROOT
BRANCH   3  20
ATOM     20  O   UNL     1      36.641 -25.347 -15.504  0.00  0.00    -0.387 OA
ATOM     21  H   UNL     1      36.105 -25.612 -16.267  0.00  0.00    +0.210 HD
ENDBRANCH   3  20
BRANCH  19  22
ATOM     22  O   UNL     1      34.735 -18.195 -22.751  0.00  0.00    -0.506 OA
ATOM     23  H   UNL     1      35.322 -18.149 -23.480  0.00  0.00    +0.292 HD
ENDBRANCH  19  22
TORSDOF 2
ENDMDL
MODEL 7
REMARK VINA RESULT:      -8.4      1.378      2.830
REMARK  Name = 9549180
REMARK  2 active torsions:
REMARK  status: ('A' for Active; 'I' for Inactive)
REMARK    1  A    between atoms: C_3  and  O_20
REMARK    2  A    between atoms: C_19  and  O_22
REMARK                            x       y       z     vdW  Elec       q    Type
REMARK                         _______ _______ _______ _____ _____    ______ ____
ROOT
ATOM      1  C   UNL     1      35.276 -23.691 -15.282  0.00  0.00    +0.027 C 
ATOM      2  C   UNL     1      34.391 -24.640 -14.440  0.00  0.00    +0.024 C 
ATOM      3  C   UNL     1      36.676 -24.315 -15.011  0.00  0.00    +0.089 C 
ATOM      4  C   UNL     1      35.148 -24.734 -13.112  0.00  0.00    +0.007 C 
ATOM      5  C   UNL     1      36.638 -24.631 -13.496  0.00  0.00    +0.027 C 
ATOM      6  C   UNL     1      34.758 -23.794 -16.723  0.00  0.00    +0.007 C 
ATOM      7  C   UNL     1      32.931 -24.275 -14.477  0.00  0.00    -0.026 C 
ATOM      8  C   UNL     1      35.229 -22.215 -14.802  0.00  0.00    +0.003 C 
ATOM      9  C   UNL     1      33.287 -23.356 -16.832  0.00  0.00    +0.026 C 
ATOM     10  C   UNL     1      32.380 -23.708 -15.654  0.00  0.00    -0.026 C 
ATOM     11  C   UNL     1      37.874 -23.459 -15.407  0.00  0.00    +0.029 C 
ATOM     12  C   UNL     1      32.097 -24.572 -13.397  0.00  0.00    -0.005 C 
ATOM     13  C   UNL     1      30.985 -23.408 -15.715  0.00  0.00    -0.004 C 
ATOM     14  C   UNL     1      30.169 -23.709 -14.595  0.00  0.00    +0.003 C 
ATOM     15  C   UNL     1      30.735 -24.288 -13.454  0.00  0.00    -0.000 C 
ATOM     16  C   UNL     1      30.356 -22.816 -16.835  0.00  0.00    +0.003 C 
ATOM     17  C   UNL     1      28.792 -23.429 -14.627  0.00  0.00    +0.037 C 
ATOM     18  C   UNL     1      28.986 -22.542 -16.853  0.00  0.00    +0.037 C 
ATOM     19  C   UNL     1      28.205 -22.849 -15.748  0.00  0.00    +0.134 C 
ENDROOT
BRANCH   3  20
ATOM     20  O   UNL     1      36.792 -25.558 -15.718  0.00  0.00    -0.387 OA
ATOM     21  H   UNL     1      36.051 -25.649 -16.336  0.00  0.00    +0.210 HD
ENDBRANCH   3  20
BRANCH  19  22
ATOM     22  O   UNL     1      26.871 -22.583 -15.759  0.00  0.00    -0.506 OA
ATOM     23  H   UNL     1      26.483 -22.158 -16.499  0.00  0.00    +0.292 HD
ENDBRANCH  19  22
TORSDOF 2
ENDMDL
MODEL 8
REMARK VINA RESULT:      -8.4      2.999      4.725
REMARK  Name = 9549180
REMARK  2 active torsions:
REMARK  status: ('A' for Active; 'I' for Inactive)
REMARK    1  A    between atoms: C_3  and  O_20
REMARK    2  A    between atoms: C_19  and  O_22
REMARK                            x       y       z     vdW  Elec       q    Type
REMARK                         _______ _______ _______ _____ _____    ______ ____
ROOT
ATOM      1  C   UNL     1      36.987 -23.654 -14.355  0.00  0.00    +0.027 C 
ATOM      2  C   UNL     1      35.747 -24.317 -14.999  0.00  0.00    +0.024 C 
ATOM      3  C   UNL     1      37.291 -24.685 -13.230  0.00  0.00    +0.089 C 
ATOM      4  C   UNL     1      34.883 -24.685 -13.790  0.00  0.00    +0.007 C 
ATOM      5  C   UNL     1      35.888 -25.029 -12.672  0.00  0.00    +0.027 C 
ATOM      6  C   UNL     1      38.036 -23.542 -15.470  0.00  0.00    +0.007 C 
ATOM      7  C   UNL     1      35.180 -23.521 -16.145  0.00  0.00    -0.026 C 
ATOM      8  C   UNL     1      36.696 -22.253 -13.753  0.00  0.00    +0.003 C 
ATOM      9  C   UNL     1      37.536 -22.671 -16.636  0.00  0.00    +0.026 C 
ATOM     10  C   UNL     1      36.050 -22.771 -16.975  0.00  0.00    -0.026 C 
ATOM     11  C   UNL     1      38.262 -24.223 -12.147  0.00  0.00    +0.029 C 
ATOM     12  C   UNL     1      33.819 -23.588 -16.450  0.00  0.00    -0.005 C 
ATOM     13  C   UNL     1      35.526 -22.057 -18.096  0.00  0.00    -0.004 C 
ATOM     14  C   UNL     1      34.137 -22.134 -18.370  0.00  0.00    +0.003 C 
ATOM     15  C   UNL     1      33.304 -22.900 -17.546  0.00  0.00    -0.000 C 
ATOM     16  C   UNL     1      36.313 -21.261 -18.960  0.00  0.00    +0.003 C 
ATOM     17  C   UNL     1      33.592 -21.445 -19.467  0.00  0.00    +0.037 C 
ATOM     18  C   UNL     1      35.759 -20.580 -20.046  0.00  0.00    +0.037 C 
ATOM     19  C   UNL     1      34.398 -20.673 -20.300  0.00  0.00    +0.134 C 
ENDROOT
BRANCH   3  20
ATOM     20  O   UNL     1      37.841 -25.878 -13.808  0.00  0.00    -0.387 OA
ATOM     21  H   UNL     1      38.624 -25.652 -14.332  0.00  0.00    +0.210 HD
ENDBRANCH   3  20
BRANCH  19  22
ATOM     22  O   UNL     1      33.852 -20.012 -21.356  0.00  0.00    -0.506 OA
ATOM     23  H   UNL     1      33.151 -20.400 -21.841  0.00  0.00    +0.292 HD
ENDBRANCH  19  22
TORSDOF 2
ENDMDL
MODEL 9
REMARK VINA RESULT:      -8.3     14.259     16.349
REMARK  Name = 9549180
REMARK  2 active torsions:
REMARK  status: ('A' for Active; 'I' for Inactive)
REMARK    1  A    between atoms: C_3  and  O_20
REMARK    2  A    between atoms: C_19  and  O_22
REMARK                            x       y       z     vdW  Elec       q    Type
REMARK                         _______ _______ _______ _____ _____    ______ ____
ROOT
ATOM      1  C   UNL     1      32.224  -8.127 -22.345  0.00  0.00    +0.027 C 
ATOM      2  C   UNL     1      32.604  -8.705 -23.729  0.00  0.00    +0.024 C 
ATOM      3  C   UNL     1      31.885  -6.663 -22.747  0.00  0.00    +0.089 C 
ATOM      4  C   UNL     1      33.538  -7.638 -24.307  0.00  0.00    +0.007 C 
ATOM      5  C   UNL     1      33.004  -6.301 -23.754  0.00  0.00    +0.027 C 
ATOM      6  C   UNL     1      31.051  -8.977 -21.837  0.00  0.00    +0.007 C 
ATOM      7  C   UNL     1      33.018 -10.151 -23.673  0.00  0.00    -0.026 C 
ATOM      8  C   UNL     1      33.391  -8.161 -21.321  0.00  0.00    +0.003 C 
ATOM      9  C   UNL     1      31.445 -10.458 -21.686  0.00  0.00    +0.026 C 
ATOM     10  C   UNL     1      32.417 -11.016 -22.724  0.00  0.00    -0.026 C 
ATOM     11  C   UNL     1      31.777  -5.665 -21.598  0.00  0.00    +0.029 C 
ATOM     12  C   UNL     1      33.922 -10.667 -24.604  0.00  0.00    -0.005 C 
ATOM     13  C   UNL     1      32.766 -12.400 -22.700  0.00  0.00    -0.004 C 
ATOM     14  C   UNL     1      33.698 -12.890 -23.650  0.00  0.00    +0.003 C 
ATOM     15  C   UNL     1      34.261 -12.018 -24.589  0.00  0.00    -0.000 C 
ATOM     16  C   UNL     1      32.239 -13.329 -21.772  0.00  0.00    +0.003 C 
ATOM     17  C   UNL     1      34.059 -14.248 -23.653  0.00  0.00    +0.037 C 
ATOM     18  C   UNL     1      32.607 -14.676 -21.786  0.00  0.00    +0.037 C 
ATOM     19  C   UNL     1      33.517 -15.135 -22.727  0.00  0.00    +0.134 C 
ENDROOT
BRANCH   3  20
ATOM     20  O   UNL     1      30.634  -6.635 -23.450  0.00  0.00    -0.387 OA
ATOM     21  H   UNL     1      30.355  -7.543 -23.648  0.00  0.00    +0.210 HD
ENDBRANCH   3  20
BRANCH  19  22
ATOM     22  O   UNL     1      33.881 -16.446 -22.745  0.00  0.00    -0.506 OA
ATOM     23  H   UNL     1      33.779 -16.951 -23.527  0.00  0.00    +0.292 HD
ENDBRANCH  19  22
TORSDOF 2
ENDMDL
