MODEL 1
REMARK VINA RESULT:      -4.4      0.000      0.000
REMARK  Name = 12023
REMARK  0 active torsions:
REMARK  status: ('A' for Active; 'I' for Inactive)
REMARK                            x       y       z     vdW  Elec       q    Type
REMARK                         _______ _______ _______ _____ _____    ______ ____
ROOT
ATOM      1  N   UNL     1      32.650 -20.991 -19.819  0.00  0.00    -0.311 N 
ATOM      2  C   UNL     1      34.862 -20.872 -19.993  0.00  0.00    -0.006 C 
ATOM      3  C   UNL     1      33.824 -21.566 -19.408  0.00  0.00    +0.058 C 
ATOM      4  C   UNL     1      34.290 -19.845 -20.784  0.00  0.00    +0.013 C 
ATOM      5  C   UNL     1      36.301 -21.150 -19.825  0.00  0.00    +0.032 C 
ATOM      6  C   UNL     1      32.922 -19.942 -20.658  0.00  0.00    +0.062 C 
ATOM      7  H   UNL     1      31.749 -21.287 -19.553  0.00  0.00    +0.152 HD
ENDROOT
TORSDOF 0
ENDMDL
MODEL 2
REMARK VINA RESULT:      -4.3      0.619      2.039
REMARK  Name = 12023
REMARK  0 active torsions:
REMARK  status: ('A' for Active; 'I' for Inactive)
REMARK                            x       y       z     vdW  Elec       q    Type
REMARK                         _______ _______ _______ _____ _____    ______ ____
ROOT
ATOM      1  N   UNL     1      32.665 -20.999 -19.692  0.00  0.00    -0.311 N 
ATOM      2  C   UNL     1      34.196 -19.879 -20.848  0.00  0.00    -0.006 C 
ATOM      3  C   UNL     1      32.846 -19.982 -20.592  0.00  0.00    +0.058 C 
ATOM      4  C   UNL     1      34.849 -20.870 -20.074  0.00  0.00    +0.013 C 
ATOM      5  C   UNL     1      34.840 -18.914 -21.759  0.00  0.00    +0.032 C 
ATOM      6  C   UNL     1      33.879 -21.548 -19.369  0.00  0.00    +0.062 C 
ATOM      7  H   UNL     1      31.796 -21.291 -19.332  0.00  0.00    +0.152 HD
ENDROOT
TORSDOF 0
ENDMDL
MODEL 3
REMARK VINA RESULT:      -4.3      1.824      3.129
REMARK  Name = 12023
REMARK  0 active torsions:
REMARK  status: ('A' for Active; 'I' for Inactive)
REMARK                            x       y       z     vdW  Elec       q    Type
REMARK                         _______ _______ _______ _____ _____    ______ ____
ROOT
ATOM      1  N   UNL     1      36.443 -19.461 -20.595  0.00  0.00    -0.311 N 
ATOM      2  C   UNL     1      34.315 -20.093 -20.521  0.00  0.00    -0.006 C 
ATOM      3  C   UNL     1      35.170 -19.103 -20.955  0.00  0.00    +0.058 C 
ATOM      4  C   UNL     1      35.102 -21.080 -19.878  0.00  0.00    +0.013 C 
ATOM      5  C   UNL     1      32.850 -20.118 -20.697  0.00  0.00    +0.032 C 
ATOM      6  C   UNL     1      36.413 -20.663 -19.938  0.00  0.00    +0.062 C 
ATOM      7  H   UNL     1      37.255 -18.934 -20.779  0.00  0.00    +0.152 HD
ENDROOT
TORSDOF 0
ENDMDL
MODEL 4
REMARK VINA RESULT:      -4.3      1.932      2.815
REMARK  Name = 12023
REMARK  0 active torsions:
REMARK  status: ('A' for Active; 'I' for Inactive)
REMARK                            x       y       z     vdW  Elec       q    Type
REMARK                         _______ _______ _______ _____ _____    ______ ____
ROOT
ATOM      1  N   UNL     1      36.484 -20.085 -20.257  0.00  0.00    -0.311 N 
ATOM      2  C   UNL     1      34.295 -19.976 -20.619  0.00  0.00    -0.006 C 
ATOM      3  C   UNL     1      35.291 -20.714 -20.016  0.00  0.00    +0.058 C 
ATOM      4  C   UNL     1      34.912 -18.864 -21.244  0.00  0.00    +0.013 C 
ATOM      5  C   UNL     1      32.853 -20.288 -20.612  0.00  0.00    +0.032 C 
ATOM      6  C   UNL     1      36.265 -18.957 -21.004  0.00  0.00    +0.062 C 
ATOM      7  H   UNL     1      37.364 -20.395 -19.943  0.00  0.00    +0.152 HD
ENDROOT
TORSDOF 0
ENDMDL
MODEL 5
REMARK VINA RESULT:      -4.2      1.348      2.087
REMARK  Name = 12023
REMARK  0 active torsions:
REMARK  status: ('A' for Active; 'I' for Inactive)
REMARK                            x       y       z     vdW  Elec       q    Type
REMARK                         _______ _______ _______ _____ _____    ______ ____
ROOT
ATOM      1  N   UNL     1      35.144 -19.862 -20.875  0.00  0.00    -0.311 N 
ATOM      2  C   UNL     1      33.897 -21.240 -19.657  0.00  0.00    -0.006 C 
ATOM      3  C   UNL     1      35.192 -20.922 -20.008  0.00  0.00    +0.058 C 
ATOM      4  C   UNL     1      33.042 -20.338 -20.337  0.00  0.00    +0.013 C 
ATOM      5  C   UNL     1      33.482 -22.319 -18.742  0.00  0.00    +0.032 C 
ATOM      6  C   UNL     1      33.839 -19.498 -21.083  0.00  0.00    +0.062 C 
ATOM      7  H   UNL     1      35.927 -19.428 -21.286  0.00  0.00    +0.152 HD
ENDROOT
TORSDOF 0
ENDMDL
MODEL 6
REMARK VINA RESULT:      -4.1      4.272      5.025
REMARK  Name = 12023
REMARK  0 active torsions:
REMARK  status: ('A' for Active; 'I' for Inactive)
REMARK                            x       y       z     vdW  Elec       q    Type
REMARK                         _______ _______ _______ _____ _____    ______ ____
ROOT
ATOM      1  N   UNL     1      35.268 -16.428 -24.060  0.00  0.00    -0.311 N 
ATOM      2  C   UNL     1      34.909 -18.408 -23.118  0.00  0.00    -0.006 C 
ATOM      3  C   UNL     1      35.337 -17.120 -22.879  0.00  0.00    +0.058 C 
ATOM      4  C   UNL     1      34.570 -18.492 -24.491  0.00  0.00    +0.013 C 
ATOM      5  C   UNL     1      34.820 -19.496 -22.126  0.00  0.00    +0.032 C 
ATOM      6  C   UNL     1      34.802 -17.254 -25.049  0.00  0.00    +0.062 C 
ATOM      7  H   UNL     1      35.515 -15.482 -24.180  0.00  0.00    +0.152 HD
ENDROOT
TORSDOF 0
ENDMDL
MODEL 7
REMARK VINA RESULT:      -4.1      1.446      2.617
REMARK  Name = 12023
REMARK  0 active torsions:
REMARK  status: ('A' for Active; 'I' for Inactive)
REMARK                            x       y       z     vdW  Elec       q    Type
REMARK                         _______ _______ _______ _____ _____    ______ ____
ROOT
ATOM      1  N   UNL     1      35.518 -21.947 -19.169  0.00  0.00    -0.311 N 
ATOM      2  C   UNL     1      34.158 -20.542 -20.223  0.00  0.00    -0.006 C 
ATOM      3  C   UNL     1      35.481 -20.862 -20.004  0.00  0.00    +0.058 C 
ATOM      4  C   UNL     1      33.373 -21.468 -19.494  0.00  0.00    +0.013 C 
ATOM      5  C   UNL     1      33.656 -19.438 -21.063  0.00  0.00    +0.032 C 
ATOM      6  C   UNL     1      34.239 -22.326 -18.851  0.00  0.00    +0.062 C 
ATOM      7  H   UNL     1      36.337 -22.388 -18.846  0.00  0.00    +0.152 HD
ENDROOT
TORSDOF 0
ENDMDL
MODEL 8
REMARK VINA RESULT:      -4.0      1.447      2.332
REMARK  Name = 12023
REMARK  0 active torsions:
REMARK  status: ('A' for Active; 'I' for Inactive)
REMARK                            x       y       z     vdW  Elec       q    Type
REMARK                         _______ _______ _______ _____ _____    ______ ____
ROOT
ATOM      1  N   UNL     1      34.176 -18.928 -21.387  0.00  0.00    -0.311 N 
ATOM      2  C   UNL     1      34.029 -20.737 -20.106  0.00  0.00    -0.006 C 
ATOM      3  C   UNL     1      33.296 -19.787 -20.784  0.00  0.00    +0.058 C 
ATOM      4  C   UNL     1      35.398 -20.438 -20.309  0.00  0.00    +0.013 C 
ATOM      5  C   UNL     1      33.485 -21.858 -19.316  0.00  0.00    +0.032 C 
ATOM      6  C   UNL     1      35.461 -19.315 -21.104  0.00  0.00    +0.062 C 
ATOM      7  H   UNL     1      33.925 -18.152 -21.938  0.00  0.00    +0.152 HD
ENDROOT
TORSDOF 0
ENDMDL
MODEL 9
REMARK VINA RESULT:      -4.0      2.987      3.823
REMARK  Name = 12023
REMARK  0 active torsions:
REMARK  status: ('A' for Active; 'I' for Inactive)
REMARK                            x       y       z     vdW  Elec       q    Type
REMARK                         _______ _______ _______ _____ _____    ______ ____
ROOT
ATOM      1  N   UNL     1      35.583 -18.085 -23.296  0.00  0.00    -0.311 N 
ATOM      2  C   UNL     1      34.349 -18.923 -21.651  0.00  0.00    -0.006 C 
ATOM      3  C   UNL     1      34.974 -19.224 -22.842  0.00  0.00    +0.058 C 
ATOM      4  C   UNL     1      34.592 -17.554 -21.381  0.00  0.00    +0.013 C 
ATOM      5  C   UNL     1      33.571 -19.856 -20.814  0.00  0.00    +0.032 C 
ATOM      6  C   UNL     1      35.358 -17.060 -22.414  0.00  0.00    +0.062 C 
ATOM      7  H   UNL     1      36.104 -18.012 -24.129  0.00  0.00    +0.152 HD
ENDROOT
TORSDOF 0
ENDMDL
