MODEL 1
REMARK VINA RESULT:     -10.1      0.000      0.000
REMARK  Name = 1530
REMARK  1 active torsions:
REMARK  status: ('A' for Active; 'I' for Inactive)
REMARK    1  A    between atoms: C_7  and  C_14
REMARK                            x       y       z     vdW  Elec       q    Type
REMARK                         _______ _______ _______ _____ _____    ______ ____
ROOT
ATOM      1  N   UNL     1      34.184 -15.239 -21.988  0.00  0.00    -0.240 N 
ATOM      2  N   UNL     1      34.664 -15.676 -24.119  0.00  0.00    -0.319 NA
ATOM      3  N   UNL     1      34.978 -18.071 -23.864  0.00  0.00    -0.181 NA
ATOM      4  N   UNL     1      34.194 -13.411 -23.467  0.00  0.00    -0.320 N 
ATOM      5  C   UNL     1      34.400 -16.589 -22.046  0.00  0.00    +0.130 C 
ATOM      6  C   UNL     1      34.697 -16.834 -23.382  0.00  0.00    +0.105 C 
ATOM      7  C   UNL     1      34.656 -18.882 -21.580  0.00  0.00    +0.022 C 
ATOM      8  C   UNL     1      34.370 -17.607 -21.100  0.00  0.00    +0.028 C 
ATOM      9  C   UNL     1      34.353 -14.738 -23.251  0.00  0.00    +0.250 C 
ATOM     10  C   UNL     1      33.838 -14.492 -20.798  0.00  0.00    +0.122 C 
ATOM     11  C   UNL     1      34.944 -19.050 -22.930  0.00  0.00    +0.111 C 
ATOM     12  H   UNL     1      33.958 -12.815 -22.719  0.00  0.00    +0.146 HD
ATOM     13  H   UNL     1      34.314 -13.041 -24.372  0.00  0.00    +0.146 HD
ENDROOT
BRANCH   7  14
ATOM     14  C   UNL     1      34.655 -20.017 -20.683  0.00  0.00    +0.002 C 
ATOM     15  C   UNL     1      35.862 -20.566 -20.250  0.00  0.00    +0.000 C 
ATOM     16  C   UNL     1      33.446 -20.563 -20.251  0.00  0.00    +0.000 C 
ATOM     17  C   UNL     1      35.860 -21.661 -19.385  0.00  0.00    +0.000 C 
ATOM     18  C   UNL     1      33.444 -21.658 -19.386  0.00  0.00    +0.000 C 
ATOM     19  C   UNL     1      34.652 -22.206 -18.953  0.00  0.00    +0.000 C 
ENDBRANCH   7  14
TORSDOF 1
ENDMDL
MODEL 2
REMARK VINA RESULT:      -9.7      1.576      2.151
REMARK  Name = 1530
REMARK  1 active torsions:
REMARK  status: ('A' for Active; 'I' for Inactive)
REMARK    1  A    between atoms: C_7  and  C_14
REMARK                            x       y       z     vdW  Elec       q    Type
REMARK                         _______ _______ _______ _____ _____    ______ ____
ROOT
ATOM      1  N   UNL     1      33.809 -14.684 -24.251  0.00  0.00    -0.240 N 
ATOM      2  N   UNL     1      33.671 -15.679 -26.240  0.00  0.00    -0.319 NA
ATOM      3  N   UNL     1      34.314 -17.902 -25.503  0.00  0.00    -0.181 NA
ATOM      4  N   UNL     1      33.167 -13.334 -26.067  0.00  0.00    -0.320 N 
ATOM      5  C   UNL     1      34.147 -15.992 -24.033  0.00  0.00    +0.130 C 
ATOM      6  C   UNL     1      34.053 -16.587 -25.285  0.00  0.00    +0.105 C 
ATOM      7  C   UNL     1      34.788 -18.060 -23.109  0.00  0.00    +0.022 C 
ATOM      8  C   UNL     1      34.519 -16.710 -22.901  0.00  0.00    +0.028 C 
ATOM      9  C   UNL     1      33.532 -14.546 -25.585  0.00  0.00    +0.250 C 
ATOM     10  C   UNL     1      33.756 -13.648 -23.243  0.00  0.00    +0.122 C 
ATOM     11  C   UNL     1      34.673 -18.586 -24.392  0.00  0.00    +0.111 C 
ATOM     12  H   UNL     1      33.102 -12.562 -25.460  0.00  0.00    +0.146 HD
ATOM     13  H   UNL     1      32.967 -13.226 -27.025  0.00  0.00    +0.146 HD
ENDROOT
BRANCH   7  14
ATOM     14  C   UNL     1      35.185 -18.904 -22.003  0.00  0.00    +0.002 C 
ATOM     15  C   UNL     1      36.500 -18.875 -21.540  0.00  0.00    +0.000 C 
ATOM     16  C   UNL     1      34.251 -19.747 -21.399  0.00  0.00    +0.000 C 
ATOM     17  C   UNL     1      36.882 -19.689 -20.473  0.00  0.00    +0.000 C 
ATOM     18  C   UNL     1      34.633 -20.561 -20.332  0.00  0.00    +0.000 C 
ATOM     19  C   UNL     1      35.949 -20.532 -19.869  0.00  0.00    +0.000 C 
ENDBRANCH   7  14
TORSDOF 1
ENDMDL
MODEL 3
REMARK VINA RESULT:      -9.4      1.081      1.787
REMARK  Name = 1530
REMARK  1 active torsions:
REMARK  status: ('A' for Active; 'I' for Inactive)
REMARK    1  A    between atoms: C_7  and  C_14
REMARK                            x       y       z     vdW  Elec       q    Type
REMARK                         _______ _______ _______ _____ _____    ______ ____
ROOT
ATOM      1  N   UNL     1      33.236 -14.196 -21.982  0.00  0.00    -0.240 N 
ATOM      2  N   UNL     1      34.110 -14.234 -24.030  0.00  0.00    -0.319 NA
ATOM      3  N   UNL     1      34.838 -16.551 -23.997  0.00  0.00    -0.181 NA
ATOM      4  N   UNL     1      33.118 -12.200 -23.220  0.00  0.00    -0.320 N 
ATOM      5  C   UNL     1      33.715 -15.466 -22.153  0.00  0.00    +0.130 C 
ATOM      6  C   UNL     1      34.253 -15.463 -23.435  0.00  0.00    +0.105 C 
ATOM      7  C   UNL     1      34.335 -17.724 -21.911  0.00  0.00    +0.022 C 
ATOM      8  C   UNL     1      33.739 -16.599 -21.348  0.00  0.00    +0.028 C 
ATOM      9  C   UNL     1      33.496 -13.498 -23.130  0.00  0.00    +0.250 C 
ATOM     10  C   UNL     1      32.576 -13.697 -20.795  0.00  0.00    +0.122 C 
ATOM     11  C   UNL     1      34.851 -17.645 -23.200  0.00  0.00    +0.111 C 
ATOM     12  H   UNL     1      32.661 -11.767 -22.463  0.00  0.00    +0.146 HD
ATOM     13  H   UNL     1      33.300 -11.690 -24.042  0.00  0.00    +0.146 HD
ENDROOT
BRANCH   7  14
ATOM     14  C   UNL     1      34.416 -18.959 -21.162  0.00  0.00    +0.002 C 
ATOM     15  C   UNL     1      33.250 -19.601 -20.745  0.00  0.00    +0.000 C 
ATOM     16  C   UNL     1      35.662 -19.508 -20.856  0.00  0.00    +0.000 C 
ATOM     17  C   UNL     1      33.330 -20.792 -20.023  0.00  0.00    +0.000 C 
ATOM     18  C   UNL     1      35.742 -20.699 -20.135  0.00  0.00    +0.000 C 
ATOM     19  C   UNL     1      34.575 -21.341 -19.718  0.00  0.00    +0.000 C 
ENDBRANCH   7  14
TORSDOF 1
ENDMDL
MODEL 4
REMARK VINA RESULT:      -9.2      1.332      2.510
REMARK  Name = 1530
REMARK  1 active torsions:
REMARK  status: ('A' for Active; 'I' for Inactive)
REMARK    1  A    between atoms: C_7  and  C_14
REMARK                            x       y       z     vdW  Elec       q    Type
REMARK                         _______ _______ _______ _____ _____    ______ ____
ROOT
ATOM      1  N   UNL     1      33.850 -15.146 -24.466  0.00  0.00    -0.240 N 
ATOM      2  N   UNL     1      33.963 -13.492 -22.979  0.00  0.00    -0.319 NA
ATOM      3  N   UNL     1      34.537 -14.861 -21.057  0.00  0.00    -0.181 NA
ATOM      4  N   UNL     1      33.417 -12.976 -25.263  0.00  0.00    -0.320 N 
ATOM      5  C   UNL     1      34.174 -15.742 -23.277  0.00  0.00    +0.130 C 
ATOM      6  C   UNL     1      34.238 -14.690 -22.370  0.00  0.00    +0.105 C 
ATOM      7  C   UNL     1      34.723 -17.248 -21.554  0.00  0.00    +0.022 C 
ATOM      8  C   UNL     1      34.415 -17.058 -22.898  0.00  0.00    +0.028 C 
ATOM      9  C   UNL     1      33.734 -13.802 -24.237  0.00  0.00    +0.250 C 
ATOM     10  C   UNL     1      33.667 -15.829 -25.728  0.00  0.00    +0.122 C 
ATOM     11  C   UNL     1      34.769 -16.147 -20.705  0.00  0.00    +0.111 C 
ATOM     12  H   UNL     1      33.271 -13.345 -26.164  0.00  0.00    +0.146 HD
ATOM     13  H   UNL     1      33.332 -12.008 -25.107  0.00  0.00    +0.146 HD
ENDROOT
BRANCH   7  14
ATOM     14  C   UNL     1      34.991 -18.576 -21.048  0.00  0.00    +0.002 C 
ATOM     15  C   UNL     1      36.307 -18.992 -20.839  0.00  0.00    +0.000 C 
ATOM     16  C   UNL     1      33.934 -19.443 -20.768  0.00  0.00    +0.000 C 
ATOM     17  C   UNL     1      36.564 -20.273 -20.350  0.00  0.00    +0.000 C 
ATOM     18  C   UNL     1      34.192 -20.724 -20.280  0.00  0.00    +0.000 C 
ATOM     19  C   UNL     1      35.507 -21.139 -20.071  0.00  0.00    +0.000 C 
ENDBRANCH   7  14
TORSDOF 1
ENDMDL
MODEL 5
REMARK VINA RESULT:      -8.9      3.161      7.326
REMARK  Name = 1530
REMARK  1 active torsions:
REMARK  status: ('A' for Active; 'I' for Inactive)
REMARK    1  A    between atoms: C_7  and  C_14
REMARK                            x       y       z     vdW  Elec       q    Type
REMARK                         _______ _______ _______ _____ _____    ______ ____
ROOT
ATOM      1  N   UNL     1      34.699 -17.094 -23.411  0.00  0.00    -0.240 N 
ATOM      2  N   UNL     1      34.207 -17.574 -25.530  0.00  0.00    -0.319 NA
ATOM      3  N   UNL     1      33.491 -15.346 -26.178  0.00  0.00    -0.181 NA
ATOM      4  N   UNL     1      35.033 -19.319 -24.097  0.00  0.00    -0.320 N 
ATOM      5  C   UNL     1      34.262 -15.921 -23.962  0.00  0.00    +0.130 C 
ATOM      6  C   UNL     1      33.963 -16.247 -25.280  0.00  0.00    +0.105 C 
ATOM      7  C   UNL     1      33.613 -13.696 -24.378  0.00  0.00    +0.022 C 
ATOM      8  C   UNL     1      34.096 -14.632 -23.467  0.00  0.00    +0.028 C 
ATOM      9  C   UNL     1      34.648 -18.053 -24.387  0.00  0.00    +0.250 C 
ATOM     10  C   UNL     1      35.134 -17.272 -22.043  0.00  0.00    +0.122 C 
ATOM     11  C   UNL     1      33.337 -14.097 -25.681  0.00  0.00    +0.111 C 
ATOM     12  H   UNL     1      35.346 -19.543 -23.191  0.00  0.00    +0.146 HD
ATOM     13  H   UNL     1      35.000 -20.015 -24.793  0.00  0.00    +0.146 HD
ENDROOT
BRANCH   7  14
ATOM     14  C   UNL     1      33.401 -12.325 -23.972  0.00  0.00    +0.002 C 
ATOM     15  C   UNL     1      34.140 -11.299 -24.562  0.00  0.00    +0.000 C 
ATOM     16  C   UNL     1      32.457 -12.026 -22.988  0.00  0.00    +0.000 C 
ATOM     17  C   UNL     1      33.935  -9.976 -24.170  0.00  0.00    +0.000 C 
ATOM     18  C   UNL     1      32.252 -10.703 -22.596  0.00  0.00    +0.000 C 
ATOM     19  C   UNL     1      32.991  -9.678 -23.187  0.00  0.00    +0.000 C 
ENDBRANCH   7  14
TORSDOF 1
ENDMDL
MODEL 6
REMARK VINA RESULT:      -8.9      3.080      7.300
REMARK  Name = 1530
REMARK  1 active torsions:
REMARK  status: ('A' for Active; 'I' for Inactive)
REMARK    1  A    between atoms: C_7  and  C_14
REMARK                            x       y       z     vdW  Elec       q    Type
REMARK                         _______ _______ _______ _____ _____    ______ ____
ROOT
ATOM      1  N   UNL     1      34.670 -17.212 -23.390  0.00  0.00    -0.240 N 
ATOM      2  N   UNL     1      34.286 -17.646 -25.540  0.00  0.00    -0.319 NA
ATOM      3  N   UNL     1      33.543 -15.420 -26.162  0.00  0.00    -0.181 NA
ATOM      4  N   UNL     1      35.091 -19.409 -24.117  0.00  0.00    -0.320 N 
ATOM      5  C   UNL     1      34.228 -16.035 -23.929  0.00  0.00    +0.130 C 
ATOM      6  C   UNL     1      33.997 -16.333 -25.267  0.00  0.00    +0.105 C 
ATOM      7  C   UNL     1      33.543 -13.816 -24.316  0.00  0.00    +0.022 C 
ATOM      8  C   UNL     1      34.008 -14.764 -23.409  0.00  0.00    +0.028 C 
ATOM      9  C   UNL     1      34.688 -18.145 -24.391  0.00  0.00    +0.250 C 
ATOM     10  C   UNL     1      35.048 -17.416 -22.008  0.00  0.00    +0.122 C 
ATOM     11  C   UNL     1      33.335 -14.189 -25.640  0.00  0.00    +0.111 C 
ATOM     12  H   UNL     1      35.368 -19.649 -23.204  0.00  0.00    +0.146 HD
ATOM     13  H   UNL     1      35.107 -20.086 -24.831  0.00  0.00    +0.146 HD
ENDROOT
BRANCH   7  14
ATOM     14  C   UNL     1      33.278 -12.462 -23.885  0.00  0.00    +0.002 C 
ATOM     15  C   UNL     1      32.378 -12.222 -22.846  0.00  0.00    +0.000 C 
ATOM     16  C   UNL     1      33.923 -11.392 -24.508  0.00  0.00    +0.000 C 
ATOM     17  C   UNL     1      32.124 -10.915 -22.430  0.00  0.00    +0.000 C 
ATOM     18  C   UNL     1      33.669 -10.085 -24.092  0.00  0.00    +0.000 C 
ATOM     19  C   UNL     1      32.768  -9.847 -23.053  0.00  0.00    +0.000 C 
ENDBRANCH   7  14
TORSDOF 1
ENDMDL
MODEL 7
REMARK VINA RESULT:      -8.8      8.044     10.333
REMARK  Name = 1530
REMARK  1 active torsions:
REMARK  status: ('A' for Active; 'I' for Inactive)
REMARK    1  A    between atoms: C_7  and  C_14
REMARK                            x       y       z     vdW  Elec       q    Type
REMARK                         _______ _______ _______ _____ _____    ______ ____
ROOT
ATOM      1  N   UNL     1      37.523 -25.460 -13.860  0.00  0.00    -0.240 N 
ATOM      2  N   UNL     1      38.744 -24.164 -15.198  0.00  0.00    -0.319 NA
ATOM      3  N   UNL     1      36.898 -22.917 -16.165  0.00  0.00    -0.181 NA
ATOM      4  N   UNL     1      39.853 -25.781 -13.807  0.00  0.00    -0.320 N 
ATOM      5  C   UNL     1      36.627 -24.659 -14.513  0.00  0.00    +0.130 C 
ATOM      6  C   UNL     1      37.413 -23.863 -15.338  0.00  0.00    +0.105 C 
ATOM      7  C   UNL     1      34.700 -23.574 -15.319  0.00  0.00    +0.022 C 
ATOM      8  C   UNL     1      35.242 -24.541 -14.477  0.00  0.00    +0.028 C 
ATOM      9  C   UNL     1      38.775 -25.127 -14.303  0.00  0.00    +0.250 C 
ATOM     10  C   UNL     1      37.191 -26.472 -12.881  0.00  0.00    +0.122 C 
ATOM     11  C   UNL     1      35.549 -22.815 -16.117  0.00  0.00    +0.111 C 
ATOM     12  H   UNL     1      39.732 -26.490 -13.134  0.00  0.00    +0.146 HD
ATOM     13  H   UNL     1      40.757 -25.548 -14.120  0.00  0.00    +0.146 HD
ENDROOT
BRANCH   7  14
ATOM     14  C   UNL     1      33.270 -23.365 -15.364  0.00  0.00    +0.002 C 
ATOM     15  C   UNL     1      32.624 -23.211 -16.592  0.00  0.00    +0.000 C 
ATOM     16  C   UNL     1      32.533 -23.317 -14.180  0.00  0.00    +0.000 C 
ATOM     17  C   UNL     1      31.245 -23.009 -16.634  0.00  0.00    +0.000 C 
ATOM     18  C   UNL     1      31.154 -23.116 -14.222  0.00  0.00    +0.000 C 
ATOM     19  C   UNL     1      30.509 -22.962 -15.451  0.00  0.00    +0.000 C 
ENDBRANCH   7  14
TORSDOF 1
ENDMDL
MODEL 8
REMARK VINA RESULT:      -8.7      4.631      7.353
REMARK  Name = 1530
REMARK  1 active torsions:
REMARK  status: ('A' for Active; 'I' for Inactive)
REMARK    1  A    between atoms: C_7  and  C_14
REMARK                            x       y       z     vdW  Elec       q    Type
REMARK                         _______ _______ _______ _____ _____    ______ ____
ROOT
ATOM      1  N   UNL     1      35.882 -22.831 -16.669  0.00  0.00    -0.240 N 
ATOM      2  N   UNL     1      33.817 -23.661 -16.754  0.00  0.00    -0.319 NA
ATOM      3  N   UNL     1      33.106 -22.477 -18.752  0.00  0.00    -0.181 NA
ATOM      4  N   UNL     1      35.283 -24.352 -14.979  0.00  0.00    -0.320 N 
ATOM      5  C   UNL     1      35.302 -22.260 -17.769  0.00  0.00    +0.130 C 
ATOM      6  C   UNL     1      34.019 -22.794 -17.799  0.00  0.00    +0.105 C 
ATOM      7  C   UNL     1      34.820 -21.020 -19.711  0.00  0.00    +0.022 C 
ATOM      8  C   UNL     1      35.745 -21.354 -18.726  0.00  0.00    +0.028 C 
ATOM      9  C   UNL     1      34.956 -23.660 -16.096  0.00  0.00    +0.250 C 
ATOM     10  C   UNL     1      37.233 -22.591 -16.209  0.00  0.00    +0.122 C 
ATOM     11  C   UNL     1      33.554 -21.595 -19.675  0.00  0.00    +0.111 C 
ATOM     12  H   UNL     1      36.180 -24.257 -14.586  0.00  0.00    +0.146 HD
ATOM     13  H   UNL     1      34.623 -24.951 -14.560  0.00  0.00    +0.146 HD
ENDROOT
BRANCH   7  14
ATOM     14  C   UNL     1      35.172 -20.086 -20.757  0.00  0.00    +0.002 C 
ATOM     15  C   UNL     1      36.452 -19.531 -20.796  0.00  0.00    +0.000 C 
ATOM     16  C   UNL     1      34.232 -19.737 -21.728  0.00  0.00    +0.000 C 
ATOM     17  C   UNL     1      36.791 -18.630 -21.805  0.00  0.00    +0.000 C 
ATOM     18  C   UNL     1      34.571 -18.836 -22.737  0.00  0.00    +0.000 C 
ATOM     19  C   UNL     1      35.851 -18.282 -22.775  0.00  0.00    +0.000 C 
ENDBRANCH   7  14
TORSDOF 1
ENDMDL
MODEL 9
REMARK VINA RESULT:      -8.7      3.605      6.579
REMARK  Name = 1530
REMARK  1 active torsions:
REMARK  status: ('A' for Active; 'I' for Inactive)
REMARK    1  A    between atoms: C_7  and  C_14
REMARK                            x       y       z     vdW  Elec       q    Type
REMARK                         _______ _______ _______ _____ _____    ______ ____
ROOT
ATOM      1  N   UNL     1      35.387 -21.911 -18.390  0.00  0.00    -0.240 N 
ATOM      2  N   UNL     1      33.266 -22.592 -18.363  0.00  0.00    -0.319 NA
ATOM      3  N   UNL     1      32.478 -21.171 -20.167  0.00  0.00    -0.181 NA
ATOM      4  N   UNL     1      34.822 -23.551 -16.801  0.00  0.00    -0.320 N 
ATOM      5  C   UNL     1      34.759 -21.198 -19.374  0.00  0.00    +0.130 C 
ATOM      6  C   UNL     1      33.442 -21.640 -19.336  0.00  0.00    +0.105 C 
ATOM      7  C   UNL     1      34.207 -19.742 -21.139  0.00  0.00    +0.022 C 
ATOM      8  C   UNL     1      35.185 -20.232 -20.279  0.00  0.00    +0.028 C 
ATOM      9  C   UNL     1      34.454 -22.731 -17.814  0.00  0.00    +0.250 C 
ATOM     10  C   UNL     1      36.786 -21.807 -18.035  0.00  0.00    +0.122 C 
ATOM     11  C   UNL     1      32.909 -20.233 -21.042  0.00  0.00    +0.111 C 
ATOM     12  H   UNL     1      35.755 -23.555 -16.485  0.00  0.00    +0.146 HD
ATOM     13  H   UNL     1      34.158 -24.144 -16.381  0.00  0.00    +0.146 HD
ENDROOT
BRANCH   7  14
ATOM     14  C   UNL     1      34.537 -18.733 -22.121  0.00  0.00    +0.002 C 
ATOM     15  C   UNL     1      34.719 -17.407 -21.727  0.00  0.00    +0.000 C 
ATOM     16  C   UNL     1      34.675 -19.085 -23.465  0.00  0.00    +0.000 C 
ATOM     17  C   UNL     1      35.037 -16.434 -22.674  0.00  0.00    +0.000 C 
ATOM     18  C   UNL     1      34.994 -18.112 -24.412  0.00  0.00    +0.000 C 
ATOM     19  C   UNL     1      35.175 -16.786 -24.017  0.00  0.00    +0.000 C 
ENDBRANCH   7  14
TORSDOF 1
ENDMDL
