MODEL 1
REMARK VINA RESULT:     -10.3      0.000      0.000
REMARK  Name = 3085201
REMARK  2 active torsions:
REMARK  status: ('A' for Active; 'I' for Inactive)
REMARK    1  A    between atoms: C_7  and  O_20
REMARK    2  A    between atoms: O_20  and  S_21
REMARK                            x       y       z     vdW  Elec       q    Type
REMARK                         _______ _______ _______ _____ _____    ______ ____
ROOT
ATOM      1  O   UNL     1      27.391 -23.046 -15.721  0.00  0.00    -0.291 OA
ATOM      2  C   UNL     1      35.050 -22.889 -15.443  0.00  0.00    +0.002 C 
ATOM      3  C   UNL     1      35.695 -23.825 -14.403  0.00  0.00    +0.027 C 
ATOM      4  C   UNL     1      33.734 -23.444 -15.994  0.00  0.00    +0.001 C 
ATOM      5  C   UNL     1      32.732 -23.617 -14.814  0.00  0.00    +0.004 C 
ATOM      6  C   UNL     1      34.736 -23.944 -13.211  0.00  0.00    +0.002 C 
ATOM      7  C   UNL     1      36.983 -23.030 -14.117  0.00  0.00    +0.147 C 
ATOM      8  C   UNL     1      36.193 -22.588 -16.409  0.00  0.00    +0.003 C 
ATOM      9  C   UNL     1      33.345 -24.436 -13.648  0.00  0.00    +0.000 C 
ATOM     10  C   UNL     1      31.377 -24.208 -15.311  0.00  0.00    +0.019 C 
ATOM     11  C   UNL     1      37.441 -22.548 -15.508  0.00  0.00    +0.032 C 
ATOM     12  C   UNL     1      33.128 -22.529 -17.064  0.00  0.00    +0.004 C 
ATOM     13  C   UNL     1      36.040 -25.241 -14.930  0.00  0.00    +0.002 C 
ATOM     14  C   UNL     1      31.828 -23.117 -17.600  0.00  0.00    +0.022 C 
ATOM     15  C   UNL     1      30.840 -23.423 -16.501  0.00  0.00    -0.042 C 
ATOM     16  C   UNL     1      30.357 -24.264 -14.155  0.00  0.00    +0.012 C 
ATOM     17  C   UNL     1      28.941 -24.520 -14.638  0.00  0.00    +0.069 C 
ATOM     18  C   UNL     1      29.559 -23.042 -16.630  0.00  0.00    +0.029 C 
ATOM     19  C   UNL     1      28.540 -23.475 -15.647  0.00  0.00    +0.173 C 
ENDROOT
BRANCH   7  20
ATOM     20  O   UNL     1      37.979 -23.802 -13.475  0.00  0.00    -0.203 OA
BRANCH  20  21
ATOM     21  S   UNL     1      38.183 -23.692 -11.853  0.00  0.00    +0.239 S 
ATOM     22  O   UNL     1      37.169 -22.489 -11.423  0.00  0.00    -0.022 OA
ATOM     23  O   UNL     1      37.681 -24.918 -11.261  0.00  0.00    -0.116 OA
ATOM     24  O   UNL     1      39.539 -23.253 -11.582  0.00  0.00    -0.116 OA
ENDBRANCH  20  21
ENDBRANCH   7  20
TORSDOF 2
ENDMDL
MODEL 2
REMARK VINA RESULT:      -9.6     12.756     14.883
REMARK  Name = 3085201
REMARK  2 active torsions:
REMARK  status: ('A' for Active; 'I' for Inactive)
REMARK    1  A    between atoms: C_7  and  O_20
REMARK    2  A    between atoms: O_20  and  S_21
REMARK                            x       y       z     vdW  Elec       q    Type
REMARK                         _______ _______ _______ _____ _____    ______ ____
ROOT
ATOM      1  O   UNL     1      35.753 -18.304 -23.244  0.00  0.00    -0.291 OA
ATOM      2  C   UNL     1      32.392 -11.857 -20.815  0.00  0.00    +0.002 C 
ATOM      3  C   UNL     1      31.998 -10.858 -21.920  0.00  0.00    +0.027 C 
ATOM      4  C   UNL     1      32.330 -13.310 -21.291  0.00  0.00    +0.001 C 
ATOM      5  C   UNL     1      33.320 -13.491 -22.479  0.00  0.00    +0.004 C 
ATOM      6  C   UNL     1      33.011 -10.989 -23.063  0.00  0.00    +0.002 C 
ATOM      7  C   UNL     1      32.097  -9.547 -21.117  0.00  0.00    +0.147 C 
ATOM      8  C   UNL     1      31.539 -11.427 -19.624  0.00  0.00    +0.003 C 
ATOM      9  C   UNL     1      33.091 -12.433 -23.591  0.00  0.00    +0.000 C 
ATOM     10  C   UNL     1      33.281 -14.950 -23.026  0.00  0.00    +0.019 C 
ATOM     11  C   UNL     1      31.464  -9.894 -19.755  0.00  0.00    +0.032 C 
ATOM     12  C   UNL     1      32.675 -14.297 -20.169  0.00  0.00    +0.004 C 
ATOM     13  C   UNL     1      30.564 -11.042 -22.479  0.00  0.00    +0.002 C 
ATOM     14  C   UNL     1      32.591 -15.734 -20.672  0.00  0.00    +0.022 C 
ATOM     15  C   UNL     1      33.438 -15.963 -21.899  0.00  0.00    -0.042 C 
ATOM     16  C   UNL     1      34.349 -15.144 -24.123  0.00  0.00    +0.012 C 
ATOM     17  C   UNL     1      34.580 -16.605 -24.462  0.00  0.00    +0.069 C 
ATOM     18  C   UNL     1      34.239 -17.038 -21.966  0.00  0.00    +0.029 C 
ATOM     19  C   UNL     1      34.951 -17.374 -23.220  0.00  0.00    +0.173 C 
ENDROOT
BRANCH   7  20
ATOM     20  O   UNL     1      31.435  -8.464 -21.742  0.00  0.00    -0.203 OA
BRANCH  20  21
ATOM     21  S   UNL     1      32.194  -7.021 -21.900  0.00  0.00    +0.239 S 
ATOM     22  O   UNL     1      33.721  -7.437 -22.297  0.00  0.00    -0.022 OA
ATOM     23  O   UNL     1      31.616  -6.340 -23.044  0.00  0.00    -0.116 OA
ATOM     24  O   UNL     1      32.231  -6.369 -20.605  0.00  0.00    -0.116 OA
ENDBRANCH  20  21
ENDBRANCH   7  20
TORSDOF 2
ENDMDL
MODEL 3
REMARK VINA RESULT:      -9.3      2.056      3.462
REMARK  Name = 3085201
REMARK  2 active torsions:
REMARK  status: ('A' for Active; 'I' for Inactive)
REMARK    1  A    between atoms: C_7  and  O_20
REMARK    2  A    between atoms: O_20  and  S_21
REMARK                            x       y       z     vdW  Elec       q    Type
REMARK                         _______ _______ _______ _____ _____    ______ ____
ROOT
ATOM      1  O   UNL     1      29.118 -23.366 -17.094  0.00  0.00    -0.291 OA
ATOM      2  C   UNL     1      35.586 -24.723 -13.211  0.00  0.00    +0.002 C 
ATOM      3  C   UNL     1      36.874 -24.180 -13.859  0.00  0.00    +0.027 C 
ATOM      4  C   UNL     1      34.363 -23.859 -13.528  0.00  0.00    +0.001 C 
ATOM      5  C   UNL     1      34.154 -23.837 -15.071  0.00  0.00    +0.004 C 
ATOM      6  C   UNL     1      36.694 -24.218 -15.381  0.00  0.00    +0.002 C 
ATOM      7  C   UNL     1      37.883 -25.203 -13.303  0.00  0.00    +0.147 C 
ATOM      8  C   UNL     1      35.984 -24.941 -11.754  0.00  0.00    +0.003 C 
ATOM      9  C   UNL     1      35.447 -23.432 -15.826  0.00  0.00    +0.000 C 
ATOM     10  C   UNL     1      32.934 -22.947 -15.459  0.00  0.00    +0.019 C 
ATOM     11  C   UNL     1      37.457 -25.388 -11.833  0.00  0.00    +0.032 C 
ATOM     12  C   UNL     1      33.097 -24.381 -12.838  0.00  0.00    +0.004 C 
ATOM     13  C   UNL     1      37.266 -22.745 -13.422  0.00  0.00    +0.002 C 
ATOM     14  C   UNL     1      31.902 -23.492 -13.164  0.00  0.00    +0.022 C 
ATOM     15  C   UNL     1      31.700 -23.324 -14.649  0.00  0.00    -0.042 C 
ATOM     16  C   UNL     1      32.668 -23.028 -16.977  0.00  0.00    +0.012 C 
ATOM     17  C   UNL     1      31.318 -22.453 -17.365  0.00  0.00    +0.069 C 
ATOM     18  C   UNL     1      30.473 -23.466 -15.176  0.00  0.00    +0.029 C 
ATOM     19  C   UNL     1      30.220 -23.144 -16.599  0.00  0.00    +0.173 C 
ENDROOT
BRANCH   7  20
ATOM     20  O   UNL     1      39.226 -24.771 -13.408  0.00  0.00    -0.203 OA
BRANCH  20  21
ATOM     21  S   UNL     1      40.232 -25.478 -14.491  0.00  0.00    +0.239 S 
ATOM     22  O   UNL     1      40.946 -26.664 -13.629  0.00  0.00    -0.022 OA
ATOM     23  O   UNL     1      39.412 -26.111 -15.508  0.00  0.00    -0.116 OA
ATOM     24  O   UNL     1      41.256 -24.522 -14.870  0.00  0.00    -0.116 OA
ENDBRANCH  20  21
ENDBRANCH   7  20
TORSDOF 2
ENDMDL
MODEL 4
REMARK VINA RESULT:      -9.0      9.463     11.185
REMARK  Name = 3085201
REMARK  2 active torsions:
REMARK  status: ('A' for Active; 'I' for Inactive)
REMARK    1  A    between atoms: C_7  and  O_20
REMARK    2  A    between atoms: O_20  and  S_21
REMARK                            x       y       z     vdW  Elec       q    Type
REMARK                         _______ _______ _______ _____ _____    ______ ____
ROOT
ATOM      1  O   UNL     1      33.902 -10.904 -25.678  0.00  0.00    -0.291 OA
ATOM      2  C   UNL     1      34.949 -17.981 -22.926  0.00  0.00    +0.002 C 
ATOM      3  C   UNL     1      34.662 -18.156 -21.422  0.00  0.00    +0.027 C 
ATOM      4  C   UNL     1      34.072 -16.902 -23.566  0.00  0.00    +0.001 C 
ATOM      5  C   UNL     1      34.355 -15.543 -22.860  0.00  0.00    +0.004 C 
ATOM      6  C   UNL     1      35.002 -16.838 -20.716  0.00  0.00    +0.002 C 
ATOM      7  C   UNL     1      35.627 -19.318 -21.118  0.00  0.00    +0.147 C 
ATOM      8  C   UNL     1      34.891 -19.406 -23.469  0.00  0.00    +0.003 C 
ATOM      9  C   UNL     1      34.226 -15.653 -21.318  0.00  0.00    +0.000 C 
ATOM     10  C   UNL     1      33.468 -14.407 -23.454  0.00  0.00    +0.019 C 
ATOM     11  C   UNL     1      35.465 -20.264 -22.325  0.00  0.00    +0.032 C 
ATOM     12  C   UNL     1      34.331 -16.772 -25.072  0.00  0.00    +0.004 C 
ATOM     13  C   UNL     1      33.205 -18.562 -21.082  0.00  0.00    +0.002 C 
ATOM     14  C   UNL     1      33.434 -15.700 -25.680  0.00  0.00    +0.022 C 
ATOM     15  C   UNL     1      33.564 -14.373 -24.974  0.00  0.00    -0.042 C 
ATOM     16  C   UNL     1      33.842 -13.047 -22.827  0.00  0.00    +0.012 C 
ATOM     17  C   UNL     1      33.251 -11.872 -23.584  0.00  0.00    +0.069 C 
ATOM     18  C   UNL     1      33.711 -13.247 -25.690  0.00  0.00    +0.029 C 
ATOM     19  C   UNL     1      33.673 -11.922 -25.030  0.00  0.00    +0.173 C 
ENDROOT
BRANCH   7  20
ATOM     20  O   UNL     1      35.339 -19.973 -19.898  0.00  0.00    -0.203 OA
BRANCH  20  21
ATOM     21  S   UNL     1      36.194 -21.299 -19.458  0.00  0.00    +0.239 S 
ATOM     22  O   UNL     1      36.728 -20.929 -17.962  0.00  0.00    -0.022 OA
ATOM     23  O   UNL     1      35.261 -22.404 -19.328  0.00  0.00    -0.116 OA
ATOM     24  O   UNL     1      37.349 -21.419 -20.328  0.00  0.00    -0.116 OA
ENDBRANCH  20  21
ENDBRANCH   7  20
TORSDOF 2
ENDMDL
MODEL 5
REMARK VINA RESULT:      -8.8      5.196      7.489
REMARK  Name = 3085201
REMARK  2 active torsions:
REMARK  status: ('A' for Active; 'I' for Inactive)
REMARK    1  A    between atoms: C_7  and  O_20
REMARK    2  A    between atoms: O_20  and  S_21
REMARK                            x       y       z     vdW  Elec       q    Type
REMARK                         _______ _______ _______ _____ _____    ______ ____
ROOT
ATOM      1  O   UNL     1      36.334 -24.332 -11.740  0.00  0.00    -0.291 OA
ATOM      2  C   UNL     1      34.118 -21.561 -18.534  0.00  0.00    +0.002 C 
ATOM      3  C   UNL     1      35.251 -21.300 -19.545  0.00  0.00    +0.027 C 
ATOM      4  C   UNL     1      34.430 -22.727 -17.594  0.00  0.00    +0.001 C 
ATOM      5  C   UNL     1      35.722 -22.391 -16.792  0.00  0.00    +0.004 C 
ATOM      6  C   UNL     1      36.508 -20.906 -18.760  0.00  0.00    +0.002 C 
ATOM      7  C   UNL     1      34.607 -20.155 -20.351  0.00  0.00    +0.147 C 
ATOM      8  C   UNL     1      32.868 -21.624 -19.408  0.00  0.00    +0.003 C 
ATOM      9  C   UNL     1      36.892 -21.978 -17.725  0.00  0.00    +0.000 C 
ATOM     10  C   UNL     1      36.108 -23.558 -15.833  0.00  0.00    +0.019 C 
ATOM     11  C   UNL     1      33.141 -20.598 -20.523  0.00  0.00    +0.032 C 
ATOM     12  C   UNL     1      33.275 -23.010 -16.626  0.00  0.00    +0.004 C 
ATOM     13  C   UNL     1      35.579 -22.496 -20.475  0.00  0.00    +0.002 C 
ATOM     14  C   UNL     1      33.613 -24.183 -15.713  0.00  0.00    +0.022 C 
ATOM     15  C   UNL     1      34.918 -23.986 -14.983  0.00  0.00    -0.042 C 
ATOM     16  C   UNL     1      37.320 -23.164 -14.963  0.00  0.00    +0.012 C 
ATOM     17  C   UNL     1      37.539 -24.115 -13.801  0.00  0.00    +0.069 C 
ATOM     18  C   UNL     1      34.989 -24.228 -13.665  0.00  0.00    +0.029 C 
ATOM     19  C   UNL     1      36.291 -24.203 -12.961  0.00  0.00    +0.173 C 
ENDROOT
BRANCH   7  20
ATOM     20  O   UNL     1      35.238 -19.932 -21.597  0.00  0.00    -0.203 OA
BRANCH  20  21
ATOM     21  S   UNL     1      35.936 -18.485 -21.914  0.00  0.00    +0.239 S 
ATOM     22  O   UNL     1      35.433 -17.541 -20.683  0.00  0.00    -0.022 OA
ATOM     23  O   UNL     1      37.372 -18.648 -21.780  0.00  0.00    -0.116 OA
ATOM     24  O   UNL     1      35.374 -17.955 -23.143  0.00  0.00    -0.116 OA
ENDBRANCH  20  21
ENDBRANCH   7  20
TORSDOF 2
ENDMDL
MODEL 6
REMARK VINA RESULT:      -8.7      3.782      5.835
REMARK  Name = 3085201
REMARK  2 active torsions:
REMARK  status: ('A' for Active; 'I' for Inactive)
REMARK    1  A    between atoms: C_7  and  O_20
REMARK    2  A    between atoms: O_20  and  S_21
REMARK                            x       y       z     vdW  Elec       q    Type
REMARK                         _______ _______ _______ _____ _____    ______ ____
ROOT
ATOM      1  O   UNL     1      35.179 -19.156 -23.383  0.00  0.00    -0.291 OA
ATOM      2  C   UNL     1      35.101 -23.365 -16.977  0.00  0.00    +0.002 C 
ATOM      3  C   UNL     1      36.250 -23.088 -15.988  0.00  0.00    +0.027 C 
ATOM      4  C   UNL     1      34.704 -22.121 -17.775  0.00  0.00    +0.001 C 
ATOM      5  C   UNL     1      35.937 -21.636 -18.593  0.00  0.00    +0.004 C 
ATOM      6  C   UNL     1      37.485 -22.672 -16.797  0.00  0.00    +0.002 C 
ATOM      7  C   UNL     1      36.349 -24.476 -15.327  0.00  0.00    +0.147 C 
ATOM      8  C   UNL     1      34.052 -24.065 -16.118  0.00  0.00    +0.003 C 
ATOM      9  C   UNL     1      37.192 -21.459 -17.698  0.00  0.00    +0.000 C 
ATOM     10  C   UNL     1      35.599 -20.350 -19.408  0.00  0.00    +0.019 C 
ATOM     11  C   UNL     1      34.881 -24.899 -15.123  0.00  0.00    +0.032 C 
ATOM     12  C   UNL     1      33.527 -22.396 -18.719  0.00  0.00    +0.004 C 
ATOM     13  C   UNL     1      35.943 -22.004 -14.924  0.00  0.00    +0.002 C 
ATOM     14  C   UNL     1      33.148 -21.135 -19.487  0.00  0.00    +0.022 C 
ATOM     15  C   UNL     1      34.323 -20.534 -20.218  0.00  0.00    -0.042 C 
ATOM     16  C   UNL     1      36.792 -19.949 -20.301  0.00  0.00    +0.012 C 
ATOM     17  C   UNL     1      36.417 -18.913 -21.345  0.00  0.00    +0.069 C 
ATOM     18  C   UNL     1      34.189 -20.157 -21.500  0.00  0.00    +0.029 C 
ATOM     19  C   UNL     1      35.271 -19.414 -22.186  0.00  0.00    +0.173 C 
ENDROOT
BRANCH   7  20
ATOM     20  O   UNL     1      37.063 -24.457 -14.106  0.00  0.00    -0.203 OA
BRANCH  20  21
ATOM     21  S   UNL     1      38.414 -25.369 -13.933  0.00  0.00    +0.239 S 
ATOM     22  O   UNL     1      38.216 -26.555 -15.035  0.00  0.00    -0.022 OA
ATOM     23  O   UNL     1      39.547 -24.565 -14.354  0.00  0.00    -0.116 OA
ATOM     24  O   UNL     1      38.401 -25.977 -12.615  0.00  0.00    -0.116 OA
ENDBRANCH  20  21
ENDBRANCH   7  20
TORSDOF 2
ENDMDL
MODEL 7
REMARK VINA RESULT:      -8.7      9.886     11.413
REMARK  Name = 3085201
REMARK  2 active torsions:
REMARK  status: ('A' for Active; 'I' for Inactive)
REMARK    1  A    between atoms: C_7  and  O_20
REMARK    2  A    between atoms: O_20  and  S_21
REMARK                            x       y       z     vdW  Elec       q    Type
REMARK                         _______ _______ _______ _____ _____    ______ ____
ROOT
ATOM      1  O   UNL     1      31.851  -9.046 -22.245  0.00  0.00    -0.291 OA
ATOM      2  C   UNL     1      34.691 -16.163 -22.451  0.00  0.00    +0.002 C 
ATOM      3  C   UNL     1      34.370 -17.040 -21.226  0.00  0.00    +0.027 C 
ATOM      4  C   UNL     1      33.587 -15.146 -22.748  0.00  0.00    +0.001 C 
ATOM      5  C   UNL     1      33.425 -14.209 -21.514  0.00  0.00    +0.004 C 
ATOM      6  C   UNL     1      34.275 -16.126 -19.998  0.00  0.00    +0.002 C 
ATOM      7  C   UNL     1      35.604 -17.962 -21.250  0.00  0.00    +0.147 C 
ATOM      8  C   UNL     1      35.076 -17.177 -23.526  0.00  0.00    +0.003 C 
ATOM      9  C   UNL     1      33.234 -15.011 -20.199  0.00  0.00    +0.000 C 
ATOM     10  C   UNL     1      32.291 -13.165 -21.746  0.00  0.00    +0.019 C 
ATOM     11  C   UNL     1      35.796 -18.292 -22.744  0.00  0.00    +0.032 C 
ATOM     12  C   UNL     1      33.893 -14.313 -23.998  0.00  0.00    +0.004 C 
ATOM     13  C   UNL     1      33.070 -17.876 -21.349  0.00  0.00    +0.002 C 
ATOM     14  C   UNL     1      32.769 -13.320 -24.272  0.00  0.00    +0.022 C 
ATOM     15  C   UNL     1      32.471 -12.447 -23.078  0.00  0.00    -0.042 C 
ATOM     16  C   UNL     1      32.222 -12.172 -20.566  0.00  0.00    +0.012 C 
ATOM     17  C   UNL     1      31.371 -10.955 -20.877  0.00  0.00    +0.069 C 
ATOM     18  C   UNL     1      32.337 -11.121 -23.238  0.00  0.00    +0.029 C 
ATOM     19  C   UNL     1      31.881 -10.267 -22.117  0.00  0.00    +0.173 C 
ENDROOT
BRANCH   7  20
ATOM     20  O   UNL     1      35.437 -19.132 -20.472  0.00  0.00    -0.203 OA
BRANCH  20  21
ATOM     21  S   UNL     1      36.687 -20.173 -20.279  0.00  0.00    +0.239 S 
ATOM     22  O   UNL     1      36.852 -20.272 -18.659  0.00  0.00    -0.022 OA
ATOM     23  O   UNL     1      36.257 -21.475 -20.755  0.00  0.00    -0.116 OA
ATOM     24  O   UNL     1      37.890 -19.561 -20.813  0.00  0.00    -0.116 OA
ENDBRANCH  20  21
ENDBRANCH   7  20
TORSDOF 2
ENDMDL
MODEL 8
REMARK VINA RESULT:      -8.6     15.422     17.434
REMARK  Name = 3085201
REMARK  2 active torsions:
REMARK  status: ('A' for Active; 'I' for Inactive)
REMARK    1  A    between atoms: C_7  and  O_20
REMARK    2  A    between atoms: O_20  and  S_21
REMARK                            x       y       z     vdW  Elec       q    Type
REMARK                         _______ _______ _______ _____ _____    ______ ____
ROOT
ATOM      1  O   UNL     1      33.809 -15.921 -21.486  0.00  0.00    -0.291 OA
ATOM      2  C   UNL     1      32.300  -8.406 -21.599  0.00  0.00    +0.002 C 
ATOM      3  C   UNL     1      32.165  -7.778 -23.000  0.00  0.00    +0.027 C 
ATOM      4  C   UNL     1      31.851  -9.868 -21.568  0.00  0.00    +0.001 C 
ATOM      5  C   UNL     1      32.740 -10.687 -22.550  0.00  0.00    +0.004 C 
ATOM      6  C   UNL     1      33.089  -8.543 -23.955  0.00  0.00    +0.002 C 
ATOM      7  C   UNL     1      32.618  -6.342 -22.674  0.00  0.00    +0.147 C 
ATOM      8  C   UNL     1      31.610  -7.395 -20.687  0.00  0.00    +0.003 C 
ATOM      9  C   UNL     1      32.777 -10.050 -23.965  0.00  0.00    +0.000 C 
ATOM     10  C   UNL     1      32.309 -12.185 -22.582  0.00  0.00    +0.019 C 
ATOM     11  C   UNL     1      31.939  -6.033 -21.325  0.00  0.00    +0.032 C 
ATOM     12  C   UNL     1      31.943 -10.467 -20.159  0.00  0.00    +0.004 C 
ATOM     13  C   UNL     1      30.724  -7.773 -23.571  0.00  0.00    +0.002 C 
ATOM     14  C   UNL     1      31.476 -11.918 -20.160  0.00  0.00    +0.022 C 
ATOM     15  C   UNL     1      32.213 -12.758 -21.174  0.00  0.00    -0.042 C 
ATOM     16  C   UNL     1      33.270 -13.004 -23.469  0.00  0.00    +0.012 C 
ATOM     17  C   UNL     1      33.103 -14.501 -23.284  0.00  0.00    +0.069 C 
ATOM     18  C   UNL     1      32.702 -13.957 -20.819  0.00  0.00    +0.029 C 
ATOM     19  C   UNL     1      33.279 -14.868 -21.833  0.00  0.00    +0.173 C 
ENDROOT
BRANCH   7  20
ATOM     20  O   UNL     1      32.254  -5.407 -23.671  0.00  0.00    -0.203 OA
BRANCH  20  21
ATOM     21  S   UNL     1      31.199  -4.204 -23.319  0.00  0.00    +0.239 S 
ATOM     22  O   UNL     1      30.453  -3.924 -24.742  0.00  0.00    -0.022 OA
ATOM     23  O   UNL     1      30.207  -4.739 -22.404  0.00  0.00    -0.116 OA
ATOM     24  O   UNL     1      31.950  -3.014 -22.967  0.00  0.00    -0.116 OA
ENDBRANCH  20  21
ENDBRANCH   7  20
TORSDOF 2
ENDMDL
MODEL 9
REMARK VINA RESULT:      -8.5      4.605      6.971
REMARK  Name = 3085201
REMARK  2 active torsions:
REMARK  status: ('A' for Active; 'I' for Inactive)
REMARK    1  A    between atoms: C_7  and  O_20
REMARK    2  A    between atoms: O_20  and  S_21
REMARK                            x       y       z     vdW  Elec       q    Type
REMARK                         _______ _______ _______ _____ _____    ______ ____
ROOT
ATOM      1  O   UNL     1      35.757 -17.320 -22.685  0.00  0.00    -0.291 OA
ATOM      2  C   UNL     1      34.899 -22.427 -17.033  0.00  0.00    +0.002 C 
ATOM      3  C   UNL     1      33.582 -23.226 -17.057  0.00  0.00    +0.027 C 
ATOM      4  C   UNL     1      35.373 -22.038 -18.436  0.00  0.00    +0.001 C 
ATOM      5  C   UNL     1      34.282 -21.151 -19.104  0.00  0.00    +0.004 C 
ATOM      6  C   UNL     1      32.492 -22.330 -17.656  0.00  0.00    +0.002 C 
ATOM      7  C   UNL     1      33.432 -23.504 -15.549  0.00  0.00    +0.147 C 
ATOM      8  C   UNL     1      35.812 -23.269 -16.146  0.00  0.00    +0.003 C 
ATOM      9  C   UNL     1      32.882 -21.816 -19.054  0.00  0.00    +0.000 C 
ATOM     10  C   UNL     1      34.698 -20.745 -20.551  0.00  0.00    +0.019 C 
ATOM     11  C   UNL     1      34.860 -23.864 -15.091  0.00  0.00    +0.032 C 
ATOM     12  C   UNL     1      36.709 -21.287 -18.403  0.00  0.00    +0.004 C 
ATOM     13  C   UNL     1      33.646 -24.558 -17.847  0.00  0.00    +0.002 C 
ATOM     14  C   UNL     1      37.159 -20.927 -19.814  0.00  0.00    +0.022 C 
ATOM     15  C   UNL     1      36.105 -20.161 -20.575  0.00  0.00    -0.042 C 
ATOM     16  C   UNL     1      33.664 -19.772 -21.157  0.00  0.00    +0.012 C 
ATOM     17  C   UNL     1      34.169 -19.095 -22.418  0.00  0.00    +0.069 C 
ATOM     18  C   UNL     1      36.445 -19.055 -21.255  0.00  0.00    +0.029 C 
ATOM     19  C   UNL     1      35.467 -18.382 -22.141  0.00  0.00    +0.173 C 
ENDROOT
BRANCH   7  20
ATOM     20  O   UNL     1      32.514 -24.542 -15.266  0.00  0.00    -0.203 OA
BRANCH  20  21
ATOM     21  S   UNL     1      31.069 -24.192 -14.578  0.00  0.00    +0.239 S 
ATOM     22  O   UNL     1      31.199 -24.819 -13.078  0.00  0.00    -0.022 OA
ATOM     23  O   UNL     1      30.982 -22.749 -14.442  0.00  0.00    -0.116 OA
ATOM     24  O   UNL     1      30.029 -24.923 -15.279  0.00  0.00    -0.116 OA
ENDBRANCH  20  21
ENDBRANCH   7  20
TORSDOF 2
ENDMDL
