MODEL 1
REMARK VINA RESULT:      -7.6      0.000      0.000
REMARK  Name = 5386
REMARK  1 active torsions:
REMARK  status: ('A' for Active; 'I' for Inactive)
REMARK    1  A    between atoms: N_4  and  C_12
REMARK                            x       y       z     vdW  Elec       q    Type
REMARK                         _______ _______ _______ _____ _____    ______ ____
ROOT
ATOM      1  F   UNL     1      34.527 -19.363 -25.581  0.00  0.00    -0.198 F 
ATOM      2  O   UNL     1      34.960 -16.189 -21.223  0.00  0.00    -0.252 OA
ATOM      3  O   UNL     1      34.855 -16.674 -25.812  0.00  0.00    -0.267 OA
ATOM      4  N   UNL     1      34.689 -18.330 -22.118  0.00  0.00    -0.216 N 
ATOM      5  N   UNL     1      34.909 -16.432 -23.507  0.00  0.00    -0.234 N 
ATOM      6  C   UNL     1      34.859 -16.938 -22.199  0.00  0.00    +0.316 C 
ATOM      7  C   UNL     1      34.581 -19.114 -23.249  0.00  0.00    +0.105 C 
ATOM      8  C   UNL     1      34.632 -18.602 -24.477  0.00  0.00    +0.208 C 
ATOM      9  C   UNL     1      34.808 -17.157 -24.686  0.00  0.00    +0.282 C 
ATOM     10  H   UNL     1      35.028 -15.458 -23.599  0.00  0.00    +0.159 HD
ENDROOT
BRANCH   4  12
ATOM     11  O   UNL     1      33.273 -19.410 -20.595  0.00  0.00    -0.337 OA
ATOM     12  C   UNL     1      34.621 -18.983 -20.844  0.00  0.00    +0.199 C 
ATOM     13  C   UNL     1      35.497 -20.221 -20.766  0.00  0.00    +0.054 C 
ATOM     14  C   UNL     1      34.738 -21.078 -19.786  0.00  0.00    +0.036 C 
ATOM     15  C   UNL     1      33.303 -20.776 -20.158  0.00  0.00    +0.144 C 
ENDBRANCH   4  12
TORSDOF 1
ENDMDL
MODEL 2
REMARK VINA RESULT:      -7.5      2.284      2.940
REMARK  Name = 5386
REMARK  1 active torsions:
REMARK  status: ('A' for Active; 'I' for Inactive)
REMARK    1  A    between atoms: N_4  and  C_12
REMARK                            x       y       z     vdW  Elec       q    Type
REMARK                         _______ _______ _______ _____ _____    ______ ____
ROOT
ATOM      1  F   UNL     1      34.580 -15.226 -20.506  0.00  0.00    -0.198 F 
ATOM      2  O   UNL     1      34.668 -19.039 -24.340  0.00  0.00    -0.252 OA
ATOM      3  O   UNL     1      34.889 -14.590 -23.131  0.00  0.00    -0.267 OA
ATOM      4  N   UNL     1      34.485 -18.482 -22.079  0.00  0.00    -0.216 N 
ATOM      5  N   UNL     1      34.777 -16.825 -23.738  0.00  0.00    -0.234 N 
ATOM      6  C   UNL     1      34.644 -18.191 -23.444  0.00  0.00    +0.316 C 
ATOM      7  C   UNL     1      34.468 -17.487 -21.123  0.00  0.00    +0.105 C 
ATOM      8  C   UNL     1      34.597 -16.199 -21.435  0.00  0.00    +0.208 C 
ATOM      9  C   UNL     1      34.768 -15.773 -22.832  0.00  0.00    +0.282 C 
ATOM     10  H   UNL     1      34.889 -16.587 -24.687  0.00  0.00    +0.159 HD
ENDROOT
BRANCH   4  12
ATOM     11  O   UNL     1      35.561 -20.278 -21.027  0.00  0.00    -0.337 OA
ATOM     12  C   UNL     1      34.338 -19.836 -21.635  0.00  0.00    +0.199 C 
ATOM     13  C   UNL     1      33.245 -20.002 -20.595  0.00  0.00    +0.054 C 
ATOM     14  C   UNL     1      33.757 -21.166 -19.787  0.00  0.00    +0.036 C 
ATOM     15  C   UNL     1      35.247 -20.901 -19.774  0.00  0.00    +0.144 C 
ENDBRANCH   4  12
TORSDOF 1
ENDMDL
MODEL 3
REMARK VINA RESULT:      -7.3      2.757      5.255
REMARK  Name = 5386
REMARK  1 active torsions:
REMARK  status: ('A' for Active; 'I' for Inactive)
REMARK    1  A    between atoms: N_4  and  C_12
REMARK                            x       y       z     vdW  Elec       q    Type
REMARK                         _______ _______ _______ _____ _____    ______ ____
ROOT
ATOM      1  F   UNL     1      37.193 -21.547 -19.542  0.00  0.00    -0.198 F 
ATOM      2  O   UNL     1      32.087 -20.101 -20.584  0.00  0.00    -0.252 OA
ATOM      3  O   UNL     1      35.095 -22.786 -18.338  0.00  0.00    -0.267 OA
ATOM      4  N   UNL     1      34.370 -19.792 -20.971  0.00  0.00    -0.216 N 
ATOM      5  N   UNL     1      33.584 -21.437 -19.467  0.00  0.00    -0.234 N 
ATOM      6  C   UNL     1      33.261 -20.409 -20.367  0.00  0.00    +0.316 C 
ATOM      7  C   UNL     1      35.662 -20.183 -20.684  0.00  0.00    +0.105 C 
ATOM      8  C   UNL     1      35.935 -21.163 -19.824  0.00  0.00    +0.208 C 
ATOM      9  C   UNL     1      34.855 -21.883 -19.132  0.00  0.00    +0.282 C 
ATOM     10  H   UNL     1      32.829 -21.891 -19.027  0.00  0.00    +0.159 HD
ENDROOT
BRANCH   4  12
ATOM     11  O   UNL     1      34.074 -17.480 -21.208  0.00  0.00    -0.337 OA
ATOM     12  C   UNL     1      34.188 -18.726 -21.911  0.00  0.00    +0.199 C 
ATOM     13  C   UNL     1      35.352 -18.583 -22.874  0.00  0.00    +0.054 C 
ATOM     14  C   UNL     1      35.328 -17.106 -23.174  0.00  0.00    +0.036 C 
ATOM     15  C   UNL     1      34.943 -16.526 -21.831  0.00  0.00    +0.144 C 
ENDBRANCH   4  12
TORSDOF 1
ENDMDL
MODEL 4
REMARK VINA RESULT:      -7.3      2.509      3.426
REMARK  Name = 5386
REMARK  1 active torsions:
REMARK  status: ('A' for Active; 'I' for Inactive)
REMARK    1  A    between atoms: N_4  and  C_12
REMARK                            x       y       z     vdW  Elec       q    Type
REMARK                         _______ _______ _______ _____ _____    ______ ____
ROOT
ATOM      1  F   UNL     1      34.012 -14.035 -21.814  0.00  0.00    -0.198 F 
ATOM      2  O   UNL     1      34.530 -17.868 -25.593  0.00  0.00    -0.252 OA
ATOM      3  O   UNL     1      33.352 -13.565 -24.408  0.00  0.00    -0.267 OA
ATOM      4  N   UNL     1      34.752 -17.220 -23.360  0.00  0.00    -0.216 N 
ATOM      5  N   UNL     1      33.943 -15.727 -25.003  0.00  0.00    -0.234 N 
ATOM      6  C   UNL     1      34.422 -17.014 -24.710  0.00  0.00    +0.316 C 
ATOM      7  C   UNL     1      34.610 -16.222 -22.418  0.00  0.00    +0.105 C 
ATOM      8  C   UNL     1      34.153 -15.011 -22.729  0.00  0.00    +0.208 C 
ATOM      9  C   UNL     1      33.774 -14.677 -24.110  0.00  0.00    +0.282 C 
ATOM     10  H   UNL     1      33.702 -15.550 -25.941  0.00  0.00    +0.159 HD
ENDROOT
BRANCH   4  12
ATOM     11  O   UNL     1      36.489 -18.296 -22.213  0.00  0.00    -0.337 OA
ATOM     12  C   UNL     1      35.254 -18.488 -22.918  0.00  0.00    +0.199 C 
ATOM     13  C   UNL     1      34.309 -19.198 -21.966  0.00  0.00    +0.054 C 
ATOM     14  C   UNL     1      35.266 -19.989 -21.111  0.00  0.00    +0.036 C 
ATOM     15  C   UNL     1      36.430 -19.032 -20.984  0.00  0.00    +0.144 C 
ENDBRANCH   4  12
TORSDOF 1
ENDMDL
MODEL 5
REMARK VINA RESULT:      -7.3      8.436     10.177
REMARK  Name = 5386
REMARK  1 active torsions:
REMARK  status: ('A' for Active; 'I' for Inactive)
REMARK    1  A    between atoms: N_4  and  C_12
REMARK                            x       y       z     vdW  Elec       q    Type
REMARK                         _______ _______ _______ _____ _____    ______ ____
ROOT
ATOM      1  F   UNL     1      36.791 -27.490 -14.431  0.00  0.00    -0.198 F 
ATOM      2  O   UNL     1      37.774 -22.335 -15.739  0.00  0.00    -0.252 OA
ATOM      3  O   UNL     1      39.328 -26.529 -14.598  0.00  0.00    -0.267 OA
ATOM      4  N   UNL     1      36.223 -24.036 -15.346  0.00  0.00    -0.216 N 
ATOM      5  N   UNL     1      38.547 -24.422 -15.170  0.00  0.00    -0.234 N 
ATOM      6  C   UNL     1      37.520 -23.505 -15.442  0.00  0.00    +0.316 C 
ATOM      7  C   UNL     1      36.003 -25.357 -15.010  0.00  0.00    +0.105 C 
ATOM      8  C   UNL     1      37.001 -26.202 -14.758  0.00  0.00    +0.208 C 
ATOM      9  C   UNL     1      38.402 -25.759 -14.827  0.00  0.00    +0.282 C 
ATOM     10  H   UNL     1      39.469 -24.081 -15.228  0.00  0.00    +0.159 HD
ENDROOT
BRANCH   4  12
ATOM     11  O   UNL     1      34.862 -23.109 -17.012  0.00  0.00    -0.337 OA
ATOM     12  C   UNL     1      35.077 -23.212 -15.597  0.00  0.00    +0.199 C 
ATOM     13  C   UNL     1      33.802 -23.774 -14.997  0.00  0.00    +0.054 C 
ATOM     14  C   UNL     1      32.756 -23.262 -15.954  0.00  0.00    +0.036 C 
ATOM     15  C   UNL     1      33.476 -23.362 -17.281  0.00  0.00    +0.144 C 
ENDBRANCH   4  12
TORSDOF 1
ENDMDL
MODEL 6
REMARK VINA RESULT:      -7.2      2.441      4.895
REMARK  Name = 5386
REMARK  1 active torsions:
REMARK  status: ('A' for Active; 'I' for Inactive)
REMARK    1  A    between atoms: N_4  and  C_12
REMARK                            x       y       z     vdW  Elec       q    Type
REMARK                         _______ _______ _______ _____ _____    ______ ____
ROOT
ATOM      1  F   UNL     1      32.421 -20.521 -20.504  0.00  0.00    -0.198 F 
ATOM      2  O   UNL     1      37.652 -19.208 -20.908  0.00  0.00    -0.252 OA
ATOM      3  O   UNL     1      34.324 -21.818 -19.060  0.00  0.00    -0.267 OA
ATOM      4  N   UNL     1      35.441 -18.837 -21.566  0.00  0.00    -0.216 N 
ATOM      5  N   UNL     1      35.995 -20.506 -19.988  0.00  0.00    -0.234 N 
ATOM      6  C   UNL     1      36.452 -19.485 -20.836  0.00  0.00    +0.316 C 
ATOM      7  C   UNL     1      34.114 -19.195 -21.442  0.00  0.00    +0.105 C 
ATOM      8  C   UNL     1      33.713 -20.169 -20.628  0.00  0.00    +0.208 C 
ATOM      9  C   UNL     1      34.681 -20.918 -19.812  0.00  0.00    +0.282 C 
ATOM     10  H   UNL     1      36.679 -20.980 -19.460  0.00  0.00    +0.159 HD
ENDROOT
BRANCH   4  12
ATOM     11  O   UNL     1      35.507 -18.197 -23.819  0.00  0.00    -0.337 OA
ATOM     12  C   UNL     1      35.764 -17.774 -22.471  0.00  0.00    +0.199 C 
ATOM     13  C   UNL     1      34.935 -16.525 -22.237  0.00  0.00    +0.054 C 
ATOM     14  C   UNL     1      34.865 -15.933 -23.621  0.00  0.00    +0.036 C 
ATOM     15  C   UNL     1      34.754 -17.172 -24.481  0.00  0.00    +0.144 C 
ENDBRANCH   4  12
TORSDOF 1
ENDMDL
MODEL 7
REMARK VINA RESULT:      -7.1      2.119      4.645
REMARK  Name = 5386
REMARK  1 active torsions:
REMARK  status: ('A' for Active; 'I' for Inactive)
REMARK    1  A    between atoms: N_4  and  C_12
REMARK                            x       y       z     vdW  Elec       q    Type
REMARK                         _______ _______ _______ _____ _____    ______ ____
ROOT
ATOM      1  F   UNL     1      34.966 -19.763 -23.791  0.00  0.00    -0.198 F 
ATOM      2  O   UNL     1      34.973 -15.713 -20.207  0.00  0.00    -0.252 OA
ATOM      3  O   UNL     1      35.492 -20.199 -21.160  0.00  0.00    -0.267 OA
ATOM      4  N   UNL     1      34.696 -16.429 -22.413  0.00  0.00    -0.216 N 
ATOM      5  N   UNL     1      35.230 -17.946 -20.682  0.00  0.00    -0.234 N 
ATOM      6  C   UNL     1      34.963 -16.616 -21.047  0.00  0.00    +0.316 C 
ATOM      7  C   UNL     1      34.702 -17.483 -23.304  0.00  0.00    +0.105 C 
ATOM      8  C   UNL     1      34.959 -18.733 -22.926  0.00  0.00    +0.208 C 
ATOM      9  C   UNL     1      35.253 -19.052 -21.520  0.00  0.00    +0.282 C 
ATOM     10  H   UNL     1      35.421 -18.111 -19.730  0.00  0.00    +0.159 HD
ENDROOT
BRANCH   4  12
ATOM     11  O   UNL     1      34.433 -15.155 -24.362  0.00  0.00    -0.337 OA
ATOM     12  C   UNL     1      34.406 -15.123 -22.927  0.00  0.00    +0.199 C 
ATOM     13  C   UNL     1      33.033 -14.619 -22.523  0.00  0.00    +0.054 C 
ATOM     14  C   UNL     1      32.671 -13.733 -23.686  0.00  0.00    +0.036 C 
ATOM     15  C   UNL     1      33.255 -14.502 -24.852  0.00  0.00    +0.144 C 
ENDBRANCH   4  12
TORSDOF 1
ENDMDL
MODEL 8
REMARK VINA RESULT:      -7.1      2.663      4.665
REMARK  Name = 5386
REMARK  1 active torsions:
REMARK  status: ('A' for Active; 'I' for Inactive)
REMARK    1  A    between atoms: N_4  and  C_12
REMARK                            x       y       z     vdW  Elec       q    Type
REMARK                         _______ _______ _______ _____ _____    ______ ____
ROOT
ATOM      1  F   UNL     1      34.470 -17.638 -25.539  0.00  0.00    -0.198 F 
ATOM      2  O   UNL     1      35.060 -16.371 -20.314  0.00  0.00    -0.252 OA
ATOM      3  O   UNL     1      35.445 -19.434 -23.746  0.00  0.00    -0.267 OA
ATOM      4  N   UNL     1      34.414 -15.730 -22.466  0.00  0.00    -0.216 N 
ATOM      5  N   UNL     1      35.250 -17.895 -22.022  0.00  0.00    -0.234 N 
ATOM      6  C   UNL     1      34.914 -16.632 -21.511  0.00  0.00    +0.316 C 
ATOM      7  C   UNL     1      34.275 -16.082 -23.793  0.00  0.00    +0.105 C 
ATOM      8  C   UNL     1      34.604 -17.290 -24.246  0.00  0.00    +0.208 C 
ATOM      9  C   UNL     1      35.138 -18.318 -23.340  0.00  0.00    +0.282 C 
ATOM     10  H   UNL     1      35.604 -18.551 -21.379  0.00  0.00    +0.159 HD
ENDROOT
BRANCH   4  12
ATOM     11  O   UNL     1      34.163 -13.523 -23.209  0.00  0.00    -0.337 OA
ATOM     12  C   UNL     1      34.030 -14.403 -22.084  0.00  0.00    +0.199 C 
ATOM     13  C   UNL     1      32.587 -14.315 -21.623  0.00  0.00    +0.054 C 
ATOM     14  C   UNL     1      32.221 -12.906 -22.014  0.00  0.00    +0.036 C 
ATOM     15  C   UNL     1      32.963 -12.747 -23.324  0.00  0.00    +0.144 C 
ENDBRANCH   4  12
TORSDOF 1
ENDMDL
MODEL 9
REMARK VINA RESULT:      -7.0      2.276      2.634
REMARK  Name = 5386
REMARK  1 active torsions:
REMARK  status: ('A' for Active; 'I' for Inactive)
REMARK    1  A    between atoms: N_4  and  C_12
REMARK                            x       y       z     vdW  Elec       q    Type
REMARK                         _______ _______ _______ _____ _____    ______ ____
ROOT
ATOM      1  F   UNL     1      33.753 -15.556 -25.582  0.00  0.00    -0.198 F 
ATOM      2  O   UNL     1      34.907 -14.810 -20.351  0.00  0.00    -0.252 OA
ATOM      3  O   UNL     1      33.742 -13.077 -24.467  0.00  0.00    -0.267 OA
ATOM      4  N   UNL     1      34.646 -16.276 -22.151  0.00  0.00    -0.216 N 
ATOM      5  N   UNL     1      34.328 -13.948 -22.400  0.00  0.00    -0.234 N 
ATOM      6  C   UNL     1      34.649 -15.011 -21.541  0.00  0.00    +0.316 C 
ATOM      7  C   UNL     1      34.346 -16.435 -23.489  0.00  0.00    +0.105 C 
ATOM      8  C   UNL     1      34.045 -15.405 -24.277  0.00  0.00    +0.208 C 
ATOM      9  C   UNL     1      34.018 -14.032 -23.750  0.00  0.00    +0.282 C 
ATOM     10  H   UNL     1      34.322 -13.047 -22.003  0.00  0.00    +0.159 HD
ENDROOT
BRANCH   4  12
ATOM     11  O   UNL     1      33.740 -18.054 -20.922  0.00  0.00    -0.337 OA
ATOM     12  C   UNL     1      34.955 -17.452 -21.393  0.00  0.00    +0.199 C 
ATOM     13  C   UNL     1      35.683 -18.506 -22.206  0.00  0.00    +0.054 C 
ATOM     14  C   UNL     1      35.227 -19.781 -21.543  0.00  0.00    +0.036 C 
ATOM     15  C   UNL     1      33.787 -19.457 -21.211  0.00  0.00    +0.144 C 
ENDBRANCH   4  12
TORSDOF 1
ENDMDL
