MODEL 1
REMARK VINA RESULT:      -9.9      0.000      0.000
REMARK  Name = 213043
REMARK  5 active torsions:
REMARK  status: ('A' for Active; 'I' for Inactive)
REMARK    1  A    between atoms: C_2  and  C_11
REMARK    2  A    between atoms: C_7  and  C_18
REMARK    3  A    between atoms: C_8  and  O_14
REMARK    4  A    between atoms: C_10  and  O_16
REMARK    5  A    between atoms: C_18  and  C_23
REMARK                            x       y       z     vdW  Elec       q    Type
REMARK                         _______ _______ _______ _____ _____    ______ ____
ROOT
ATOM      1  O   UNL     1      31.167 -22.677 -16.776  0.00  0.00    -0.471 OA
ATOM      2  C   UNL     1      30.316 -23.058 -15.675  0.00  0.00    +0.117 C 
ATOM      3  C   UNL     1      31.006 -23.243 -14.347  0.00  0.00    +0.032 C 
ATOM      4  C   UNL     1      32.519 -22.824 -16.637  0.00  0.00    +0.246 C 
ATOM      5  C   UNL     1      32.334 -23.269 -14.219  0.00  0.00    +0.002 C 
ATOM      6  C   UNL     1      33.140 -23.111 -15.418  0.00  0.00    +0.021 C 
ATOM      7  C   UNL     1      34.534 -23.225 -15.364  0.00  0.00    -0.015 C 
ATOM      8  C   UNL     1      33.286 -22.643 -17.790  0.00  0.00    +0.194 C 
ATOM      9  C   UNL     1      35.298 -23.052 -16.519  0.00  0.00    +0.036 C 
ATOM     10  C   UNL     1      34.674 -22.760 -17.732  0.00  0.00    +0.172 C 
ENDROOT
BRANCH   2  11
ATOM     11  C   UNL     1      29.509 -24.255 -16.105  0.00  0.00    +0.057 C 
ATOM     12  C   UNL     1      28.771 -25.024 -15.064  0.00  0.00    +0.008 C 
ATOM     13  C   UNL     1      29.988 -25.611 -15.716  0.00  0.00    +0.008 C 
ENDBRANCH   2  11
BRANCH   8  14
ATOM     14  O   UNL     1      32.683 -22.354 -18.979  0.00  0.00    -0.469 OA
ATOM     15  C   UNL     1      32.871 -21.040 -19.497  0.00  0.00    +0.252 C 
ENDBRANCH   8  14
BRANCH  10  16
ATOM     16  O   UNL     1      35.432 -22.590 -18.851  0.00  0.00    -0.469 OA
ATOM     17  C   UNL     1      36.440 -21.582 -18.802  0.00  0.00    +0.253 C 
ENDBRANCH  10  16
BRANCH   7  18
ATOM     18  C   UNL     1      35.260 -23.531 -14.093  0.00  0.00    +0.058 C 
BRANCH  18  23
ATOM     19  N   UNL     1      37.729 -26.263 -14.949  0.00  0.00    -0.323 NA
ATOM     20  N   UNL     1      38.932 -24.323 -14.174  0.00  0.00    -0.170 NA
ATOM     21  N   UNL     1      35.360 -26.230 -15.071  0.00  0.00    -0.332 N 
ATOM     22  N   UNL     1      40.071 -26.270 -14.820  0.00  0.00    -0.293 N 
ATOM     23  C   UNL     1      36.551 -24.296 -14.298  0.00  0.00    +0.047 C 
ATOM     24  C   UNL     1      36.581 -25.578 -14.765  0.00  0.00    +0.188 C 
ATOM     25  C   UNL     1      37.747 -23.698 -14.012  0.00  0.00    +0.112 C 
ATOM     26  C   UNL     1      38.851 -25.585 -14.639  0.00  0.00    +0.143 C 
ATOM     27  H   UNL     1      35.367 -27.155 -15.408  0.00  0.00    +0.145 HD
ATOM     28  H   UNL     1      34.505 -25.758 -14.946  0.00  0.00    +0.145 HD
ATOM     29  H   UNL     1      40.071 -27.195 -15.157  0.00  0.00    +0.155 HD
ATOM     30  H   UNL     1      40.922 -25.823 -14.609  0.00  0.00    +0.155 HD
ENDBRANCH  18  23
ENDBRANCH   7  18
TORSDOF 5
ENDMDL
MODEL 2
REMARK VINA RESULT:      -9.7      3.881      6.881
REMARK  Name = 213043
REMARK  5 active torsions:
REMARK  status: ('A' for Active; 'I' for Inactive)
REMARK    1  A    between atoms: C_2  and  C_11
REMARK    2  A    between atoms: C_7  and  C_18
REMARK    3  A    between atoms: C_8  and  O_14
REMARK    4  A    between atoms: C_10  and  O_16
REMARK    5  A    between atoms: C_18  and  C_23
REMARK                            x       y       z     vdW  Elec       q    Type
REMARK                         _______ _______ _______ _____ _____    ______ ____
ROOT
ATOM      1  O   UNL     1      35.253 -22.870 -14.436  0.00  0.00    -0.471 OA
ATOM      2  C   UNL     1      36.686 -22.806 -14.589  0.00  0.00    +0.117 C 
ATOM      3  C   UNL     1      37.183 -22.490 -15.977  0.00  0.00    +0.032 C 
ATOM      4  C   UNL     1      34.480 -22.968 -15.559  0.00  0.00    +0.246 C 
ATOM      5  C   UNL     1      36.385 -22.479 -17.046  0.00  0.00    +0.002 C 
ATOM      6  C   UNL     1      34.977 -22.786 -16.853  0.00  0.00    +0.021 C 
ATOM      7  C   UNL     1      34.109 -22.884 -17.946  0.00  0.00    -0.015 C 
ATOM      8  C   UNL     1      33.124 -23.236 -15.360  0.00  0.00    +0.194 C 
ATOM      9  C   UNL     1      32.755 -23.160 -17.745  0.00  0.00    +0.036 C 
ATOM     10  C   UNL     1      32.263 -23.336 -16.452  0.00  0.00    +0.172 C 
ENDROOT
BRANCH   2  11
ATOM     11  C   UNL     1      37.271 -24.070 -14.015  0.00  0.00    +0.057 C 
ATOM     12  C   UNL     1      38.399 -24.722 -14.737  0.00  0.00    +0.008 C 
ATOM     13  C   UNL     1      37.037 -25.352 -14.737  0.00  0.00    +0.008 C 
ENDBRANCH   2  11
BRANCH   8  14
ATOM     14  O   UNL     1      32.635 -23.405 -14.098  0.00  0.00    -0.469 OA
ATOM     15  C   UNL     1      32.432 -24.746 -13.658  0.00  0.00    +0.252 C 
ENDBRANCH   8  14
BRANCH  10  16
ATOM     16  O   UNL     1      30.939 -23.601 -16.270  0.00  0.00    -0.469 OA
ATOM     17  C   UNL     1      30.027 -22.527 -16.491  0.00  0.00    +0.253 C 
ENDBRANCH  10  16
BRANCH   7  18
ATOM     18  C   UNL     1      34.576 -22.701 -19.355  0.00  0.00    +0.058 C 
BRANCH  18  23
ATOM     19  N   UNL     1      35.266 -19.229 -20.680  0.00  0.00    -0.323 NA
ATOM     20  N   UNL     1      32.883 -19.555 -20.514  0.00  0.00    -0.170 NA
ATOM     21  N   UNL     1      36.756 -20.964 -20.051  0.00  0.00    -0.332 N 
ATOM     22  N   UNL     1      33.772 -17.529 -21.296  0.00  0.00    -0.293 N 
ATOM     23  C   UNL     1      34.385 -21.295 -19.883  0.00  0.00    +0.047 C 
ATOM     24  C   UNL     1      35.432 -20.483 -20.209  0.00  0.00    +0.188 C 
ATOM     25  C   UNL     1      33.123 -20.798 -20.048  0.00  0.00    +0.112 C 
ATOM     26  C   UNL     1      33.984 -18.835 -20.806  0.00  0.00    +0.143 C 
ATOM     27  H   UNL     1      37.520 -20.389 -20.282  0.00  0.00    +0.145 HD
ATOM     28  H   UNL     1      36.911 -21.875 -19.709  0.00  0.00    +0.145 HD
ATOM     29  H   UNL     1      34.541 -16.958 -21.526  0.00  0.00    +0.155 HD
ATOM     30  H   UNL     1      32.855 -17.188 -21.408  0.00  0.00    +0.155 HD
ENDBRANCH  18  23
ENDBRANCH   7  18
TORSDOF 5
ENDMDL
MODEL 3
REMARK VINA RESULT:      -9.5     14.440     17.642
REMARK  Name = 213043
REMARK  5 active torsions:
REMARK  status: ('A' for Active; 'I' for Inactive)
REMARK    1  A    between atoms: C_2  and  C_11
REMARK    2  A    between atoms: C_7  and  C_18
REMARK    3  A    between atoms: C_8  and  O_14
REMARK    4  A    between atoms: C_10  and  O_16
REMARK    5  A    between atoms: C_18  and  C_23
REMARK                            x       y       z     vdW  Elec       q    Type
REMARK                         _______ _______ _______ _____ _____    ______ ____
ROOT
ATOM      1  O   UNL     1      33.458 -12.172 -24.151  0.00  0.00    -0.471 OA
ATOM      2  C   UNL     1      34.287 -11.892 -25.298  0.00  0.00    +0.117 C 
ATOM      3  C   UNL     1      34.960 -10.544 -25.307  0.00  0.00    +0.032 C 
ATOM      4  C   UNL     1      33.083 -11.132 -23.348  0.00  0.00    +0.246 C 
ATOM      5  C   UNL     1      34.657  -9.578 -24.437  0.00  0.00    +0.002 C 
ATOM      6  C   UNL     1      33.633  -9.850 -23.442  0.00  0.00    +0.021 C 
ATOM      7  C   UNL     1      33.202  -8.849 -22.564  0.00  0.00    -0.015 C 
ATOM      8  C   UNL     1      32.118 -11.412 -22.378  0.00  0.00    +0.194 C 
ATOM      9  C   UNL     1      32.232  -9.129 -21.601  0.00  0.00    +0.036 C 
ATOM     10  C   UNL     1      31.690 -10.410 -21.507  0.00  0.00    +0.172 C 
ENDROOT
BRANCH   2  11
ATOM     11  C   UNL     1      33.475 -12.167 -26.536  0.00  0.00    +0.057 C 
ATOM     12  C   UNL     1      32.775 -13.476 -26.650  0.00  0.00    +0.008 C 
ATOM     13  C   UNL     1      33.975 -13.185 -27.502  0.00  0.00    +0.008 C 
ENDBRANCH   2  11
BRANCH   8  14
ATOM     14  O   UNL     1      31.586 -12.664 -22.278  0.00  0.00    -0.469 OA
ATOM     15  C   UNL     1      32.315 -13.617 -21.508  0.00  0.00    +0.252 C 
ENDBRANCH   8  14
BRANCH  10  16
ATOM     16  O   UNL     1      30.746 -10.670 -20.560  0.00  0.00    -0.469 OA
ATOM     17  C   UNL     1      31.196 -10.776 -19.210  0.00  0.00    +0.253 C 
ENDBRANCH  10  16
BRANCH   7  18
ATOM     18  C   UNL     1      33.749  -7.457 -22.612  0.00  0.00    +0.058 C 
BRANCH  18  23
ATOM     19  N   UNL     1      31.123  -4.761 -22.957  0.00  0.00    -0.323 NA
ATOM     20  N   UNL     1      31.883  -5.411 -25.150  0.00  0.00    -0.170 NA
ATOM     21  N   UNL     1      32.029  -5.793 -21.024  0.00  0.00    -0.332 N 
ATOM     22  N   UNL     1      30.243  -3.754 -24.885  0.00  0.00    -0.293 N 
ATOM     23  C   UNL     1      32.790  -6.446 -23.204  0.00  0.00    +0.047 C 
ATOM     24  C   UNL     1      31.979  -5.663 -22.434  0.00  0.00    +0.188 C 
ATOM     25  C   UNL     1      32.715  -6.294 -24.560  0.00  0.00    +0.112 C 
ATOM     26  C   UNL     1      31.126  -4.688 -24.302  0.00  0.00    +0.143 C 
ATOM     27  H   UNL     1      31.450  -5.235 -20.457  0.00  0.00    +0.145 HD
ATOM     28  H   UNL     1      32.643  -6.444 -20.611  0.00  0.00    +0.145 HD
ATOM     29  H   UNL     1      29.666  -3.198 -24.312  0.00  0.00    +0.155 HD
ATOM     30  H   UNL     1      30.203  -3.658 -25.864  0.00  0.00    +0.155 HD
ENDBRANCH  18  23
ENDBRANCH   7  18
TORSDOF 5
ENDMDL
MODEL 4
REMARK VINA RESULT:      -9.2      7.004     10.149
REMARK  Name = 213043
REMARK  5 active torsions:
REMARK  status: ('A' for Active; 'I' for Inactive)
REMARK    1  A    between atoms: C_2  and  C_11
REMARK    2  A    between atoms: C_7  and  C_18
REMARK    3  A    between atoms: C_8  and  O_14
REMARK    4  A    between atoms: C_10  and  O_16
REMARK    5  A    between atoms: C_18  and  C_23
REMARK                            x       y       z     vdW  Elec       q    Type
REMARK                         _______ _______ _______ _____ _____    ______ ____
ROOT
ATOM      1  O   UNL     1      34.006 -14.311 -24.096  0.00  0.00    -0.471 OA
ATOM      2  C   UNL     1      33.830 -13.415 -22.979  0.00  0.00    +0.117 C 
ATOM      3  C   UNL     1      34.412 -13.878 -21.668  0.00  0.00    +0.032 C 
ATOM      4  C   UNL     1      34.371 -15.604 -23.843  0.00  0.00    +0.246 C 
ATOM      5  C   UNL     1      34.870 -15.117 -21.478  0.00  0.00    +0.002 C 
ATOM      6  C   UNL     1      34.800 -16.051 -22.590  0.00  0.00    +0.021 C 
ATOM      7  C   UNL     1      35.175 -17.389 -22.426  0.00  0.00    -0.015 C 
ATOM      8  C   UNL     1      34.327 -16.486 -24.925  0.00  0.00    +0.194 C 
ATOM      9  C   UNL     1      35.122 -18.271 -23.507  0.00  0.00    +0.036 C 
ATOM     10  C   UNL     1      34.699 -17.819 -24.756  0.00  0.00    +0.172 C 
ENDROOT
BRANCH   2  11
ATOM     11  C   UNL     1      32.369 -13.058 -22.896  0.00  0.00    +0.057 C 
ATOM     12  C   UNL     1      32.000 -11.657 -22.552  0.00  0.00    +0.008 C 
ATOM     13  C   UNL     1      31.787 -12.760 -21.557  0.00  0.00    +0.008 C 
ENDBRANCH   2  11
BRANCH   8  14
ATOM     14  O   UNL     1      33.916 -16.050 -26.151  0.00  0.00    -0.469 OA
ATOM     15  C   UNL     1      32.722 -15.273 -26.194  0.00  0.00    +0.252 C 
ENDBRANCH   8  14
BRANCH  10  16
ATOM     16  O   UNL     1      34.655 -18.690 -25.803  0.00  0.00    -0.469 OA
ATOM     17  C   UNL     1      34.663 -20.081 -25.489  0.00  0.00    +0.253 C 
ENDBRANCH  10  16
BRANCH   7  18
ATOM     18  C   UNL     1      35.643 -17.931 -21.112  0.00  0.00    +0.058 C 
BRANCH  18  23
ATOM     19  N   UNL     1      34.871 -21.366 -19.737  0.00  0.00    -0.323 NA
ATOM     20  N   UNL     1      32.815 -20.303 -20.411  0.00  0.00    -0.170 NA
ATOM     21  N   UNL     1      36.940 -20.236 -19.992  0.00  0.00    -0.332 N 
ATOM     22  N   UNL     1      32.811 -22.463 -19.493  0.00  0.00    -0.293 N 
ATOM     23  C   UNL     1      34.898 -19.172 -20.666  0.00  0.00    +0.047 C 
ATOM     24  C   UNL     1      35.531 -20.259 -20.135  0.00  0.00    +0.188 C 
ATOM     25  C   UNL     1      33.538 -19.229 -20.790  0.00  0.00    +0.112 C 
ATOM     26  C   UNL     1      33.534 -21.322 -19.901  0.00  0.00    +0.143 C 
ATOM     27  H   UNL     1      37.409 -21.013 -19.611  0.00  0.00    +0.145 HD
ATOM     28  H   UNL     1      37.451 -19.443 -20.275  0.00  0.00    +0.145 HD
ATOM     29  H   UNL     1      33.286 -23.237 -19.113  0.00  0.00    +0.155 HD
ATOM     30  H   UNL     1      31.832 -22.485 -19.591  0.00  0.00    +0.155 HD
ENDBRANCH  18  23
ENDBRANCH   7  18
TORSDOF 5
ENDMDL
MODEL 5
REMARK VINA RESULT:      -9.2     12.578     15.384
REMARK  Name = 213043
REMARK  5 active torsions:
REMARK  status: ('A' for Active; 'I' for Inactive)
REMARK    1  A    between atoms: C_2  and  C_11
REMARK    2  A    between atoms: C_7  and  C_18
REMARK    3  A    between atoms: C_8  and  O_14
REMARK    4  A    between atoms: C_10  and  O_16
REMARK    5  A    between atoms: C_18  and  C_23
REMARK                            x       y       z     vdW  Elec       q    Type
REMARK                         _______ _______ _______ _____ _____    ______ ____
ROOT
ATOM      1  O   UNL     1      33.374  -7.995 -22.114  0.00  0.00    -0.471 OA
ATOM      2  C   UNL     1      32.262  -7.974 -21.194  0.00  0.00    +0.117 C 
ATOM      3  C   UNL     1      31.597  -9.303 -20.940  0.00  0.00    +0.032 C 
ATOM      4  C   UNL     1      33.539  -9.091 -22.913  0.00  0.00    +0.246 C 
ATOM      5  C   UNL     1      31.860 -10.394 -21.663  0.00  0.00    +0.002 C 
ATOM      6  C   UNL     1      32.830 -10.284 -22.739  0.00  0.00    +0.021 C 
ATOM      7  C   UNL     1      33.079 -11.364 -23.593  0.00  0.00    -0.015 C 
ATOM      8  C   UNL     1      34.494  -8.983 -23.927  0.00  0.00    +0.194 C 
ATOM      9  C   UNL     1      34.028 -11.251 -24.611  0.00  0.00    +0.036 C 
ATOM     10  C   UNL     1      34.735 -10.062 -24.777  0.00  0.00    +0.172 C 
ENDROOT
BRANCH   2  11
ATOM     11  C   UNL     1      31.306  -6.901 -21.645  0.00  0.00    +0.057 C 
ATOM     12  C   UNL     1      31.052  -6.745 -23.104  0.00  0.00    +0.008 C 
ATOM     13  C   UNL     1      31.856  -5.717 -22.364  0.00  0.00    +0.008 C 
ENDBRANCH   2  11
BRANCH   8  14
ATOM     14  O   UNL     1      35.192  -7.824 -24.093  0.00  0.00    -0.469 OA
ATOM     15  C   UNL     1      34.531  -6.764 -24.780  0.00  0.00    +0.252 C 
ENDBRANCH   8  14
BRANCH  10  16
ATOM     16  O   UNL     1      35.661  -9.967 -25.772  0.00  0.00    -0.469 OA
ATOM     17  C   UNL     1      35.520 -10.861 -26.875  0.00  0.00    +0.253 C 
ENDBRANCH  10  16
BRANCH   7  18
ATOM     18  C   UNL     1      32.355 -12.667 -23.462  0.00  0.00    +0.058 C 
BRANCH  18  23
ATOM     19  N   UNL     1      34.134 -15.776 -24.667  0.00  0.00    -0.323 NA
ATOM     20  N   UNL     1      34.895 -15.240 -22.444  0.00  0.00    -0.170 NA
ATOM     21  N   UNL     1      32.511 -14.416 -25.735  0.00  0.00    -0.332 N 
ATOM     22  N   UNL     1      35.740 -17.106 -23.590  0.00  0.00    -0.293 N 
ATOM     23  C   UNL     1      33.263 -13.876 -23.522  0.00  0.00    +0.047 C 
ATOM     24  C   UNL     1      33.326 -14.698 -24.610  0.00  0.00    +0.188 C 
ATOM     25  C   UNL     1      34.063 -14.178 -22.455  0.00  0.00    +0.112 C 
ATOM     26  C   UNL     1      34.881 -15.986 -23.566  0.00  0.00    +0.143 C 
ATOM     27  H   UNL     1      32.546 -15.000 -26.527  0.00  0.00    +0.145 HD
ATOM     28  H   UNL     1      31.909 -13.636 -25.725  0.00  0.00    +0.145 HD
ATOM     29  H   UNL     1      35.770 -17.686 -24.385  0.00  0.00    +0.155 HD
ATOM     30  H   UNL     1      36.308 -17.307 -22.811  0.00  0.00    +0.155 HD
ENDBRANCH  18  23
ENDBRANCH   7  18
TORSDOF 5
ENDMDL
MODEL 6
REMARK VINA RESULT:      -9.1     11.307     14.224
REMARK  Name = 213043
REMARK  5 active torsions:
REMARK  status: ('A' for Active; 'I' for Inactive)
REMARK    1  A    between atoms: C_2  and  C_11
REMARK    2  A    between atoms: C_7  and  C_18
REMARK    3  A    between atoms: C_8  and  O_14
REMARK    4  A    between atoms: C_10  and  O_16
REMARK    5  A    between atoms: C_18  and  C_23
REMARK                            x       y       z     vdW  Elec       q    Type
REMARK                         _______ _______ _______ _____ _____    ______ ____
ROOT
ATOM      1  O   UNL     1      33.551 -15.635 -22.939  0.00  0.00    -0.471 OA
ATOM      2  C   UNL     1      33.432 -16.364 -21.699  0.00  0.00    +0.117 C 
ATOM      3  C   UNL     1      32.632 -15.688 -20.616  0.00  0.00    +0.032 C 
ATOM      4  C   UNL     1      33.234 -14.305 -22.947  0.00  0.00    +0.246 C 
ATOM      5  C   UNL     1      32.234 -14.417 -20.696  0.00  0.00    +0.002 C 
ATOM      6  C   UNL     1      32.593 -13.661 -21.884  0.00  0.00    +0.021 C 
ATOM      7  C   UNL     1      32.289 -12.299 -21.987  0.00  0.00    -0.015 C 
ATOM      8  C   UNL     1      33.560 -13.595 -24.105  0.00  0.00    +0.194 C 
ATOM      9  C   UNL     1      32.623 -11.589 -23.142  0.00  0.00    +0.036 C 
ATOM     10  C   UNL     1      33.257 -12.238 -24.200  0.00  0.00    +0.172 C 
ENDROOT
BRANCH   2  11
ATOM     11  C   UNL     1      34.817 -16.765 -21.262  0.00  0.00    +0.057 C 
ATOM     12  C   UNL     1      35.671 -17.522 -22.218  0.00  0.00    +0.008 C 
ATOM     13  C   UNL     1      35.094 -18.208 -21.015  0.00  0.00    +0.008 C 
ENDBRANCH   2  11
BRANCH   8  14
ATOM     14  O   UNL     1      34.178 -14.224 -25.146  0.00  0.00    -0.469 OA
ATOM     15  C   UNL     1      33.339 -14.831 -26.124  0.00  0.00    +0.252 C 
ENDBRANCH   8  14
BRANCH  10  16
ATOM     16  O   UNL     1      33.574 -11.534 -25.323  0.00  0.00    -0.469 OA
ATOM     17  C   UNL     1      34.759 -10.741 -25.277  0.00  0.00    +0.253 C 
ENDBRANCH  10  16
BRANCH   7  18
ATOM     18  C   UNL     1      31.605 -11.550 -20.887  0.00  0.00    +0.058 C 
BRANCH  18  23
ATOM     19  N   UNL     1      32.347  -7.948 -20.016  0.00  0.00    -0.323 NA
ATOM     20  N   UNL     1      31.594  -8.070 -22.302  0.00  0.00    -0.170 NA
ATOM     21  N   UNL     1      32.517  -9.918 -18.706  0.00  0.00    -0.332 N 
ATOM     22  N   UNL     1      32.171  -6.013 -21.332  0.00  0.00    -0.293 N 
ATOM     23  C   UNL     1      31.766 -10.048 -20.982  0.00  0.00    +0.047 C 
ATOM     24  C   UNL     1      32.202  -9.287 -19.935  0.00  0.00    +0.188 C 
ATOM     25  C   UNL     1      31.471  -9.405 -22.152  0.00  0.00    +0.112 C 
ATOM     26  C   UNL     1      32.030  -7.412 -21.211  0.00  0.00    +0.143 C 
ATOM     27  H   UNL     1      32.832  -9.381 -17.944  0.00  0.00    +0.145 HD
ATOM     28  H   UNL     1      32.421 -10.894 -18.615  0.00  0.00    +0.145 HD
ATOM     29  H   UNL     1      32.486  -5.482 -20.565  0.00  0.00    +0.155 HD
ATOM     30  H   UNL     1      31.953  -5.569 -22.183  0.00  0.00    +0.155 HD
ENDBRANCH  18  23
ENDBRANCH   7  18
TORSDOF 5
ENDMDL
MODEL 7
REMARK VINA RESULT:      -9.1      1.769      4.375
REMARK  Name = 213043
REMARK  5 active torsions:
REMARK  status: ('A' for Active; 'I' for Inactive)
REMARK    1  A    between atoms: C_2  and  C_11
REMARK    2  A    between atoms: C_7  and  C_18
REMARK    3  A    between atoms: C_8  and  O_14
REMARK    4  A    between atoms: C_10  and  O_16
REMARK    5  A    between atoms: C_18  and  C_23
REMARK                            x       y       z     vdW  Elec       q    Type
REMARK                         _______ _______ _______ _____ _____    ______ ____
ROOT
ATOM      1  O   UNL     1      34.230 -22.750 -18.337  0.00  0.00    -0.471 OA
ATOM      2  C   UNL     1      35.192 -21.960 -19.067  0.00  0.00    +0.117 C 
ATOM      3  C   UNL     1      36.520 -21.751 -18.386  0.00  0.00    +0.032 C 
ATOM      4  C   UNL     1      34.442 -22.969 -17.005  0.00  0.00    +0.246 C 
ATOM      5  C   UNL     1      36.739 -22.080 -17.112  0.00  0.00    +0.002 C 
ATOM      6  C   UNL     1      35.643 -22.663 -16.357  0.00  0.00    +0.021 C 
ATOM      7  C   UNL     1      35.780 -22.941 -14.993  0.00  0.00    -0.015 C 
ATOM      8  C   UNL     1      33.391 -23.555 -16.296  0.00  0.00    +0.194 C 
ATOM      9  C   UNL     1      34.725 -23.519 -14.284  0.00  0.00    +0.036 C 
ATOM     10  C   UNL     1      33.532 -23.827 -14.936  0.00  0.00    +0.172 C 
ENDROOT
BRANCH   2  11
ATOM     11  C   UNL     1      34.520 -20.676 -19.480  0.00  0.00    +0.057 C 
ATOM     12  C   UNL     1      33.279 -20.756 -20.299  0.00  0.00    +0.008 C 
ATOM     13  C   UNL     1      34.562 -20.284 -20.917  0.00  0.00    +0.008 C 
ENDBRANCH   2  11
BRANCH   8  14
ATOM     14  O   UNL     1      32.222 -23.862 -16.928  0.00  0.00    -0.469 OA
ATOM     15  C   UNL     1      31.172 -22.902 -16.846  0.00  0.00    +0.252 C 
ENDBRANCH   8  14
BRANCH  10  16
ATOM     16  O   UNL     1      32.512 -24.395 -14.232  0.00  0.00    -0.469 OA
ATOM     17  C   UNL     1      31.723 -23.526 -13.422  0.00  0.00    +0.253 C 
ENDBRANCH  10  16
BRANCH   7  18
ATOM     18  C   UNL     1      37.037 -22.638 -14.239  0.00  0.00    +0.058 C 
BRANCH  18  23
ATOM     19  N   UNL     1      39.003 -25.696 -13.204  0.00  0.00    -0.323 NA
ATOM     20  N   UNL     1      39.804 -24.926 -15.343  0.00  0.00    -0.170 NA
ATOM     21  N   UNL     1      37.240 -24.551 -12.106  0.00  0.00    -0.332 N 
ATOM     22  N   UNL     1      40.745 -26.812 -14.311  0.00  0.00    -0.293 N 
ATOM     23  C   UNL     1      38.033 -23.778 -14.234  0.00  0.00    +0.047 C 
ATOM     24  C   UNL     1      38.116 -24.679 -13.212  0.00  0.00    +0.188 C 
ATOM     25  C   UNL     1      38.894 -23.932 -15.285  0.00  0.00    +0.112 C 
ATOM     26  C   UNL     1      39.805 -25.760 -14.284  0.00  0.00    +0.143 C 
ATOM     27  H   UNL     1      37.289 -25.193 -11.362  0.00  0.00    +0.145 HD
ATOM     28  H   UNL     1      36.581 -23.818 -12.081  0.00  0.00    +0.145 HD
ATOM     29  H   UNL     1      40.789 -27.451 -13.563  0.00  0.00    +0.155 HD
ATOM     30  H   UNL     1      41.356 -26.906 -15.076  0.00  0.00    +0.155 HD
ENDBRANCH  18  23
ENDBRANCH   7  18
TORSDOF 5
ENDMDL
MODEL 8
REMARK VINA RESULT:      -8.9     11.307     14.411
REMARK  Name = 213043
REMARK  5 active torsions:
REMARK  status: ('A' for Active; 'I' for Inactive)
REMARK    1  A    between atoms: C_2  and  C_11
REMARK    2  A    between atoms: C_7  and  C_18
REMARK    3  A    between atoms: C_8  and  O_14
REMARK    4  A    between atoms: C_10  and  O_16
REMARK    5  A    between atoms: C_18  and  C_23
REMARK                            x       y       z     vdW  Elec       q    Type
REMARK                         _______ _______ _______ _____ _____    ______ ____
ROOT
ATOM      1  O   UNL     1      31.396  -9.491 -21.656  0.00  0.00    -0.471 OA
ATOM      2  C   UNL     1      31.778  -8.398 -22.517  0.00  0.00    +0.117 C 
ATOM      3  C   UNL     1      32.404  -8.787 -23.831  0.00  0.00    +0.032 C 
ATOM      4  C   UNL     1      31.900 -10.735 -21.918  0.00  0.00    +0.246 C 
ATOM      5  C   UNL     1      32.785 -10.036 -24.111  0.00  0.00    +0.002 C 
ATOM      6  C   UNL     1      32.582 -11.056 -23.095  0.00  0.00    +0.021 C 
ATOM      7  C   UNL     1      33.046 -12.361 -23.289  0.00  0.00    -0.015 C 
ATOM      8  C   UNL     1      31.675 -11.714 -20.948  0.00  0.00    +0.194 C 
ATOM      9  C   UNL     1      32.828 -13.337 -22.314  0.00  0.00    +0.036 C 
ATOM     10  C   UNL     1      32.142 -13.013 -21.145  0.00  0.00    +0.172 C 
ENDROOT
BRANCH   2  11
ATOM     11  C   UNL     1      32.620  -7.444 -21.710  0.00  0.00    +0.057 C 
ATOM     12  C   UNL     1      32.454  -7.429 -20.230  0.00  0.00    +0.008 C 
ATOM     13  C   UNL     1      31.950  -6.284 -21.058  0.00  0.00    +0.008 C 
ENDBRANCH   2  11
BRANCH   8  14
ATOM     14  O   UNL     1      31.002 -11.405 -19.802  0.00  0.00    -0.469 OA
ATOM     15  C   UNL     1      31.744 -10.759 -18.771  0.00  0.00    +0.252 C 
ENDBRANCH   8  14
BRANCH  10  16
ATOM     16  O   UNL     1      31.933 -13.975 -20.203  0.00  0.00    -0.469 OA
ATOM     17  C   UNL     1      32.672 -15.188 -20.342  0.00  0.00    +0.253 C 
ENDBRANCH  10  16
BRANCH   7  18
ATOM     18  C   UNL     1      33.784 -12.771 -24.525  0.00  0.00    +0.058 C 
BRANCH  18  23
ATOM     19  N   UNL     1      33.395 -16.298 -25.826  0.00  0.00    -0.323 NA
ATOM     20  N   UNL     1      34.856 -16.318 -23.909  0.00  0.00    -0.170 NA
ATOM     21  N   UNL     1      32.463 -14.258 -26.597  0.00  0.00    -0.332 N 
ATOM     22  N   UNL     1      34.331 -18.303 -25.045  0.00  0.00    -0.293 N 
ATOM     23  C   UNL     1      33.915 -14.270 -24.687  0.00  0.00    +0.047 C 
ATOM     24  C   UNL     1      33.281 -14.962 -25.679  0.00  0.00    +0.188 C 
ATOM     25  C   UNL     1      34.695 -14.981 -23.819  0.00  0.00    +0.112 C 
ATOM     26  C   UNL     1      34.187 -16.904 -24.921  0.00  0.00    +0.143 C 
ATOM     27  H   UNL     1      31.999 -14.744 -27.317  0.00  0.00    +0.145 HD
ATOM     28  H   UNL     1      32.358 -13.281 -26.516  0.00  0.00    +0.145 HD
ATOM     29  H   UNL     1      33.864 -18.783 -25.767  0.00  0.00    +0.155 HD
ATOM     30  H   UNL     1      34.897 -18.797 -24.410  0.00  0.00    +0.155 HD
ENDBRANCH  18  23
ENDBRANCH   7  18
TORSDOF 5
ENDMDL
MODEL 9
REMARK VINA RESULT:      -8.9     12.417     15.316
REMARK  Name = 213043
REMARK  5 active torsions:
REMARK  status: ('A' for Active; 'I' for Inactive)
REMARK    1  A    between atoms: C_2  and  C_11
REMARK    2  A    between atoms: C_7  and  C_18
REMARK    3  A    between atoms: C_8  and  O_14
REMARK    4  A    between atoms: C_10  and  O_16
REMARK    5  A    between atoms: C_18  and  C_23
REMARK                            x       y       z     vdW  Elec       q    Type
REMARK                         _______ _______ _______ _____ _____    ______ ____
ROOT
ATOM      1  O   UNL     1      33.033 -14.776 -22.869  0.00  0.00    -0.471 OA
ATOM      2  C   UNL     1      32.737 -15.303 -21.559  0.00  0.00    +0.117 C 
ATOM      3  C   UNL     1      32.088 -14.342 -20.597  0.00  0.00    +0.032 C 
ATOM      4  C   UNL     1      33.018 -13.420 -23.046  0.00  0.00    +0.246 C 
ATOM      5  C   UNL     1      31.981 -13.034 -20.842  0.00  0.00    +0.002 C 
ATOM      6  C   UNL     1      32.518 -12.527 -22.094  0.00  0.00    +0.021 C 
ATOM      7  C   UNL     1      32.522 -11.154 -22.368  0.00  0.00    -0.015 C 
ATOM      8  C   UNL     1      33.510 -12.946 -24.264  0.00  0.00    +0.194 C 
ATOM      9  C   UNL     1      33.023 -10.682 -23.582  0.00  0.00    +0.036 C 
ATOM     10  C   UNL     1      33.515 -11.578 -24.530  0.00  0.00    +0.172 C 
ENDROOT
BRANCH   2  11
ATOM     11  C   UNL     1      33.992 -15.938 -21.020  0.00  0.00    +0.057 C 
ATOM     12  C   UNL     1      35.017 -16.418 -21.988  0.00  0.00    +0.008 C 
ATOM     13  C   UNL     1      34.188 -17.402 -21.216  0.00  0.00    +0.008 C 
ENDBRANCH   2  11
BRANCH   8  14
ATOM     14  O   UNL     1      33.990 -13.817 -25.197  0.00  0.00    -0.469 OA
ATOM     15  C   UNL     1      33.059 -14.319 -26.152  0.00  0.00    +0.252 C 
ENDBRANCH   8  14
BRANCH  10  16
ATOM     16  O   UNL     1      33.997 -11.103 -25.713  0.00  0.00    -0.469 OA
ATOM     17  C   UNL     1      35.261 -10.443 -25.679  0.00  0.00    +0.253 C 
ENDBRANCH  10  16
BRANCH   7  18
ATOM     18  C   UNL     1      32.003 -10.145 -21.393  0.00  0.00    +0.058 C 
BRANCH  18  23
ATOM     19  N   UNL     1      32.302  -6.405 -21.849  0.00  0.00    -0.323 NA
ATOM     20  N   UNL     1      31.106  -7.338 -23.723  0.00  0.00    -0.170 NA
ATOM     21  N   UNL     1      33.077  -7.813 -20.105  0.00  0.00    -0.332 N 
ATOM     22  N   UNL     1      31.526  -5.033 -23.587  0.00  0.00    -0.293 N 
ATOM     23  C   UNL     1      31.887  -8.749 -21.966  0.00  0.00    +0.047 C 
ATOM     24  C   UNL     1      32.404  -7.651 -21.342  0.00  0.00    +0.188 C 
ATOM     25  C   UNL     1      31.244  -8.555 -23.157  0.00  0.00    +0.112 C 
ATOM     26  C   UNL     1      31.651  -6.322 -23.025  0.00  0.00    +0.143 C 
ATOM     27  H   UNL     1      33.455  -7.030 -19.644  0.00  0.00    +0.145 HD
ATOM     28  H   UNL     1      33.168  -8.710 -19.708  0.00  0.00    +0.145 HD
ATOM     29  H   UNL     1      31.906  -4.254 -23.120  0.00  0.00    +0.155 HD
ATOM     30  H   UNL     1      31.059  -4.914 -24.446  0.00  0.00    +0.155 HD
ENDBRANCH  18  23
ENDBRANCH   7  18
TORSDOF 5
ENDMDL
