MODEL 1
REMARK VINA RESULT:      -7.8      0.000      0.000
REMARK  Name = 5502
REMARK  6 active torsions:
REMARK  status: ('A' for Active; 'I' for Inactive)
REMARK    1  A    between atoms: C_3  and  C_27
REMARK    2  A    between atoms: C_8  and  C_13
REMARK    3  A    between atoms: C_10  and  O_23
REMARK    4  A    between atoms: C_11  and  O_25
REMARK    5  A    between atoms: C_16  and  O_19
REMARK    6  A    between atoms: C_18  and  O_21
REMARK                            x       y       z     vdW  Elec       q    Type
REMARK                         _______ _______ _______ _____ _____    ______ ____
ROOT
ATOM      1  N   UNL     1      31.866 -22.728 -13.675  0.00  0.00    -0.156 NA
ATOM      2  N   UNL     1      32.990 -23.535 -13.602  0.00  0.00    -0.149 NA
ATOM      3  C   UNL     1      31.159 -23.797 -15.834  0.00  0.00    +0.060 C 
ATOM      4  C   UNL     1      32.362 -23.305 -16.601  0.00  0.00    -0.012 C 
ATOM      5  C   UNL     1      33.612 -23.164 -15.981  0.00  0.00    +0.019 C 
ATOM      6  C   UNL     1      30.992 -22.906 -14.616  0.00  0.00    +0.062 C 
ATOM      7  C   UNL     1      32.225 -22.905 -17.939  0.00  0.00    +0.036 C 
ATOM      8  C   UNL     1      33.809 -23.677 -14.601  0.00  0.00    +0.103 C 
ATOM      9  C   UNL     1      34.694 -22.611 -16.678  0.00  0.00    +0.041 C 
ATOM     10  C   UNL     1      33.307 -22.366 -18.637  0.00  0.00    +0.172 C 
ATOM     11  C   UNL     1      34.538 -22.212 -18.005  0.00  0.00    +0.172 C 
ATOM     12  C   UNL     1      29.729 -22.078 -14.544  0.00  0.00    +0.049 C 
ENDROOT
BRANCH   8  13
ATOM     13  C   UNL     1      35.031 -24.495 -14.333  0.00  0.00    +0.023 C 
ATOM     14  C   UNL     1      35.744 -24.294 -13.159  0.00  0.00    +0.042 C 
ATOM     15  C   UNL     1      35.435 -25.445 -15.261  0.00  0.00    +0.005 C 
ATOM     16  C   UNL     1      36.886 -25.057 -12.910  0.00  0.00    +0.172 C 
ATOM     17  C   UNL     1      36.575 -26.208 -15.012  0.00  0.00    +0.040 C 
ATOM     18  C   UNL     1      37.301 -26.015 -13.836  0.00  0.00    +0.172 C 
BRANCH  16  19
ATOM     19  O   UNL     1      37.585 -24.859 -11.758  0.00  0.00    -0.468 OA
ATOM     20  C   UNL     1      38.389 -23.683 -11.682  0.00  0.00    +0.253 C 
ENDBRANCH  16  19
BRANCH  18  21
ATOM     21  O   UNL     1      38.412 -26.766 -13.604  0.00  0.00    -0.468 OA
ATOM     22  C   UNL     1      39.645 -26.280 -14.131  0.00  0.00    +0.253 C 
ENDBRANCH  18  21
ENDBRANCH   8  13
BRANCH  10  23
ATOM     23  O   UNL     1      33.142 -21.983 -19.934  0.00  0.00    -0.468 OA
ATOM     24  C   UNL     1      32.959 -20.590 -20.180  0.00  0.00    +0.253 C 
ENDBRANCH  10  23
BRANCH  11  25
ATOM     25  O   UNL     1      35.598 -21.679 -18.673  0.00  0.00    -0.468 OA
ATOM     26  C   UNL     1      36.837 -21.607 -17.971  0.00  0.00    +0.253 C 
ENDBRANCH  11  25
BRANCH   3  27
ATOM     27  C   UNL     1      31.155 -25.288 -15.513  0.00  0.00    +0.010 C 
ATOM     28  C   UNL     1      29.859 -25.707 -14.843  0.00  0.00    +0.001 C 
ENDBRANCH   3  27
TORSDOF 6
ENDMDL
MODEL 2
REMARK VINA RESULT:      -7.3      2.691      5.930
REMARK  Name = 5502
REMARK  6 active torsions:
REMARK  status: ('A' for Active; 'I' for Inactive)
REMARK    1  A    between atoms: C_3  and  C_27
REMARK    2  A    between atoms: C_8  and  C_13
REMARK    3  A    between atoms: C_10  and  O_23
REMARK    4  A    between atoms: C_11  and  O_25
REMARK    5  A    between atoms: C_16  and  O_19
REMARK    6  A    between atoms: C_18  and  O_21
REMARK                            x       y       z     vdW  Elec       q    Type
REMARK                         _______ _______ _______ _____ _____    ______ ____
ROOT
ATOM      1  N   UNL     1      36.196 -25.442 -15.293  0.00  0.00    -0.156 NA
ATOM      2  N   UNL     1      34.907 -24.959 -15.127  0.00  0.00    -0.149 NA
ATOM      3  C   UNL     1      37.165 -23.144 -15.002  0.00  0.00    +0.060 C 
ATOM      4  C   UNL     1      36.513 -22.590 -16.247  0.00  0.00    -0.012 C 
ATOM      5  C   UNL     1      35.252 -23.039 -16.668  0.00  0.00    +0.019 C 
ATOM      6  C   UNL     1      37.215 -24.656 -15.141  0.00  0.00    +0.062 C 
ATOM      7  C   UNL     1      37.201 -21.667 -17.046  0.00  0.00    +0.036 C 
ATOM      8  C   UNL     1      34.459 -23.934 -15.789  0.00  0.00    +0.103 C 
ATOM      9  C   UNL     1      34.706 -22.591 -17.878  0.00  0.00    +0.041 C 
ATOM     10  C   UNL     1      36.650 -21.211 -18.245  0.00  0.00    +0.172 C 
ATOM     11  C   UNL     1      35.408 -21.678 -18.664  0.00  0.00    +0.172 C 
ATOM     12  C   UNL     1      38.586 -25.289 -15.203  0.00  0.00    +0.049 C 
ENDROOT
BRANCH   8  13
ATOM     13  C   UNL     1      33.018 -23.601 -15.578  0.00  0.00    +0.023 C 
ATOM     14  C   UNL     1      32.472 -23.702 -14.305  0.00  0.00    +0.042 C 
ATOM     15  C   UNL     1      32.245 -23.195 -16.657  0.00  0.00    +0.005 C 
ATOM     16  C   UNL     1      31.125 -23.391 -14.109  0.00  0.00    +0.172 C 
ATOM     17  C   UNL     1      30.900 -22.884 -16.461  0.00  0.00    +0.040 C 
ATOM     18  C   UNL     1      30.339 -22.982 -15.187  0.00  0.00    +0.172 C 
BRANCH  16  19
ATOM     19  O   UNL     1      30.590 -23.491 -12.861  0.00  0.00    -0.468 OA
ATOM     20  C   UNL     1      30.168 -24.786 -12.437  0.00  0.00    +0.253 C 
ENDBRANCH  16  19
BRANCH  18  21
ATOM     21  O   UNL     1      29.025 -22.676 -15.008  0.00  0.00    -0.468 OA
ATOM     22  C   UNL     1      28.148 -22.920 -16.107  0.00  0.00    +0.253 C 
ENDBRANCH  18  21
ENDBRANCH   8  13
BRANCH  10  23
ATOM     23  O   UNL     1      37.345 -20.316 -19.003  0.00  0.00    -0.468 OA
ATOM     24  C   UNL     1      36.839 -20.041 -20.308  0.00  0.00    +0.253 C 
ENDBRANCH  10  23
BRANCH  11  25
ATOM     25  O   UNL     1      34.865 -21.247 -19.837  0.00  0.00    -0.468 OA
ATOM     26  C   UNL     1      33.452 -21.053 -19.864  0.00  0.00    +0.253 C 
ENDBRANCH  11  25
BRANCH   3  27
ATOM     27  C   UNL     1      36.566 -22.665 -13.684  0.00  0.00    +0.010 C 
ATOM     28  C   UNL     1      37.268 -23.295 -12.495  0.00  0.00    +0.001 C 
ENDBRANCH   3  27
TORSDOF 6
ENDMDL
MODEL 3
REMARK VINA RESULT:      -7.2      1.651      5.729
REMARK  Name = 5502
REMARK  6 active torsions:
REMARK  status: ('A' for Active; 'I' for Inactive)
REMARK    1  A    between atoms: C_3  and  C_27
REMARK    2  A    between atoms: C_8  and  C_13
REMARK    3  A    between atoms: C_10  and  O_23
REMARK    4  A    between atoms: C_11  and  O_25
REMARK    5  A    between atoms: C_16  and  O_19
REMARK    6  A    between atoms: C_18  and  O_21
REMARK                            x       y       z     vdW  Elec       q    Type
REMARK                         _______ _______ _______ _____ _____    ______ ____
ROOT
ATOM      1  N   UNL     1      30.960 -24.791 -16.179  0.00  0.00    -0.156 NA
ATOM      2  N   UNL     1      31.772 -23.951 -16.924  0.00  0.00    -0.149 NA
ATOM      3  C   UNL     1      31.529 -23.570 -14.060  0.00  0.00    +0.060 C 
ATOM      4  C   UNL     1      32.990 -23.948 -14.103  0.00  0.00    -0.012 C 
ATOM      5  C   UNL     1      33.668 -24.093 -15.322  0.00  0.00    +0.019 C 
ATOM      6  C   UNL     1      30.769 -24.568 -14.916  0.00  0.00    +0.062 C 
ATOM      7  C   UNL     1      33.674 -24.237 -12.913  0.00  0.00    +0.036 C 
ATOM      8  C   UNL     1      33.000 -23.693 -16.586  0.00  0.00    +0.103 C 
ATOM      9  C   UNL     1      34.995 -24.543 -15.349  0.00  0.00    +0.041 C 
ATOM     10  C   UNL     1      35.000 -24.672 -12.940  0.00  0.00    +0.172 C 
ATOM     11  C   UNL     1      35.657 -24.833 -14.157  0.00  0.00    +0.172 C 
ATOM     12  C   UNL     1      29.763 -25.446 -14.208  0.00  0.00    +0.049 C 
ENDROOT
BRANCH   8  13
ATOM     13  C   UNL     1      33.779 -22.855 -17.548  0.00  0.00    +0.023 C 
ATOM     14  C   UNL     1      35.106 -22.553 -17.273  0.00  0.00    +0.042 C 
ATOM     15  C   UNL     1      33.165 -22.389 -18.703  0.00  0.00    +0.005 C 
ATOM     16  C   UNL     1      35.832 -21.769 -18.170  0.00  0.00    +0.172 C 
ATOM     17  C   UNL     1      33.890 -21.607 -19.599  0.00  0.00    +0.040 C 
ATOM     18  C   UNL     1      35.225 -21.296 -19.334  0.00  0.00    +0.172 C 
BRANCH  16  19
ATOM     19  O   UNL     1      37.133 -21.473 -17.899  0.00  0.00    -0.468 OA
ATOM     20  C   UNL     1      37.623 -21.824 -16.607  0.00  0.00    +0.253 C 
ENDBRANCH  16  19
BRANCH  18  21
ATOM     21  O   UNL     1      35.923 -20.530 -20.217  0.00  0.00    -0.468 OA
ATOM     22  C   UNL     1      35.185 -19.559 -20.957  0.00  0.00    +0.253 C 
ENDBRANCH  18  21
ENDBRANCH   8  13
BRANCH  10  23
ATOM     23  O   UNL     1      35.637 -24.949 -11.768  0.00  0.00    -0.468 OA
ATOM     24  C   UNL     1      36.295 -23.865 -11.116  0.00  0.00    +0.253 C 
ENDBRANCH  10  23
BRANCH  11  25
ATOM     25  O   UNL     1      36.948 -25.266 -14.196  0.00  0.00    -0.468 OA
ATOM     26  C   UNL     1      37.183 -26.552 -14.765  0.00  0.00    +0.253 C 
ENDBRANCH  11  25
BRANCH   3  27
ATOM     27  C   UNL     1      31.223 -22.113 -14.391  0.00  0.00    +0.010 C 
ATOM     28  C   UNL     1      29.778 -21.935 -14.824  0.00  0.00    +0.001 C 
ENDBRANCH   3  27
TORSDOF 6
ENDMDL
MODEL 4
REMARK VINA RESULT:      -7.1      1.599      6.223
REMARK  Name = 5502
REMARK  6 active torsions:
REMARK  status: ('A' for Active; 'I' for Inactive)
REMARK    1  A    between atoms: C_3  and  C_27
REMARK    2  A    between atoms: C_8  and  C_13
REMARK    3  A    between atoms: C_10  and  O_23
REMARK    4  A    between atoms: C_11  and  O_25
REMARK    5  A    between atoms: C_16  and  O_19
REMARK    6  A    between atoms: C_18  and  O_21
REMARK                            x       y       z     vdW  Elec       q    Type
REMARK                         _______ _______ _______ _____ _____    ______ ____
ROOT
ATOM      1  N   UNL     1      31.143 -24.790 -16.091  0.00  0.00    -0.156 NA
ATOM      2  N   UNL     1      31.847 -23.929 -16.918  0.00  0.00    -0.149 NA
ATOM      3  C   UNL     1      31.823 -23.493 -14.051  0.00  0.00    +0.060 C 
ATOM      4  C   UNL     1      33.292 -23.801 -14.209  0.00  0.00    -0.012 C 
ATOM      5  C   UNL     1      33.874 -23.941 -15.478  0.00  0.00    +0.019 C 
ATOM      6  C   UNL     1      31.045 -24.547 -14.822  0.00  0.00    +0.062 C 
ATOM      7  C   UNL     1      34.086 -24.028 -13.075  0.00  0.00    +0.036 C 
ATOM      8  C   UNL     1      33.084 -23.604 -16.689  0.00  0.00    +0.103 C 
ATOM      9  C   UNL     1      35.215 -24.327 -15.606  0.00  0.00    +0.041 C 
ATOM     10  C   UNL     1      35.425 -24.399 -13.204  0.00  0.00    +0.172 C 
ATOM     11  C   UNL     1      35.987 -24.555 -14.469  0.00  0.00    +0.172 C 
ATOM     12  C   UNL     1      30.147 -25.457 -14.015  0.00  0.00    +0.049 C 
ENDROOT
BRANCH   8  13
ATOM     13  C   UNL     1      33.738 -22.751 -17.728  0.00  0.00    +0.023 C 
ATOM     14  C   UNL     1      32.962 -22.168 -18.721  0.00  0.00    +0.042 C 
ATOM     15  C   UNL     1      35.111 -22.554 -17.686  0.00  0.00    +0.005 C 
ATOM     16  C   UNL     1      33.573 -21.373 -19.691  0.00  0.00    +0.172 C 
ATOM     17  C   UNL     1      35.721 -21.759 -18.655  0.00  0.00    +0.040 C 
ATOM     18  C   UNL     1      34.953 -21.168 -19.659  0.00  0.00    +0.172 C 
BRANCH  16  19
ATOM     19  O   UNL     1      32.811 -20.802 -20.665  0.00  0.00    -0.468 OA
ATOM     20  C   UNL     1      32.631 -19.389 -20.602  0.00  0.00    +0.253 C 
ENDBRANCH  16  19
BRANCH  18  21
ATOM     21  O   UNL     1      35.560 -20.394 -20.600  0.00  0.00    -0.468 OA
ATOM     22  C   UNL     1      36.863 -19.903 -20.292  0.00  0.00    +0.253 C 
ENDBRANCH  18  21
ENDBRANCH   8  13
BRANCH  10  23
ATOM     23  O   UNL     1      36.170 -24.617 -12.084  0.00  0.00    -0.468 OA
ATOM     24  C   UNL     1      36.702 -23.469 -11.425  0.00  0.00    +0.253 C 
ENDBRANCH  10  23
BRANCH  11  25
ATOM     25  O   UNL     1      37.290 -24.926 -14.607  0.00  0.00    -0.468 OA
ATOM     26  C   UNL     1      37.549 -26.307 -14.853  0.00  0.00    +0.253 C 
ENDBRANCH  11  25
BRANCH   3  27
ATOM     27  C   UNL     1      31.417 -22.062 -14.384  0.00  0.00    +0.010 C 
ATOM     28  C   UNL     1      29.938 -21.968 -14.717  0.00  0.00    +0.001 C 
ENDBRANCH   3  27
TORSDOF 6
ENDMDL
MODEL 5
REMARK VINA RESULT:      -6.9      2.763      5.969
REMARK  Name = 5502
REMARK  6 active torsions:
REMARK  status: ('A' for Active; 'I' for Inactive)
REMARK    1  A    between atoms: C_3  and  C_27
REMARK    2  A    between atoms: C_8  and  C_13
REMARK    3  A    between atoms: C_10  and  O_23
REMARK    4  A    between atoms: C_11  and  O_25
REMARK    5  A    between atoms: C_16  and  O_19
REMARK    6  A    between atoms: C_18  and  O_21
REMARK                            x       y       z     vdW  Elec       q    Type
REMARK                         _______ _______ _______ _____ _____    ______ ____
ROOT
ATOM      1  N   UNL     1      37.022 -25.620 -14.783  0.00  0.00    -0.156 NA
ATOM      2  N   UNL     1      35.687 -25.360 -14.515  0.00  0.00    -0.149 NA
ATOM      3  C   UNL     1      37.604 -23.185 -14.585  0.00  0.00    +0.060 C 
ATOM      4  C   UNL     1      36.771 -22.775 -15.776  0.00  0.00    -0.012 C 
ATOM      5  C   UNL     1      35.576 -23.439 -16.091  0.00  0.00    +0.019 C 
ATOM      6  C   UNL     1      37.901 -24.669 -14.719  0.00  0.00    +0.062 C 
ATOM      7  C   UNL     1      37.226 -21.764 -16.635  0.00  0.00    +0.036 C 
ATOM      8  C   UNL     1      35.020 -24.438 -15.144  0.00  0.00    +0.103 C 
ATOM      9  C   UNL     1      34.868 -23.114 -17.255  0.00  0.00    +0.041 C 
ATOM     10  C   UNL     1      36.513 -21.432 -17.787  0.00  0.00    +0.172 C 
ATOM     11  C   UNL     1      35.339 -22.111 -18.101  0.00  0.00    +0.172 C 
ATOM     12  C   UNL     1      39.350 -25.062 -14.888  0.00  0.00    +0.049 C 
ENDROOT
BRANCH   8  13
ATOM     13  C   UNL     1      33.564 -24.350 -14.819  0.00  0.00    +0.023 C 
ATOM     14  C   UNL     1      32.781 -23.388 -15.442  0.00  0.00    +0.042 C 
ATOM     15  C   UNL     1      33.014 -25.232 -13.898  0.00  0.00    +0.005 C 
ATOM     16  C   UNL     1      31.422 -23.305 -15.137  0.00  0.00    +0.172 C 
ATOM     17  C   UNL     1      31.656 -25.149 -13.593  0.00  0.00    +0.040 C 
ATOM     18  C   UNL     1      30.859 -24.186 -14.212  0.00  0.00    +0.172 C 
BRANCH  16  19
ATOM     19  O   UNL     1      30.654 -22.360 -15.748  0.00  0.00    -0.468 OA
ATOM     20  C   UNL     1      29.890 -22.777 -16.877  0.00  0.00    +0.253 C 
ENDBRANCH  16  19
BRANCH  18  21
ATOM     21  O   UNL     1      29.534 -24.116 -13.907  0.00  0.00    -0.468 OA
ATOM     22  C   UNL     1      28.679 -25.089 -14.503  0.00  0.00    +0.253 C 
ENDBRANCH  18  21
ENDBRANCH   8  13
BRANCH  10  23
ATOM     23  O   UNL     1      36.982 -20.448 -18.604  0.00  0.00    -0.468 OA
ATOM     24  C   UNL     1      37.005 -20.723 -20.004  0.00  0.00    +0.253 C 
ENDBRANCH  10  23
BRANCH  11  25
ATOM     25  O   UNL     1      34.639 -21.802 -19.228  0.00  0.00    -0.468 OA
ATOM     26  C   UNL     1      33.223 -21.687 -19.101  0.00  0.00    +0.253 C 
ENDBRANCH  11  25
BRANCH   3  27
ATOM     27  C   UNL     1      37.038 -22.789 -13.226  0.00  0.00    +0.010 C 
ATOM     28  C   UNL     1      37.819 -23.431 -12.093  0.00  0.00    +0.001 C 
ENDBRANCH   3  27
TORSDOF 6
ENDMDL
MODEL 6
REMARK VINA RESULT:      -6.1     10.250     14.503
REMARK  Name = 5502
REMARK  6 active torsions:
REMARK  status: ('A' for Active; 'I' for Inactive)
REMARK    1  A    between atoms: C_3  and  C_27
REMARK    2  A    between atoms: C_8  and  C_13
REMARK    3  A    between atoms: C_10  and  O_23
REMARK    4  A    between atoms: C_11  and  O_25
REMARK    5  A    between atoms: C_16  and  O_19
REMARK    6  A    between atoms: C_18  and  O_21
REMARK                            x       y       z     vdW  Elec       q    Type
REMARK                         _______ _______ _______ _____ _____    ______ ____
ROOT
ATOM      1  N   UNL     1      31.553 -14.353 -21.099  0.00  0.00    -0.156 NA
ATOM      2  N   UNL     1      32.032 -13.135 -21.557  0.00  0.00    -0.149 NA
ATOM      3  C   UNL     1      33.774 -15.452 -21.498  0.00  0.00    +0.060 C 
ATOM      4  C   UNL     1      33.727 -15.257 -22.995  0.00  0.00    -0.012 C 
ATOM      5  C   UNL     1      33.114 -14.131 -23.562  0.00  0.00    +0.019 C 
ATOM      6  C   UNL     1      32.350 -15.367 -20.977  0.00  0.00    +0.062 C 
ATOM      7  C   UNL     1      34.234 -16.249 -23.846  0.00  0.00    +0.036 C 
ATOM      8  C   UNL     1      32.665 -13.020 -22.686  0.00  0.00    +0.103 C 
ATOM      9  C   UNL     1      32.989 -14.014 -24.953  0.00  0.00    +0.041 C 
ATOM     10  C   UNL     1      34.121 -16.126 -25.232  0.00  0.00    +0.172 C 
ATOM     11  C   UNL     1      33.492 -15.013 -25.784  0.00  0.00    +0.172 C 
ATOM     12  C   UNL     1      31.781 -16.615 -20.341  0.00  0.00    +0.049 C 
ENDROOT
BRANCH   8  13
ATOM     13  C   UNL     1      33.025 -11.627 -23.092  0.00  0.00    +0.023 C 
ATOM     14  C   UNL     1      34.145 -11.413 -23.883  0.00  0.00    +0.042 C 
ATOM     15  C   UNL     1      32.234 -10.566 -22.672  0.00  0.00    +0.005 C 
ATOM     16  C   UNL     1      34.482 -10.113 -24.261  0.00  0.00    +0.172 C 
ATOM     17  C   UNL     1      32.570  -9.267 -23.049  0.00  0.00    +0.040 C 
ATOM     18  C   UNL     1      33.694  -9.039 -23.844  0.00  0.00    +0.172 C 
BRANCH  16  19
ATOM     19  O   UNL     1      35.581  -9.904 -25.037  0.00  0.00    -0.468 OA
ATOM     20  C   UNL     1      35.569 -10.472 -26.345  0.00  0.00    +0.253 C 
ENDBRANCH  16  19
BRANCH  18  21
ATOM     21  O   UNL     1      34.012  -7.766 -24.206  0.00  0.00    -0.468 OA
ATOM     22  C   UNL     1      33.098  -6.738 -23.830  0.00  0.00    +0.253 C 
ENDBRANCH  18  21
ENDBRANCH   8  13
BRANCH  10  23
ATOM     23  O   UNL     1      34.620 -17.108 -26.034  0.00  0.00    -0.468 OA
ATOM     24  C   UNL     1      34.666 -18.427 -25.492  0.00  0.00    +0.253 C 
ENDBRANCH  10  23
BRANCH  11  25
ATOM     25  O   UNL     1      33.368 -14.887 -27.135  0.00  0.00    -0.468 OA
ATOM     26  C   UNL     1      33.407 -13.565 -27.668  0.00  0.00    +0.253 C 
ENDBRANCH  11  25
BRANCH   3  27
ATOM     27  C   UNL     1      34.758 -14.556 -20.754  0.00  0.00    +0.010 C 
ATOM     28  C   UNL     1      35.059 -15.094 -19.367  0.00  0.00    +0.001 C 
ENDBRANCH   3  27
TORSDOF 6
ENDMDL
MODEL 7
REMARK VINA RESULT:      -6.1     10.158     14.355
REMARK  Name = 5502
REMARK  6 active torsions:
REMARK  status: ('A' for Active; 'I' for Inactive)
REMARK    1  A    between atoms: C_3  and  C_27
REMARK    2  A    between atoms: C_8  and  C_13
REMARK    3  A    between atoms: C_10  and  O_23
REMARK    4  A    between atoms: C_11  and  O_25
REMARK    5  A    between atoms: C_16  and  O_19
REMARK    6  A    between atoms: C_18  and  O_21
REMARK                            x       y       z     vdW  Elec       q    Type
REMARK                         _______ _______ _______ _____ _____    ______ ____
ROOT
ATOM      1  N   UNL     1      31.559 -14.495 -21.071  0.00  0.00    -0.156 NA
ATOM      2  N   UNL     1      32.015 -13.269 -21.530  0.00  0.00    -0.149 NA
ATOM      3  C   UNL     1      33.797 -15.556 -21.485  0.00  0.00    +0.060 C 
ATOM      4  C   UNL     1      33.737 -15.361 -22.981  0.00  0.00    -0.012 C 
ATOM      5  C   UNL     1      33.102 -14.244 -23.543  0.00  0.00    +0.019 C 
ATOM      6  C   UNL     1      32.375 -15.496 -20.955  0.00  0.00    +0.062 C 
ATOM      7  C   UNL     1      34.256 -16.343 -23.837  0.00  0.00    +0.036 C 
ATOM      8  C   UNL     1      32.639 -13.142 -22.663  0.00  0.00    +0.103 C 
ATOM      9  C   UNL     1      32.966 -14.128 -24.933  0.00  0.00    +0.041 C 
ATOM     10  C   UNL     1      34.132 -16.220 -25.222  0.00  0.00    +0.172 C 
ATOM     11  C   UNL     1      33.481 -15.117 -25.769  0.00  0.00    +0.172 C 
ATOM     12  C   UNL     1      31.831 -16.755 -20.318  0.00  0.00    +0.049 C 
ENDROOT
BRANCH   8  13
ATOM     13  C   UNL     1      32.973 -11.743 -23.069  0.00  0.00    +0.023 C 
ATOM     14  C   UNL     1      32.235 -10.686 -22.553  0.00  0.00    +0.042 C 
ATOM     15  C   UNL     1      34.017 -11.519 -23.957  0.00  0.00    +0.005 C 
ATOM     16  C   UNL     1      32.546  -9.380 -22.934  0.00  0.00    +0.172 C 
ATOM     17  C   UNL     1      34.328 -10.214 -24.336  0.00  0.00    +0.040 C 
ATOM     18  C   UNL     1      33.593  -9.144 -23.825  0.00  0.00    +0.172 C 
BRANCH  16  19
ATOM     19  O   UNL     1      31.821  -8.344 -22.428  0.00  0.00    -0.468 OA
ATOM     20  C   UNL     1      32.133  -7.921 -21.102  0.00  0.00    +0.253 C 
ENDBRANCH  16  19
BRANCH  18  21
ATOM     21  O   UNL     1      33.907  -7.874 -24.204  0.00  0.00    -0.468 OA
ATOM     22  C   UNL     1      34.989  -7.243 -23.521  0.00  0.00    +0.253 C 
ENDBRANCH  18  21
ENDBRANCH   8  13
BRANCH  10  23
ATOM     23  O   UNL     1      34.642 -17.192 -26.028  0.00  0.00    -0.468 OA
ATOM     24  C   UNL     1      34.663 -18.521 -25.508  0.00  0.00    +0.253 C 
ENDBRANCH  10  23
BRANCH  11  25
ATOM     25  O   UNL     1      33.346 -14.991 -27.118  0.00  0.00    -0.468 OA
ATOM     26  C   UNL     1      33.352 -13.668 -27.649  0.00  0.00    +0.253 C 
ENDBRANCH  11  25
BRANCH   3  27
ATOM     27  C   UNL     1      34.770 -14.644 -20.746  0.00  0.00    +0.010 C 
ATOM     28  C   UNL     1      35.024 -15.135 -19.332  0.00  0.00    +0.001 C 
ENDBRANCH   3  27
TORSDOF 6
ENDMDL
MODEL 8
REMARK VINA RESULT:      -5.5      5.525      9.270
REMARK  Name = 5502
REMARK  6 active torsions:
REMARK  status: ('A' for Active; 'I' for Inactive)
REMARK    1  A    between atoms: C_3  and  C_27
REMARK    2  A    between atoms: C_8  and  C_13
REMARK    3  A    between atoms: C_10  and  O_23
REMARK    4  A    between atoms: C_11  and  O_25
REMARK    5  A    between atoms: C_16  and  O_19
REMARK    6  A    between atoms: C_18  and  O_21
REMARK                            x       y       z     vdW  Elec       q    Type
REMARK                         _______ _______ _______ _____ _____    ______ ____
ROOT
ATOM      1  N   UNL     1      35.336 -15.381 -20.402  0.00  0.00    -0.156 NA
ATOM      2  N   UNL     1      34.966 -16.696 -20.164  0.00  0.00    -0.149 NA
ATOM      3  C   UNL     1      33.267 -14.977 -21.766  0.00  0.00    +0.060 C 
ATOM      4  C   UNL     1      33.650 -15.964 -22.843  0.00  0.00    -0.012 C 
ATOM      5  C   UNL     1      34.369 -17.129 -22.539  0.00  0.00    +0.019 C 
ATOM      6  C   UNL     1      34.537 -14.579 -21.033  0.00  0.00    +0.062 C 
ATOM      7  C   UNL     1      33.353 -15.686 -24.185  0.00  0.00    +0.036 C 
ATOM      8  C   UNL     1      34.603 -17.498 -21.120  0.00  0.00    +0.103 C 
ATOM      9  C   UNL     1      34.803 -17.984 -23.560  0.00  0.00    +0.041 C 
ATOM     10  C   UNL     1      33.775 -16.545 -25.201  0.00  0.00    +0.172 C 
ATOM     11  C   UNL     1      34.506 -17.688 -24.890  0.00  0.00    +0.172 C 
ATOM     12  C   UNL     1      34.955 -13.130 -21.130  0.00  0.00    +0.049 C 
ENDROOT
BRANCH   8  13
ATOM     13  C   UNL     1      34.336 -18.913 -20.718  0.00  0.00    +0.023 C 
ATOM     14  C   UNL     1      35.395 -19.731 -20.349  0.00  0.00    +0.042 C 
ATOM     15  C   UNL     1      33.032 -19.389 -20.718  0.00  0.00    +0.005 C 
ATOM     16  C   UNL     1      35.145 -21.052 -19.975  0.00  0.00    +0.172 C 
ATOM     17  C   UNL     1      32.782 -20.709 -20.344  0.00  0.00    +0.040 C 
ATOM     18  C   UNL     1      33.838 -21.541 -19.972  0.00  0.00    +0.172 C 
BRANCH  16  19
ATOM     19  O   UNL     1      36.185 -21.854 -19.614  0.00  0.00    -0.468 OA
ATOM     20  C   UNL     1      36.755 -21.636 -18.325  0.00  0.00    +0.253 C 
ENDBRANCH  16  19
BRANCH  18  21
ATOM     21  O   UNL     1      33.582 -22.828 -19.608  0.00  0.00    -0.468 OA
ATOM     22  C   UNL     1      33.402 -23.084 -18.217  0.00  0.00    +0.253 C 
ENDBRANCH  18  21
ENDBRANCH   8  13
BRANCH  10  23
ATOM     23  O   UNL     1      33.475 -16.246 -26.496  0.00  0.00    -0.468 OA
ATOM     24  C   UNL     1      32.925 -14.956 -26.754  0.00  0.00    +0.253 C 
ENDBRANCH  10  23
BRANCH  11  25
ATOM     25  O   UNL     1      34.931 -18.529 -25.874  0.00  0.00    -0.468 OA
ATOM     26  C   UNL     1      34.855 -19.928 -25.609  0.00  0.00    +0.253 C 
ENDBRANCH  11  25
BRANCH   3  27
ATOM     27  C   UNL     1      32.136 -15.421 -20.845  0.00  0.00    +0.010 C 
ATOM     28  C   UNL     1      32.156 -14.655 -19.534  0.00  0.00    +0.001 C 
ENDBRANCH   3  27
TORSDOF 6
ENDMDL
MODEL 9
REMARK VINA RESULT:      -5.2     10.600     14.592
REMARK  Name = 5502
REMARK  6 active torsions:
REMARK  status: ('A' for Active; 'I' for Inactive)
REMARK    1  A    between atoms: C_3  and  C_27
REMARK    2  A    between atoms: C_8  and  C_13
REMARK    3  A    between atoms: C_10  and  O_23
REMARK    4  A    between atoms: C_11  and  O_25
REMARK    5  A    between atoms: C_16  and  O_19
REMARK    6  A    between atoms: C_18  and  O_21
REMARK                            x       y       z     vdW  Elec       q    Type
REMARK                         _______ _______ _______ _____ _____    ______ ____
ROOT
ATOM      1  N   UNL     1      34.556 -11.953 -26.130  0.00  0.00    -0.156 NA
ATOM      2  N   UNL     1      33.756 -11.659 -25.036  0.00  0.00    -0.149 NA
ATOM      3  C   UNL     1      33.342 -14.116 -26.518  0.00  0.00    +0.060 C 
ATOM      4  C   UNL     1      33.781 -14.727 -25.209  0.00  0.00    -0.012 C 
ATOM      5  C   UNL     1      33.964 -13.938 -24.064  0.00  0.00    +0.019 C 
ATOM      6  C   UNL     1      34.314 -12.999 -26.856  0.00  0.00    +0.062 C 
ATOM      7  C   UNL     1      34.088 -16.094 -25.142  0.00  0.00    +0.036 C 
ATOM      8  C   UNL     1      33.548 -12.513 -24.079  0.00  0.00    +0.103 C 
ATOM      9  C   UNL     1      34.469 -14.502 -22.885  0.00  0.00    +0.041 C 
ATOM     10  C   UNL     1      34.578 -16.658 -23.963  0.00  0.00    +0.172 C 
ATOM     11  C   UNL     1      34.776 -15.861 -22.838  0.00  0.00    +0.172 C 
ATOM     12  C   UNL     1      35.144 -13.173 -28.107  0.00  0.00    +0.049 C 
ENDROOT
BRANCH   8  13
ATOM     13  C   UNL     1      32.750 -12.011 -22.920  0.00  0.00    +0.023 C 
ATOM     14  C   UNL     1      32.548 -10.646 -22.768  0.00  0.00    +0.042 C 
ATOM     15  C   UNL     1      32.222 -12.917 -22.009  0.00  0.00    +0.005 C 
ATOM     16  C   UNL     1      31.805 -10.177 -21.684  0.00  0.00    +0.172 C 
ATOM     17  C   UNL     1      31.479 -12.449 -20.926  0.00  0.00    +0.040 C 
ATOM     18  C   UNL     1      31.269 -11.079 -20.763  0.00  0.00    +0.172 C 
BRANCH  16  19
ATOM     19  O   UNL     1      31.607  -8.838 -21.536  0.00  0.00    -0.468 OA
ATOM     20  C   UNL     1      32.646  -8.095 -20.902  0.00  0.00    +0.253 C 
ENDBRANCH  16  19
BRANCH  18  21
ATOM     21  O   UNL     1      30.542 -10.634 -19.702  0.00  0.00    -0.468 OA
ATOM     22  C   UNL     1      31.196 -10.605 -18.435  0.00  0.00    +0.253 C 
ENDBRANCH  18  21
ENDBRANCH   8  13
BRANCH  10  23
ATOM     23  O   UNL     1      34.872 -17.988 -23.930  0.00  0.00    -0.468 OA
ATOM     24  C   UNL     1      34.314 -18.801 -24.960  0.00  0.00    +0.253 C 
ENDBRANCH  10  23
BRANCH  11  25
ATOM     25  O   UNL     1      35.263 -16.399 -21.686  0.00  0.00    -0.468 OA
ATOM     26  C   UNL     1      34.664 -15.967 -20.466  0.00  0.00    +0.253 C 
ENDBRANCH  11  25
BRANCH   3  27
ATOM     27  C   UNL     1      31.877 -13.699 -26.584  0.00  0.00    +0.010 C 
ATOM     28  C   UNL     1      31.636 -12.696 -27.698  0.00  0.00    +0.001 C 
ENDBRANCH   3  27
TORSDOF 6
ENDMDL
