MODEL 1
REMARK VINA RESULT:     -11.4      0.000      0.000
REMARK  Name = 657140
REMARK  9 active torsions:
REMARK  status: ('A' for Active; 'I' for Inactive)
REMARK    1  A    between atoms: C_1  and  N_8
REMARK    2  A    between atoms: C_2  and  O_20
REMARK    3  A    between atoms: C_9  and  C_11
REMARK    4  A    between atoms: C_14  and  N_19
REMARK    5  A    between atoms: O_20  and  C_21
REMARK    6  A    between atoms: C_22  and  C_28
REMARK    7  A    between atoms: C_24  and  C_32
REMARK    8  A    between atoms: C_28  and  O_29
REMARK    9  A    between atoms: C_32  and  O_33
REMARK                            x       y       z     vdW  Elec       q    Type
REMARK                         _______ _______ _______ _____ _____    ______ ____
ROOT
ATOM      1  C   UNL     1      31.500 -23.332 -16.290  0.00  0.00    +0.086 C 
ATOM      2  C   UNL     1      32.143 -23.491 -15.074  0.00  0.00    +0.159 C 
ATOM      3  C   UNL     1      30.290 -23.954 -16.555  0.00  0.00    +0.018 C 
ATOM      4  C   UNL     1      31.561 -24.297 -14.096  0.00  0.00    +0.039 C 
ATOM      5  C   UNL     1      29.709 -24.759 -15.576  0.00  0.00    +0.001 C 
ATOM      6  C   UNL     1      30.345 -24.930 -14.345  0.00  0.00    +0.003 C 
ENDROOT
BRANCH   1   8
ATOM      7  O   UNL     1      33.653 -23.943 -18.284  0.00  0.00    -0.270 OA
ATOM      8  N   UNL     1      32.077 -22.516 -17.295  0.00  0.00    -0.278 N 
ATOM      9  C   UNL     1      33.087 -22.842 -18.210  0.00  0.00    +0.250 C 
ATOM     10  H   UNL     1      31.722 -21.599 -17.356  0.00  0.00    +0.155 HD
BRANCH   9  11
ATOM     11  C   UNL     1      33.495 -21.775 -19.111  0.00  0.00    +0.055 C 
ATOM     12  C   UNL     1      34.850 -21.538 -19.342  0.00  0.00    +0.029 C 
ATOM     13  C   UNL     1      32.531 -20.991 -19.745  0.00  0.00    +0.005 C 
ATOM     14  C   UNL     1      35.241 -20.516 -20.208  0.00  0.00    +0.143 C 
ATOM     15  C   UNL     1      32.922 -19.969 -20.610  0.00  0.00    +0.002 C 
ATOM     16  C   UNL     1      34.277 -19.732 -20.841  0.00  0.00    +0.024 C 
BRANCH  14  19
ATOM     17  O   UNL     1      37.448 -21.187 -20.203  0.00  0.00    -0.126 OA
ATOM     18  O   UNL     1      36.974 -19.156 -20.890  0.00  0.00    -0.126 OA
ATOM     19  N   UNL     1      36.620 -20.275 -20.445  0.00  0.00    +0.058 N 
ENDBRANCH  14  19
ENDBRANCH   9  11
ENDBRANCH   1   8
BRANCH   2  20
ATOM     20  O   UNL     1      33.332 -22.881 -14.809  0.00  0.00    -0.452 OA
BRANCH  20  21
ATOM     21  C   UNL     1      34.364 -23.668 -14.325  0.00  0.00    +0.146 C 
ATOM     22  C   UNL     1      35.709 -24.419 -12.491  0.00  0.00    +0.085 C 
ATOM     23  C   UNL     1      34.671 -23.625 -12.977  0.00  0.00    +0.044 C 
ATOM     24  C   UNL     1      36.424 -25.242 -13.360  0.00  0.00    +0.082 C 
ATOM     25  C   UNL     1      35.061 -24.478 -15.203  0.00  0.00    +0.038 C 
ATOM     26  C   UNL     1      36.100 -25.272 -14.716  0.00  0.00    +0.010 C 
BRANCH  22  28
ATOM     27  O   UNL     1      36.942 -23.713 -10.566  0.00  0.00    -0.245 OA
ATOM     28  C   UNL     1      36.023 -24.365 -11.069  0.00  0.00    +0.338 C 
BRANCH  28  29
ATOM     29  O   UNL     1      35.179 -25.126 -10.322  0.00  0.00    -0.477 OA
ATOM     30  H   UNL     1      34.253 -25.023 -10.411  0.00  0.00    +0.295 HD
ENDBRANCH  28  29
ENDBRANCH  22  28
BRANCH  24  32
ATOM     31  O   UNL     1      38.608 -26.216 -13.440  0.00  0.00    -0.245 OA
ATOM     32  C   UNL     1      37.514 -26.082 -12.883  0.00  0.00    +0.338 C 
BRANCH  32  33
ATOM     33  O   UNL     1      37.204 -26.727 -11.727  0.00  0.00    -0.477 OA
ATOM     34  H   UNL     1      36.859 -26.247 -11.000  0.00  0.00    +0.295 HD
ENDBRANCH  32  33
ENDBRANCH  24  32
ENDBRANCH  20  21
ENDBRANCH   2  20
TORSDOF 9
ENDMDL
MODEL 2
REMARK VINA RESULT:     -11.0      0.892      2.154
REMARK  Name = 657140
REMARK  9 active torsions:
REMARK  status: ('A' for Active; 'I' for Inactive)
REMARK    1  A    between atoms: C_1  and  N_8
REMARK    2  A    between atoms: C_2  and  O_20
REMARK    3  A    between atoms: C_9  and  C_11
REMARK    4  A    between atoms: C_14  and  N_19
REMARK    5  A    between atoms: O_20  and  C_21
REMARK    6  A    between atoms: C_22  and  C_28
REMARK    7  A    between atoms: C_24  and  C_32
REMARK    8  A    between atoms: C_28  and  O_29
REMARK    9  A    between atoms: C_32  and  O_33
REMARK                            x       y       z     vdW  Elec       q    Type
REMARK                         _______ _______ _______ _____ _____    ______ ____
ROOT
ATOM      1  C   UNL     1      31.581 -23.293 -16.335  0.00  0.00    +0.086 C 
ATOM      2  C   UNL     1      32.273 -23.499 -15.153  0.00  0.00    +0.159 C 
ATOM      3  C   UNL     1      30.345 -23.878 -16.560  0.00  0.00    +0.018 C 
ATOM      4  C   UNL     1      31.715 -24.315 -14.170  0.00  0.00    +0.039 C 
ATOM      5  C   UNL     1      29.787 -24.694 -15.577  0.00  0.00    +0.001 C 
ATOM      6  C   UNL     1      30.472 -24.912 -14.380  0.00  0.00    +0.003 C 
ENDROOT
BRANCH   1   8
ATOM      7  O   UNL     1      33.710 -23.871 -18.365  0.00  0.00    -0.270 OA
ATOM      8  N   UNL     1      32.133 -22.465 -17.344  0.00  0.00    -0.278 N 
ATOM      9  C   UNL     1      33.133 -22.776 -18.277  0.00  0.00    +0.250 C 
ATOM     10  H   UNL     1      31.768 -21.552 -17.396  0.00  0.00    +0.155 HD
BRANCH   9  11
ATOM     11  C   UNL     1      33.515 -21.701 -19.178  0.00  0.00    +0.055 C 
ATOM     12  C   UNL     1      34.864 -21.440 -19.419  0.00  0.00    +0.029 C 
ATOM     13  C   UNL     1      32.534 -20.932 -19.804  0.00  0.00    +0.005 C 
ATOM     14  C   UNL     1      35.232 -20.410 -20.285  0.00  0.00    +0.143 C 
ATOM     15  C   UNL     1      32.900 -19.902 -20.669  0.00  0.00    +0.002 C 
ATOM     16  C   UNL     1      34.249 -19.641 -20.910  0.00  0.00    +0.024 C 
BRANCH  14  19
ATOM     17  O   UNL     1      36.933 -19.024 -20.994  0.00  0.00    -0.126 OA
ATOM     18  O   UNL     1      37.451 -21.035 -20.282  0.00  0.00    -0.126 OA
ATOM     19  N   UNL     1      36.604 -20.144 -20.532  0.00  0.00    +0.058 N 
ENDBRANCH  14  19
ENDBRANCH   9  11
ENDBRANCH   1   8
BRANCH   2  20
ATOM     20  O   UNL     1      33.488 -22.924 -14.927  0.00  0.00    -0.452 OA
BRANCH  20  21
ATOM     21  C   UNL     1      34.464 -23.702 -14.327  0.00  0.00    +0.146 C 
ATOM     22  C   UNL     1      36.197 -25.346 -14.503  0.00  0.00    +0.085 C 
ATOM     23  C   UNL     1      35.214 -24.564 -15.107  0.00  0.00    +0.044 C 
ATOM     24  C   UNL     1      36.414 -25.256 -13.128  0.00  0.00    +0.082 C 
ATOM     25  C   UNL     1      34.664 -23.598 -12.962  0.00  0.00    +0.038 C 
ATOM     26  C   UNL     1      35.648 -24.381 -12.358  0.00  0.00    +0.010 C 
BRANCH  22  28
ATOM     27  O   UNL     1      36.552 -27.270 -15.879  0.00  0.00    -0.245 OA
ATOM     28  C   UNL     1      36.981 -26.250 -15.335  0.00  0.00    +0.338 C 
BRANCH  28  29
ATOM     29  O   UNL     1      38.275 -25.849 -15.460  0.00  0.00    -0.477 OA
ATOM     30  H   UNL     1      38.759 -26.064 -16.232  0.00  0.00    +0.295 HD
ENDBRANCH  28  29
ENDBRANCH  22  28
BRANCH  24  32
ATOM     31  O   UNL     1      37.212 -27.006 -11.706  0.00  0.00    -0.245 OA
ATOM     32  C   UNL     1      37.433 -26.060 -12.467  0.00  0.00    +0.338 C 
BRANCH  32  33
ATOM     33  O   UNL     1      38.694 -25.656 -12.777  0.00  0.00    -0.477 OA
ATOM     34  H   UNL     1      38.905 -24.743 -12.787  0.00  0.00    +0.295 HD
ENDBRANCH  32  33
ENDBRANCH  24  32
ENDBRANCH  20  21
ENDBRANCH   2  20
TORSDOF 9
ENDMDL
MODEL 3
REMARK VINA RESULT:     -10.9      2.665      8.032
REMARK  Name = 657140
REMARK  9 active torsions:
REMARK  status: ('A' for Active; 'I' for Inactive)
REMARK    1  A    between atoms: C_1  and  N_8
REMARK    2  A    between atoms: C_2  and  O_20
REMARK    3  A    between atoms: C_9  and  C_11
REMARK    4  A    between atoms: C_14  and  N_19
REMARK    5  A    between atoms: O_20  and  C_21
REMARK    6  A    between atoms: C_22  and  C_28
REMARK    7  A    between atoms: C_24  and  C_32
REMARK    8  A    between atoms: C_28  and  O_29
REMARK    9  A    between atoms: C_32  and  O_33
REMARK                            x       y       z     vdW  Elec       q    Type
REMARK                         _______ _______ _______ _____ _____    ______ ____
ROOT
ATOM      1  C   UNL     1      33.794 -23.395 -15.666  0.00  0.00    +0.086 C 
ATOM      2  C   UNL     1      33.749 -23.140 -17.026  0.00  0.00    +0.159 C 
ATOM      3  C   UNL     1      32.652 -23.337 -14.882  0.00  0.00    +0.018 C 
ATOM      4  C   UNL     1      32.530 -22.814 -17.620  0.00  0.00    +0.039 C 
ATOM      5  C   UNL     1      31.433 -23.011 -15.476  0.00  0.00    +0.001 C 
ATOM      6  C   UNL     1      31.372 -22.750 -16.846  0.00  0.00    +0.003 C 
ENDROOT
BRANCH   1   8
ATOM      7  O   UNL     1      35.338 -25.965 -15.684  0.00  0.00    -0.270 OA
ATOM      8  N   UNL     1      35.024 -23.729 -15.048  0.00  0.00    -0.278 N 
ATOM      9  C   UNL     1      35.715 -24.948 -15.080  0.00  0.00    +0.250 C 
ATOM     10  H   UNL     1      35.449 -23.010 -14.525  0.00  0.00    +0.155 HD
BRANCH   9  11
ATOM     11  C   UNL     1      36.952 -24.997 -14.318  0.00  0.00    +0.055 C 
ATOM     12  C   UNL     1      38.104 -25.534 -14.892  0.00  0.00    +0.029 C 
ATOM     13  C   UNL     1      36.987 -24.506 -13.013  0.00  0.00    +0.005 C 
ATOM     14  C   UNL     1      39.292 -25.579 -14.161  0.00  0.00    +0.143 C 
ATOM     15  C   UNL     1      38.173 -24.552 -12.281  0.00  0.00    +0.002 C 
ATOM     16  C   UNL     1      39.326 -25.088 -12.856  0.00  0.00    +0.024 C 
BRANCH  14  19
ATOM     17  O   UNL     1      41.309 -26.686 -14.005  0.00  0.00    -0.126 OA
ATOM     18  O   UNL     1      40.630 -26.026 -15.985  0.00  0.00    -0.126 OA
ATOM     19  N   UNL     1      40.466 -26.123 -14.745  0.00  0.00    +0.058 N 
ENDBRANCH  14  19
ENDBRANCH   9  11
ENDBRANCH   1   8
BRANCH   2  20
ATOM     20  O   UNL     1      34.869 -23.198 -17.801  0.00  0.00    -0.452 OA
BRANCH  20  21
ATOM     21  C   UNL     1      35.138 -22.115 -18.621  0.00  0.00    +0.146 C 
ATOM     22  C   UNL     1      34.391 -20.486 -20.211  0.00  0.00    +0.085 C 
ATOM     23  C   UNL     1      34.119 -21.577 -19.386  0.00  0.00    +0.044 C 
ATOM     24  C   UNL     1      35.678 -19.951 -20.259  0.00  0.00    +0.082 C 
ATOM     25  C   UNL     1      36.422 -21.598 -18.655  0.00  0.00    +0.038 C 
ATOM     26  C   UNL     1      36.693 -20.507 -19.481  0.00  0.00    +0.010 C 
BRANCH  22  28
ATOM     27  O   UNL     1      32.144 -19.783 -20.633  0.00  0.00    -0.245 OA
ATOM     28  C   UNL     1      33.309 -19.928 -21.011  0.00  0.00    +0.338 C 
BRANCH  28  29
ATOM     29  O   UNL     1      33.718 -19.568 -22.257  0.00  0.00    -0.477 OA
ATOM     30  H   UNL     1      33.086 -19.333 -22.908  0.00  0.00    +0.295 HD
ENDBRANCH  28  29
ENDBRANCH  22  28
BRANCH  24  32
ATOM     31  O   UNL     1      36.609 -18.871 -22.180  0.00  0.00    -0.245 OA
ATOM     32  C   UNL     1      35.994 -18.813 -21.111  0.00  0.00    +0.338 C 
BRANCH  32  33
ATOM     33  O   UNL     1      35.533 -17.640 -20.600  0.00  0.00    -0.477 OA
ATOM     34  H   UNL     1      35.629 -16.846 -21.088  0.00  0.00    +0.295 HD
ENDBRANCH  32  33
ENDBRANCH  24  32
ENDBRANCH  20  21
ENDBRANCH   2  20
TORSDOF 9
ENDMDL
MODEL 4
REMARK VINA RESULT:     -10.4      2.864      8.647
REMARK  Name = 657140
REMARK  9 active torsions:
REMARK  status: ('A' for Active; 'I' for Inactive)
REMARK    1  A    between atoms: C_1  and  N_8
REMARK    2  A    between atoms: C_2  and  O_20
REMARK    3  A    between atoms: C_9  and  C_11
REMARK    4  A    between atoms: C_14  and  N_19
REMARK    5  A    between atoms: O_20  and  C_21
REMARK    6  A    between atoms: C_22  and  C_28
REMARK    7  A    between atoms: C_24  and  C_32
REMARK    8  A    between atoms: C_28  and  O_29
REMARK    9  A    between atoms: C_32  and  O_33
REMARK                            x       y       z     vdW  Elec       q    Type
REMARK                         _______ _______ _______ _____ _____    ______ ____
ROOT
ATOM      1  C   UNL     1      34.742 -22.825 -16.474  0.00  0.00    +0.086 C 
ATOM      2  C   UNL     1      35.173 -22.450 -17.736  0.00  0.00    +0.159 C 
ATOM      3  C   UNL     1      35.599 -22.817 -15.386  0.00  0.00    +0.018 C 
ATOM      4  C   UNL     1      36.499 -22.058 -17.915  0.00  0.00    +0.039 C 
ATOM      5  C   UNL     1      36.926 -22.425 -15.565  0.00  0.00    +0.001 C 
ATOM      6  C   UNL     1      37.376 -22.045 -16.831  0.00  0.00    +0.003 C 
ENDROOT
BRANCH   1   8
ATOM      7  O   UNL     1      33.289 -23.552 -13.954  0.00  0.00    -0.270 OA
ATOM      8  N   UNL     1      33.397 -23.224 -16.275  0.00  0.00    -0.278 N 
ATOM      9  C   UNL     1      32.754 -23.557 -15.074  0.00  0.00    +0.250 C 
ATOM     10  H   UNL     1      32.841 -23.275 -17.086  0.00  0.00    +0.155 HD
BRANCH   9  11
ATOM     11  C   UNL     1      31.362 -23.960 -15.190  0.00  0.00    +0.055 C 
ATOM     12  C   UNL     1      30.497 -23.245 -16.019  0.00  0.00    +0.029 C 
ATOM     13  C   UNL     1      30.892 -25.061 -14.476  0.00  0.00    +0.005 C 
ATOM     14  C   UNL     1      29.161 -23.632 -16.132  0.00  0.00    +0.143 C 
ATOM     15  C   UNL     1      29.557 -25.448 -14.588  0.00  0.00    +0.002 C 
ATOM     16  C   UNL     1      28.692 -24.734 -15.416  0.00  0.00    +0.024 C 
BRANCH  14  19
ATOM     17  O   UNL     1      28.031 -21.706 -16.707  0.00  0.00    -0.126 OA
ATOM     18  O   UNL     1      27.773 -23.485 -17.967  0.00  0.00    -0.126 OA
ATOM     19  N   UNL     1      28.279 -22.907 -16.976  0.00  0.00    +0.058 N 
ENDBRANCH  14  19
ENDBRANCH   9  11
ENDBRANCH   1   8
BRANCH   2  20
ATOM     20  O   UNL     1      34.332 -22.455 -18.809  0.00  0.00    -0.452 OA
BRANCH  20  21
ATOM     21  C   UNL     1      34.285 -21.314 -19.592  0.00  0.00    +0.146 C 
ATOM     22  C   UNL     1      35.418 -19.619 -20.850  0.00  0.00    +0.085 C 
ATOM     23  C   UNL     1      35.467 -20.767 -20.061  0.00  0.00    +0.044 C 
ATOM     24  C   UNL     1      34.190 -19.035 -21.158  0.00  0.00    +0.082 C 
ATOM     25  C   UNL     1      33.057 -20.750 -19.887  0.00  0.00    +0.038 C 
ATOM     26  C   UNL     1      33.009 -19.601 -20.677  0.00  0.00    +0.010 C 
BRANCH  22  28
ATOM     27  O   UNL     1      36.786 -18.336 -22.336  0.00  0.00    -0.245 OA
ATOM     28  C   UNL     1      36.669 -19.052 -21.338  0.00  0.00    +0.338 C 
BRANCH  28  29
ATOM     29  O   UNL     1      37.731 -19.398 -20.563  0.00  0.00    -0.477 OA
ATOM     30  H   UNL     1      38.534 -19.668 -20.963  0.00  0.00    +0.295 HD
ENDBRANCH  28  29
ENDBRANCH  22  28
BRANCH  24  32
ATOM     31  O   UNL     1      33.945 -16.688 -21.553  0.00  0.00    -0.245 OA
ATOM     32  C   UNL     1      34.106 -17.835 -21.980  0.00  0.00    +0.338 C 
BRANCH  32  33
ATOM     33  O   UNL     1      34.225 -18.107 -23.307  0.00  0.00    -0.477 OA
ATOM     34  H   UNL     1      33.611 -18.677 -23.726  0.00  0.00    +0.295 HD
ENDBRANCH  32  33
ENDBRANCH  24  32
ENDBRANCH  20  21
ENDBRANCH   2  20
TORSDOF 9
ENDMDL
MODEL 5
REMARK VINA RESULT:     -10.3      6.056     10.156
REMARK  Name = 657140
REMARK  9 active torsions:
REMARK  status: ('A' for Active; 'I' for Inactive)
REMARK    1  A    between atoms: C_1  and  N_8
REMARK    2  A    between atoms: C_2  and  O_20
REMARK    3  A    between atoms: C_9  and  C_11
REMARK    4  A    between atoms: C_14  and  N_19
REMARK    5  A    between atoms: O_20  and  C_21
REMARK    6  A    between atoms: C_22  and  C_28
REMARK    7  A    between atoms: C_24  and  C_32
REMARK    8  A    between atoms: C_28  and  O_29
REMARK    9  A    between atoms: C_32  and  O_33
REMARK                            x       y       z     vdW  Elec       q    Type
REMARK                         _______ _______ _______ _____ _____    ______ ____
ROOT
ATOM      1  C   UNL     1      33.935 -16.130 -23.610  0.00  0.00    +0.086 C 
ATOM      2  C   UNL     1      34.425 -17.243 -22.948  0.00  0.00    +0.159 C 
ATOM      3  C   UNL     1      33.932 -16.055 -24.994  0.00  0.00    +0.018 C 
ATOM      4  C   UNL     1      34.928 -18.311 -23.691  0.00  0.00    +0.039 C 
ATOM      5  C   UNL     1      34.435 -17.124 -25.736  0.00  0.00    +0.001 C 
ATOM      6  C   UNL     1      34.933 -18.252 -25.084  0.00  0.00    +0.003 C 
ENDROOT
BRANCH   1   8
ATOM      7  O   UNL     1      32.836 -13.503 -24.548  0.00  0.00    -0.270 OA
ATOM      8  N   UNL     1      33.419 -15.037 -22.872  0.00  0.00    -0.278 N 
ATOM      9  C   UNL     1      32.913 -13.820 -23.351  0.00  0.00    +0.250 C 
ATOM     10  H   UNL     1      33.416 -15.145 -21.893  0.00  0.00    +0.155 HD
BRANCH   9  11
ATOM     11  C   UNL     1      32.477 -12.871 -22.339  0.00  0.00    +0.055 C 
ATOM     12  C   UNL     1      32.282 -11.532 -22.677  0.00  0.00    +0.029 C 
ATOM     13  C   UNL     1      32.252 -13.300 -21.031  0.00  0.00    +0.005 C 
ATOM     14  C   UNL     1      31.862 -10.622 -21.706  0.00  0.00    +0.143 C 
ATOM     15  C   UNL     1      31.834 -12.391 -20.060  0.00  0.00    +0.002 C 
ATOM     16  C   UNL     1      31.639 -11.052 -20.398  0.00  0.00    +0.024 C 
BRANCH  14  19
ATOM     17  O   UNL     1      31.244  -8.976 -23.198  0.00  0.00    -0.126 OA
ATOM     18  O   UNL     1      31.908  -8.374 -21.194  0.00  0.00    -0.126 OA
ATOM     19  N   UNL     1      31.662  -9.259 -22.049  0.00  0.00    +0.058 N 
ENDBRANCH  14  19
ENDBRANCH   9  11
ENDBRANCH   1   8
BRANCH   2  20
ATOM     20  O   UNL     1      34.428 -17.321 -21.588  0.00  0.00    -0.452 OA
BRANCH  20  21
ATOM     21  C   UNL     1      34.240 -18.569 -21.017  0.00  0.00    +0.146 C 
ATOM     22  C   UNL     1      35.141 -20.510 -19.940  0.00  0.00    +0.085 C 
ATOM     23  C   UNL     1      35.332 -19.254 -20.516  0.00  0.00    +0.044 C 
ATOM     24  C   UNL     1      33.861 -21.061 -19.875  0.00  0.00    +0.082 C 
ATOM     25  C   UNL     1      32.962 -19.098 -20.961  0.00  0.00    +0.038 C 
ATOM     26  C   UNL     1      32.772 -20.354 -20.385  0.00  0.00    +0.010 C 
BRANCH  22  28
ATOM     27  O   UNL     1      36.698 -21.174 -18.250  0.00  0.00    -0.245 OA
ATOM     28  C   UNL     1      36.299 -21.223 -19.416  0.00  0.00    +0.338 C 
BRANCH  28  29
ATOM     29  O   UNL     1      36.919 -21.973 -20.365  0.00  0.00    -0.477 OA
ATOM     30  H   UNL     1      37.513 -22.651 -20.112  0.00  0.00    +0.295 HD
ENDBRANCH  28  29
ENDBRANCH  22  28
BRANCH  24  32
ATOM     31  O   UNL     1      34.233 -23.405 -19.576  0.00  0.00    -0.245 OA
ATOM     32  C   UNL     1      33.629 -22.370 -19.281  0.00  0.00    +0.338 C 
BRANCH  32  33
ATOM     33  O   UNL     1      32.649 -22.344 -18.338  0.00  0.00    -0.477 OA
ATOM     34  H   UNL     1      31.923 -22.933 -18.400  0.00  0.00    +0.295 HD
ENDBRANCH  32  33
ENDBRANCH  24  32
ENDBRANCH  20  21
ENDBRANCH   2  20
TORSDOF 9
ENDMDL
MODEL 6
REMARK VINA RESULT:     -10.2      1.805      2.596
REMARK  Name = 657140
REMARK  9 active torsions:
REMARK  status: ('A' for Active; 'I' for Inactive)
REMARK    1  A    between atoms: C_1  and  N_8
REMARK    2  A    between atoms: C_2  and  O_20
REMARK    3  A    between atoms: C_9  and  C_11
REMARK    4  A    between atoms: C_14  and  N_19
REMARK    5  A    between atoms: O_20  and  C_21
REMARK    6  A    between atoms: C_22  and  C_28
REMARK    7  A    between atoms: C_24  and  C_32
REMARK    8  A    between atoms: C_28  and  O_29
REMARK    9  A    between atoms: C_32  and  O_33
REMARK                            x       y       z     vdW  Elec       q    Type
REMARK                         _______ _______ _______ _____ _____    ______ ____
ROOT
ATOM      1  C   UNL     1      32.879 -22.829 -17.066  0.00  0.00    +0.086 C 
ATOM      2  C   UNL     1      33.386 -23.889 -16.333  0.00  0.00    +0.159 C 
ATOM      3  C   UNL     1      31.535 -22.495 -17.019  0.00  0.00    +0.018 C 
ATOM      4  C   UNL     1      32.524 -24.637 -15.530  0.00  0.00    +0.039 C 
ATOM      5  C   UNL     1      30.674 -23.243 -16.216  0.00  0.00    +0.001 C 
ATOM      6  C   UNL     1      31.169 -24.314 -15.471  0.00  0.00    +0.003 C 
ENDROOT
BRANCH   1   8
ATOM      7  O   UNL     1      32.697 -22.162 -19.983  0.00  0.00    -0.270 OA
ATOM      8  N   UNL     1      33.741 -22.059 -17.885  0.00  0.00    -0.278 N 
ATOM      9  C   UNL     1      33.619 -21.770 -19.252  0.00  0.00    +0.250 C 
ATOM     10  H   UNL     1      34.529 -21.677 -17.435  0.00  0.00    +0.155 HD
BRANCH   9  11
ATOM     11  C   UNL     1      34.687 -20.968 -19.828  0.00  0.00    +0.055 C 
ATOM     12  C   UNL     1      34.384 -19.954 -20.737  0.00  0.00    +0.029 C 
ATOM     13  C   UNL     1      36.013 -21.212 -19.471  0.00  0.00    +0.005 C 
ATOM     14  C   UNL     1      35.408 -19.184 -21.288  0.00  0.00    +0.143 C 
ATOM     15  C   UNL     1      37.037 -20.443 -20.023  0.00  0.00    +0.002 C 
ATOM     16  C   UNL     1      36.734 -19.429 -20.931  0.00  0.00    +0.024 C 
BRANCH  14  19
ATOM     17  O   UNL     1      34.229 -17.301 -21.907  0.00  0.00    -0.126 OA
ATOM     18  O   UNL     1      35.711 -18.114 -23.309  0.00  0.00    -0.126 OA
ATOM     19  N   UNL     1      35.102 -18.150 -22.212  0.00  0.00    +0.058 N 
ENDBRANCH  14  19
ENDBRANCH   9  11
ENDBRANCH   1   8
BRANCH   2  20
ATOM     20  O   UNL     1      34.707 -24.221 -16.375  0.00  0.00    -0.452 OA
BRANCH  20  21
ATOM     21  C   UNL     1      35.479 -23.921 -15.265  0.00  0.00    +0.146 C 
ATOM     22  C   UNL     1      36.152 -24.408 -13.018  0.00  0.00    +0.085 C 
ATOM     23  C   UNL     1      35.373 -24.711 -14.135  0.00  0.00    +0.044 C 
ATOM     24  C   UNL     1      37.025 -23.321 -13.050  0.00  0.00    +0.082 C 
ATOM     25  C   UNL     1      36.340 -22.838 -15.317  0.00  0.00    +0.038 C 
ATOM     26  C   UNL     1      37.119 -22.537 -14.199  0.00  0.00    +0.010 C 
BRANCH  22  28
ATOM     27  O   UNL     1      35.334 -24.991 -10.847  0.00  0.00    -0.245 OA
ATOM     28  C   UNL     1      36.030 -25.247 -11.833  0.00  0.00    +0.338 C 
BRANCH  28  29
ATOM     29  O   UNL     1      36.781 -26.378 -11.919  0.00  0.00    -0.477 OA
ATOM     30  H   UNL     1      37.283 -26.549 -12.690  0.00  0.00    +0.295 HD
ENDBRANCH  28  29
ENDBRANCH  22  28
BRANCH  24  32
ATOM     31  O   UNL     1      39.047 -23.259 -11.772  0.00  0.00    -0.245 OA
ATOM     32  C   UNL     1      37.851 -22.979 -11.901  0.00  0.00    +0.338 C 
BRANCH  32  33
ATOM     33  O   UNL     1      37.158 -22.299 -10.948  0.00  0.00    -0.477 OA
ATOM     34  H   UNL     1      37.100 -21.365 -10.988  0.00  0.00    +0.295 HD
ENDBRANCH  32  33
ENDBRANCH  24  32
ENDBRANCH  20  21
ENDBRANCH   2  20
TORSDOF 9
ENDMDL
MODEL 7
REMARK VINA RESULT:     -10.2      2.440      7.634
REMARK  Name = 657140
REMARK  9 active torsions:
REMARK  status: ('A' for Active; 'I' for Inactive)
REMARK    1  A    between atoms: C_1  and  N_8
REMARK    2  A    between atoms: C_2  and  O_20
REMARK    3  A    between atoms: C_9  and  C_11
REMARK    4  A    between atoms: C_14  and  N_19
REMARK    5  A    between atoms: O_20  and  C_21
REMARK    6  A    between atoms: C_22  and  C_28
REMARK    7  A    between atoms: C_24  and  C_32
REMARK    8  A    between atoms: C_28  and  O_29
REMARK    9  A    between atoms: C_32  and  O_33
REMARK                            x       y       z     vdW  Elec       q    Type
REMARK                         _______ _______ _______ _____ _____    ______ ____
ROOT
ATOM      1  C   UNL     1      33.042 -23.308 -15.067  0.00  0.00    +0.086 C 
ATOM      2  C   UNL     1      32.862 -23.245 -16.438  0.00  0.00    +0.159 C 
ATOM      3  C   UNL     1      31.973 -23.201 -14.192  0.00  0.00    +0.018 C 
ATOM      4  C   UNL     1      31.576 -23.066 -16.950  0.00  0.00    +0.039 C 
ATOM      5  C   UNL     1      30.688 -23.022 -14.703  0.00  0.00    +0.001 C 
ATOM      6  C   UNL     1      30.490 -22.955 -16.083  0.00  0.00    +0.003 C 
ENDROOT
BRANCH   1   8
ATOM      7  O   UNL     1      35.006 -25.539 -15.462  0.00  0.00    -0.270 OA
ATOM      8  N   UNL     1      34.341 -23.491 -14.531  0.00  0.00    -0.278 N 
ATOM      9  C   UNL     1      35.230 -24.554 -14.742  0.00  0.00    +0.250 C 
ATOM     10  H   UNL     1      34.660 -22.778 -13.931  0.00  0.00    +0.155 HD
BRANCH   9  11
ATOM     11  C   UNL     1      36.494 -24.475 -14.026  0.00  0.00    +0.055 C 
ATOM     12  C   UNL     1      37.636 -25.073 -14.559  0.00  0.00    +0.029 C 
ATOM     13  C   UNL     1      36.564 -23.800 -12.807  0.00  0.00    +0.005 C 
ATOM     14  C   UNL     1      38.848 -24.995 -13.873  0.00  0.00    +0.143 C 
ATOM     15  C   UNL     1      37.776 -23.723 -12.121  0.00  0.00    +0.002 C 
ATOM     16  C   UNL     1      38.918 -24.321 -12.654  0.00  0.00    +0.024 C 
BRANCH  14  19
ATOM     17  O   UNL     1      41.013 -24.886 -14.661  0.00  0.00    -0.126 OA
ATOM     18  O   UNL     1      40.008 -26.837 -14.636  0.00  0.00    -0.126 OA
ATOM     19  N   UNL     1      40.012 -25.602 -14.416  0.00  0.00    +0.058 N 
ENDBRANCH  14  19
ENDBRANCH   9  11
ENDBRANCH   1   8
BRANCH   2  20
ATOM     20  O   UNL     1      33.910 -23.352 -17.303  0.00  0.00    -0.452 OA
BRANCH  20  21
ATOM     21  C   UNL     1      34.033 -22.383 -18.285  0.00  0.00    +0.146 C 
ATOM     22  C   UNL     1      35.418 -20.995 -19.661  0.00  0.00    +0.085 C 
ATOM     23  C   UNL     1      35.295 -21.969 -18.671  0.00  0.00    +0.044 C 
ATOM     24  C   UNL     1      34.276 -20.449 -20.249  0.00  0.00    +0.082 C 
ATOM     25  C   UNL     1      32.889 -21.855 -18.856  0.00  0.00    +0.038 C 
ATOM     26  C   UNL     1      33.012 -20.880 -19.846  0.00  0.00    +0.010 C 
BRANCH  22  28
ATOM     27  O   UNL     1      37.160 -19.402 -20.049  0.00  0.00    -0.245 OA
ATOM     28  C   UNL     1      36.752 -20.567 -20.059  0.00  0.00    +0.338 C 
BRANCH  28  29
ATOM     29  O   UNL     1      37.533 -21.606 -20.456  0.00  0.00    -0.477 OA
ATOM     30  H   UNL     1      38.382 -21.725 -20.078  0.00  0.00    +0.295 HD
ENDBRANCH  28  29
ENDBRANCH  22  28
BRANCH  24  32
ATOM     31  O   UNL     1      34.347 -19.642 -22.500  0.00  0.00    -0.245 OA
ATOM     32  C   UNL     1      34.371 -19.429 -21.284  0.00  0.00    +0.338 C 
BRANCH  32  33
ATOM     33  O   UNL     1      34.492 -18.177 -20.768  0.00  0.00    -0.477 OA
ATOM     34  H   UNL     1      34.369 -18.034 -19.850  0.00  0.00    +0.295 HD
ENDBRANCH  32  33
ENDBRANCH  24  32
ENDBRANCH  20  21
ENDBRANCH   2  20
TORSDOF 9
ENDMDL
MODEL 8
REMARK VINA RESULT:     -10.2      2.829      8.228
REMARK  Name = 657140
REMARK  9 active torsions:
REMARK  status: ('A' for Active; 'I' for Inactive)
REMARK    1  A    between atoms: C_1  and  N_8
REMARK    2  A    between atoms: C_2  and  O_20
REMARK    3  A    between atoms: C_9  and  C_11
REMARK    4  A    between atoms: C_14  and  N_19
REMARK    5  A    between atoms: O_20  and  C_21
REMARK    6  A    between atoms: C_22  and  C_28
REMARK    7  A    between atoms: C_24  and  C_32
REMARK    8  A    between atoms: C_28  and  O_29
REMARK    9  A    between atoms: C_32  and  O_33
REMARK                            x       y       z     vdW  Elec       q    Type
REMARK                         _______ _______ _______ _____ _____    ______ ____
ROOT
ATOM      1  C   UNL     1      34.834 -23.184 -15.544  0.00  0.00    +0.086 C 
ATOM      2  C   UNL     1      35.498 -22.944 -16.735  0.00  0.00    +0.159 C 
ATOM      3  C   UNL     1      35.487 -23.108 -14.324  0.00  0.00    +0.018 C 
ATOM      4  C   UNL     1      36.854 -22.619 -16.706  0.00  0.00    +0.039 C 
ATOM      5  C   UNL     1      36.843 -22.783 -14.295  0.00  0.00    +0.001 C 
ATOM      6  C   UNL     1      37.527 -22.538 -15.487  0.00  0.00    +0.003 C 
ENDROOT
BRANCH   1   8
ATOM      7  O   UNL     1      32.912 -23.563 -13.274  0.00  0.00    -0.270 OA
ATOM      8  N   UNL     1      33.456 -23.514 -15.556  0.00  0.00    -0.278 N 
ATOM      9  C   UNL     1      32.589 -23.683 -14.467  0.00  0.00    +0.250 C 
ATOM     10  H   UNL     1      33.055 -23.642 -16.446  0.00  0.00    +0.155 HD
BRANCH   9  11
ATOM     11  C   UNL     1      31.221 -24.051 -14.796  0.00  0.00    +0.055 C 
ATOM     12  C   UNL     1      30.481 -23.265 -15.679  0.00  0.00    +0.029 C 
ATOM     13  C   UNL     1      30.650 -25.191 -14.230  0.00  0.00    +0.005 C 
ATOM     14  C   UNL     1      29.170 -23.619 -15.996  0.00  0.00    +0.143 C 
ATOM     15  C   UNL     1      29.339 -25.545 -14.546  0.00  0.00    +0.002 C 
ATOM     16  C   UNL     1      28.599 -24.759 -15.429  0.00  0.00    +0.024 C 
BRANCH  14  19
ATOM     17  O   UNL     1      28.098 -21.655 -16.556  0.00  0.00    -0.126 OA
ATOM     18  O   UNL     1      28.087 -23.302 -18.007  0.00  0.00    -0.126 OA
ATOM     19  N   UNL     1      28.415 -22.821 -16.896  0.00  0.00    +0.058 N 
ENDBRANCH  14  19
ENDBRANCH   9  11
ENDBRANCH   1   8
BRANCH   2  20
ATOM     20  O   UNL     1      34.860 -23.016 -17.937  0.00  0.00    -0.452 OA
BRANCH  20  21
ATOM     21  C   UNL     1      35.028 -21.961 -18.817  0.00  0.00    +0.146 C 
ATOM     22  C   UNL     1      34.081 -20.265 -20.220  0.00  0.00    +0.085 C 
ATOM     23  C   UNL     1      33.911 -21.329 -19.334  0.00  0.00    +0.044 C 
ATOM     24  C   UNL     1      35.365 -19.850 -20.574  0.00  0.00    +0.082 C 
ATOM     25  C   UNL     1      36.309 -21.564 -19.156  0.00  0.00    +0.038 C 
ATOM     26  C   UNL     1      36.479 -20.500 -20.042  0.00  0.00    +0.010 C 
BRANCH  22  28
ATOM     27  O   UNL     1      32.633 -18.408 -20.640  0.00  0.00    -0.245 OA
ATOM     28  C   UNL     1      32.898 -19.607 -20.758  0.00  0.00    +0.338 C 
BRANCH  28  29
ATOM     29  O   UNL     1      32.085 -20.468 -21.426  0.00  0.00    -0.477 OA
ATOM     30  H   UNL     1      32.161 -21.391 -21.283  0.00  0.00    +0.295 HD
ENDBRANCH  28  29
ENDBRANCH  22  28
BRANCH  24  32
ATOM     31  O   UNL     1      35.766 -18.853 -22.712  0.00  0.00    -0.245 OA
ATOM     32  C   UNL     1      35.576 -18.743 -21.497  0.00  0.00    +0.338 C 
BRANCH  32  33
ATOM     33  O   UNL     1      35.543 -17.535 -20.873  0.00  0.00    -0.477 OA
ATOM     34  H   UNL     1      36.339 -17.134 -20.586  0.00  0.00    +0.295 HD
ENDBRANCH  32  33
ENDBRANCH  24  32
ENDBRANCH  20  21
ENDBRANCH   2  20
TORSDOF 9
ENDMDL
MODEL 9
REMARK VINA RESULT:     -10.1      5.235     11.687
REMARK  Name = 657140
REMARK  9 active torsions:
REMARK  status: ('A' for Active; 'I' for Inactive)
REMARK    1  A    between atoms: C_1  and  N_8
REMARK    2  A    between atoms: C_2  and  O_20
REMARK    3  A    between atoms: C_9  and  C_11
REMARK    4  A    between atoms: C_14  and  N_19
REMARK    5  A    between atoms: O_20  and  C_21
REMARK    6  A    between atoms: C_22  and  C_28
REMARK    7  A    between atoms: C_24  and  C_32
REMARK    8  A    between atoms: C_28  and  O_29
REMARK    9  A    between atoms: C_32  and  O_33
REMARK                            x       y       z     vdW  Elec       q    Type
REMARK                         _______ _______ _______ _____ _____    ______ ____
ROOT
ATOM      1  C   UNL     1      34.832 -18.375 -23.230  0.00  0.00    +0.086 C 
ATOM      2  C   UNL     1      34.662 -17.013 -23.045  0.00  0.00    +0.159 C 
ATOM      3  C   UNL     1      34.784 -18.944 -24.493  0.00  0.00    +0.018 C 
ATOM      4  C   UNL     1      34.437 -16.197 -24.153  0.00  0.00    +0.039 C 
ATOM      5  C   UNL     1      34.559 -18.127 -25.601  0.00  0.00    +0.001 C 
ATOM      6  C   UNL     1      34.386 -16.753 -25.431  0.00  0.00    +0.003 C 
ENDROOT
BRANCH   1   8
ATOM      7  O   UNL     1      32.891 -19.740 -21.398  0.00  0.00    -0.270 OA
ATOM      8  N   UNL     1      35.063 -19.218 -22.115  0.00  0.00    -0.278 N 
ATOM      9  C   UNL     1      34.123 -19.838 -21.281  0.00  0.00    +0.250 C 
ATOM     10  H   UNL     1      36.008 -19.389 -21.898  0.00  0.00    +0.155 HD
BRANCH   9  11
ATOM     11  C   UNL     1      34.668 -20.630 -20.189  0.00  0.00    +0.055 C 
ATOM     12  C   UNL     1      33.827 -21.442 -19.430  0.00  0.00    +0.029 C 
ATOM     13  C   UNL     1      36.032 -20.578 -19.904  0.00  0.00    +0.005 C 
ATOM     14  C   UNL     1      34.350 -22.204 -18.384  0.00  0.00    +0.143 C 
ATOM     15  C   UNL     1      36.556 -21.338 -18.858  0.00  0.00    +0.002 C 
ATOM     16  C   UNL     1      35.714 -22.151 -18.098  0.00  0.00    +0.024 C 
BRANCH  14  19
ATOM     17  O   UNL     1      32.253 -22.876 -17.699  0.00  0.00    -0.126 OA
ATOM     18  O   UNL     1      34.004 -23.899 -16.859  0.00  0.00    -0.126 OA
ATOM     19  N   UNL     1      33.495 -23.032 -17.611  0.00  0.00    +0.058 N 
ENDBRANCH  14  19
ENDBRANCH   9  11
ENDBRANCH   1   8
BRANCH   2  20
ATOM     20  O   UNL     1      34.710 -16.449 -21.806  0.00  0.00    -0.452 OA
BRANCH  20  21
ATOM     21  C   UNL     1      33.940 -15.319 -21.585  0.00  0.00    +0.146 C 
ATOM     22  C   UNL     1      33.238 -13.129 -22.255  0.00  0.00    +0.085 C 
ATOM     23  C   UNL     1      34.015 -14.266 -22.478  0.00  0.00    +0.044 C 
ATOM     24  C   UNL     1      32.400 -13.064 -21.143  0.00  0.00    +0.082 C 
ATOM     25  C   UNL     1      33.114 -15.274 -20.475  0.00  0.00    +0.038 C 
ATOM     26  C   UNL     1      32.338 -14.136 -20.253  0.00  0.00    +0.010 C 
BRANCH  22  28
ATOM     27  O   UNL     1      32.696 -10.968 -23.125  0.00  0.00    -0.245 OA
ATOM     28  C   UNL     1      33.325 -12.026 -23.203  0.00  0.00    +0.338 C 
BRANCH  28  29
ATOM     29  O   UNL     1      34.197 -12.280 -24.216  0.00  0.00    -0.477 OA
ATOM     30  H   UNL     1      34.026 -11.947 -25.074  0.00  0.00    +0.295 HD
ENDBRANCH  28  29
ENDBRANCH  22  28
BRANCH  24  32
ATOM     31  O   UNL     1      31.803 -11.038 -20.018  0.00  0.00    -0.245 OA
ATOM     32  C   UNL     1      31.577 -11.891 -20.882  0.00  0.00    +0.338 C 
BRANCH  32  33
ATOM     33  O   UNL     1      30.499 -11.820 -21.708  0.00  0.00    -0.477 OA
ATOM     34  H   UNL     1      30.607 -11.553 -22.599  0.00  0.00    +0.295 HD
ENDBRANCH  32  33
ENDBRANCH  24  32
ENDBRANCH  20  21
ENDBRANCH   2  20
TORSDOF 9
ENDMDL
