MODEL 1
REMARK VINA RESULT:     -11.0      0.000      0.000
REMARK  Name = 76314940
REMARK  4 active torsions:
REMARK  status: ('A' for Active; 'I' for Inactive)
REMARK    1  A    between atoms: C_14  and  O_23
REMARK    2  A    between atoms: C_18  and  O_21
REMARK    3  A    between atoms: O_23  and  C_25
REMARK    4  A    between atoms: C_25  and  C_26
REMARK                            x       y       z     vdW  Elec       q    Type
REMARK                         _______ _______ _______ _____ _____    ______ ____
ROOT
ATOM      1  O   UNL     1      33.153 -23.149 -17.128  0.00  0.00    -0.469 OA
ATOM      2  N   UNL     1      36.946 -24.644 -13.673  0.00  0.00    +0.387 N 
ATOM      3  C   UNL     1      35.019 -23.845 -15.694  0.00  0.00    +0.062 C 
ATOM      4  C   UNL     1      35.853 -22.814 -14.920  0.00  0.00    -0.007 C 
ATOM      5  C   UNL     1      36.131 -23.424 -13.514  0.00  0.00    -0.053 C 
ATOM      6  C   UNL     1      34.585 -23.442 -17.121  0.00  0.00    +0.225 C 
ATOM      7  C   UNL     1      35.688 -25.236 -15.716  0.00  0.00    -0.015 C 
ATOM      8  C   UNL     1      33.713 -23.805 -15.002  0.00  0.00    +0.014 C 
ATOM      9  C   UNL     1      34.768 -23.656 -12.741  0.00  0.00    +0.005 C 
ATOM     10  C   UNL     1      37.042 -22.355 -15.764  0.00  0.00    +0.027 C 
ATOM     11  C   UNL     1      36.218 -25.711 -14.362  0.00  0.00    -0.077 C 
ATOM     12  C   UNL     1      33.542 -23.779 -13.626  0.00  0.00    -0.025 C 
ATOM     13  C   UNL     1      32.701 -23.473 -15.873  0.00  0.00    +0.168 C 
ATOM     14  C   UNL     1      35.417 -22.319 -17.692  0.00  0.00    +0.162 C 
ATOM     15  C   UNL     1      36.544 -21.869 -17.105  0.00  0.00    +0.011 C 
ATOM     16  C   UNL     1      37.520 -25.117 -12.417  0.00  0.00    -0.101 C 
ATOM     17  C   UNL     1      32.236 -23.666 -13.147  0.00  0.00    -0.001 C 
ATOM     18  C   UNL     1      31.405 -23.332 -15.424  0.00  0.00    +0.172 C 
ATOM     19  C   UNL     1      31.170 -23.473 -14.049  0.00  0.00    +0.040 C 
ATOM     20  H   UNL     1      37.729 -24.376 -14.269  0.00  0.00    -0.080 HD
ENDROOT
BRANCH  18  21
ATOM     21  O   UNL     1      30.391 -23.020 -16.269  0.00  0.00    -0.468 OA
ATOM     22  C   UNL     1      29.122 -22.718 -15.685  0.00  0.00    +0.253 C 
ENDBRANCH  18  21
BRANCH  14  23
ATOM     23  O   UNL     1      34.980 -21.841 -18.910  0.00  0.00    -0.422 OA
BRANCH  23  25
ATOM     24  O   UNL     1      37.114 -21.746 -19.814  0.00  0.00    -0.244 OA
ATOM     25  C   UNL     1      35.969 -21.336 -19.703  0.00  0.00    +0.346 C 
BRANCH  25  26
ATOM     26  C   UNL     1      35.468 -20.146 -20.441  0.00  0.00    +0.076 C 
ATOM     27  C   UNL     1      34.096 -19.947 -20.591  0.00  0.00    +0.006 C 
ATOM     28  C   UNL     1      36.370 -19.231 -20.984  0.00  0.00    +0.006 C 
ATOM     29  C   UNL     1      33.625 -18.832 -21.284  0.00  0.00    +0.000 C 
ATOM     30  C   UNL     1      35.899 -18.115 -21.676  0.00  0.00    +0.000 C 
ATOM     31  C   UNL     1      34.527 -17.916 -21.826  0.00  0.00    +0.000 C 
ENDBRANCH  25  26
ENDBRANCH  23  25
ENDBRANCH  14  23
TORSDOF 4
ENDMDL
MODEL 2
REMARK VINA RESULT:      -9.7      9.685     14.536
REMARK  Name = 76314940
REMARK  4 active torsions:
REMARK  status: ('A' for Active; 'I' for Inactive)
REMARK    1  A    between atoms: C_14  and  O_23
REMARK    2  A    between atoms: C_18  and  O_21
REMARK    3  A    between atoms: O_23  and  C_25
REMARK    4  A    between atoms: C_25  and  C_26
REMARK                            x       y       z     vdW  Elec       q    Type
REMARK                         _______ _______ _______ _____ _____    ______ ____
ROOT
ATOM      1  O   UNL     1      32.648 -11.820 -23.691  0.00  0.00    -0.469 OA
ATOM      2  N   UNL     1      31.653  -7.005 -21.597  0.00  0.00    +0.387 N 
ATOM      3  C   UNL     1      32.033  -9.688 -22.644  0.00  0.00    +0.062 C 
ATOM      4  C   UNL     1      32.673  -9.238 -21.323  0.00  0.00    -0.007 C 
ATOM      5  C   UNL     1      32.943  -7.709 -21.451  0.00  0.00    -0.053 C 
ATOM      6  C   UNL     1      31.705 -11.192 -22.768  0.00  0.00    +0.225 C 
ATOM      7  C   UNL     1      30.792  -8.843 -23.007  0.00  0.00    -0.015 C 
ATOM      8  C   UNL     1      33.148  -9.583 -23.609  0.00  0.00    +0.014 C 
ATOM      9  C   UNL     1      33.965  -7.432 -22.630  0.00  0.00    +0.005 C 
ATOM     10  C   UNL     1      31.846  -9.736 -20.138  0.00  0.00    +0.027 C 
ATOM     11  C   UNL     1      30.982  -7.333 -22.856  0.00  0.00    -0.077 C 
ATOM     12  C   UNL     1      34.038  -8.521 -23.683  0.00  0.00    -0.025 C 
ATOM     13  C   UNL     1      33.401 -10.795 -24.208  0.00  0.00    +0.168 C 
ATOM     14  C   UNL     1      31.640 -11.891 -21.431  0.00  0.00    +0.162 C 
ATOM     15  C   UNL     1      31.654 -11.230 -20.257  0.00  0.00    +0.011 C 
ATOM     16  C   UNL     1      31.766  -5.561 -21.414  0.00  0.00    -0.101 C 
ATOM     17  C   UNL     1      35.078  -8.625 -24.609  0.00  0.00    -0.001 C 
ATOM     18  C   UNL     1      34.437 -10.932 -25.109  0.00  0.00    +0.172 C 
ATOM     19  C   UNL     1      35.255  -9.817 -25.338  0.00  0.00    +0.040 C 
ATOM     20  H   UNL     1      31.065  -7.351 -20.839  0.00  0.00    -0.080 HD
ENDROOT
BRANCH  18  21
ATOM     21  O   UNL     1      34.692 -12.114 -25.722  0.00  0.00    -0.468 OA
ATOM     22  C   UNL     1      33.711 -12.599 -26.641  0.00  0.00    +0.253 C 
ENDBRANCH  18  21
BRANCH  14  23
ATOM     23  O   UNL     1      31.479 -13.259 -21.505  0.00  0.00    -0.422 OA
BRANCH  23  25
ATOM     24  O   UNL     1      32.632 -13.986 -19.627  0.00  0.00    -0.244 OA
ATOM     25  C   UNL     1      32.428 -13.973 -20.831  0.00  0.00    +0.346 C 
BRANCH  25  26
ATOM     26  C   UNL     1      33.244 -14.761 -21.792  0.00  0.00    +0.076 C 
ATOM     27  C   UNL     1      34.241 -15.616 -21.322  0.00  0.00    +0.006 C 
ATOM     28  C   UNL     1      33.013 -14.645 -23.163  0.00  0.00    +0.006 C 
ATOM     29  C   UNL     1      35.008 -16.354 -22.223  0.00  0.00    +0.000 C 
ATOM     30  C   UNL     1      33.780 -15.384 -24.064  0.00  0.00    +0.000 C 
ATOM     31  C   UNL     1      34.777 -16.238 -23.594  0.00  0.00    +0.000 C 
ENDBRANCH  25  26
ENDBRANCH  23  25
ENDBRANCH  14  23
TORSDOF 4
ENDMDL
MODEL 3
REMARK VINA RESULT:      -8.8      2.741      7.102
REMARK  Name = 76314940
REMARK  4 active torsions:
REMARK  status: ('A' for Active; 'I' for Inactive)
REMARK    1  A    between atoms: C_14  and  O_23
REMARK    2  A    between atoms: C_18  and  O_21
REMARK    3  A    between atoms: O_23  and  C_25
REMARK    4  A    between atoms: C_25  and  C_26
REMARK                            x       y       z     vdW  Elec       q    Type
REMARK                         _______ _______ _______ _____ _____    ______ ____
ROOT
ATOM      1  O   UNL     1      34.996 -23.548 -15.286  0.00  0.00    -0.469 OA
ATOM      2  N   UNL     1      29.704 -24.240 -15.002  0.00  0.00    +0.387 N 
ATOM      3  C   UNL     1      32.595 -23.961 -14.986  0.00  0.00    +0.062 C 
ATOM      4  C   UNL     1      31.677 -22.896 -14.370  0.00  0.00    -0.007 C 
ATOM      5  C   UNL     1      30.348 -22.923 -15.180  0.00  0.00    -0.053 C 
ATOM      6  C   UNL     1      34.003 -24.095 -14.364  0.00  0.00    +0.225 C 
ATOM      7  C   UNL     1      31.914 -25.345 -15.060  0.00  0.00    -0.015 C 
ATOM      8  C   UNL     1      32.945 -23.380 -16.301  0.00  0.00    +0.014 C 
ATOM      9  C   UNL     1      30.623 -22.540 -16.693  0.00  0.00    +0.005 C 
ATOM     10  C   UNL     1      31.610 -23.071 -12.853  0.00  0.00    +0.027 C 
ATOM     11  C   UNL     1      30.484 -25.324 -15.603  0.00  0.00    -0.077 C 
ATOM     12  C   UNL     1      32.049 -22.763 -17.161  0.00  0.00    -0.025 C 
ATOM     13  C   UNL     1      34.306 -23.234 -16.431  0.00  0.00    +0.168 C 
ATOM     14  C   UNL     1      34.092 -23.494 -12.982  0.00  0.00    +0.162 C 
ATOM     15  C   UNL     1      33.012 -23.082 -12.289  0.00  0.00    +0.011 C 
ATOM     16  C   UNL     1      28.318 -24.266 -15.459  0.00  0.00    -0.101 C 
ATOM     17  C   UNL     1      32.569 -22.204 -18.329  0.00  0.00    -0.001 C 
ATOM     18  C   UNL     1      34.847 -22.664 -17.565  0.00  0.00    +0.172 C 
ATOM     19  C   UNL     1      33.962 -22.183 -18.540  0.00  0.00    +0.040 C 
ATOM     20  H   UNL     1      29.683 -24.401 -13.996  0.00  0.00    -0.080 HD
ENDROOT
BRANCH  18  21
ATOM     21  O   UNL     1      36.187 -22.525 -17.719  0.00  0.00    -0.468 OA
ATOM     22  C   UNL     1      36.640 -21.527 -18.636  0.00  0.00    +0.253 C 
ENDBRANCH  18  21
BRANCH  14  23
ATOM     23  O   UNL     1      35.363 -23.477 -12.443  0.00  0.00    -0.422 OA
BRANCH  23  25
ATOM     24  O   UNL     1      35.346 -25.299 -11.008  0.00  0.00    -0.244 OA
ATOM     25  C   UNL     1      35.788 -24.683 -11.966  0.00  0.00    +0.346 C 
BRANCH  25  26
ATOM     26  C   UNL     1      36.929 -25.176 -12.781  0.00  0.00    +0.076 C 
ATOM     27  C   UNL     1      38.201 -24.636 -12.596  0.00  0.00    +0.006 C 
ATOM     28  C   UNL     1      36.727 -26.178 -13.730  0.00  0.00    +0.006 C 
ATOM     29  C   UNL     1      39.272 -25.096 -13.361  0.00  0.00    +0.000 C 
ATOM     30  C   UNL     1      37.799 -26.639 -14.495  0.00  0.00    +0.000 C 
ATOM     31  C   UNL     1      39.071 -26.099 -14.310  0.00  0.00    +0.000 C 
ENDBRANCH  25  26
ENDBRANCH  23  25
ENDBRANCH  14  23
TORSDOF 4
ENDMDL
