MODEL 1
REMARK VINA RESULT:      -7.6      0.000      0.000
REMARK  Name = 119570
REMARK  3 active torsions:
REMARK  status: ('A' for Active; 'I' for Inactive)
REMARK    1  A    between atoms: C_4  and  N_13
REMARK    2  A    between atoms: N_13  and  C_16
REMARK    3  A    between atoms: C_16  and  C_17
REMARK                            x       y       z     vdW  Elec       q    Type
REMARK                         _______ _______ _______ _____ _____    ______ ____
ROOT
ATOM      1  S   UNL     1      33.472 -14.453 -24.012  0.00  0.00    -0.062 S 
ATOM      2  N   UNL     1      33.889 -16.100 -25.969  0.00  0.00    -0.389 NA
ATOM      3  N   UNL     1      33.016 -13.992 -26.594  0.00  0.00    -0.328 N 
ATOM      4  C   UNL     1      35.305 -17.725 -22.330  0.00  0.00    -0.060 C 
ATOM      5  C   UNL     1      34.801 -18.728 -23.392  0.00  0.00    -0.014 C 
ATOM      6  C   UNL     1      34.410 -16.465 -22.265  0.00  0.00    -0.003 C 
ATOM      7  C   UNL     1      34.807 -18.115 -24.805  0.00  0.00    +0.053 C 
ATOM      8  C   UNL     1      34.104 -15.989 -23.646  0.00  0.00    +0.101 C 
ATOM      9  C   UNL     1      34.256 -16.733 -24.800  0.00  0.00    +0.099 C 
ATOM     10  C   UNL     1      33.460 -14.891 -25.675  0.00  0.00    +0.204 C 
ATOM     11  H   UNL     1      32.706 -13.103 -26.304  0.00  0.00    +0.145 HD
ATOM     12  H   UNL     1      33.002 -14.230 -27.549  0.00  0.00    +0.145 HD
ENDROOT
BRANCH   4  13
ATOM     13  N   UNL     1      35.345 -18.363 -21.015  0.00  0.00    +0.385 N 
ATOM     14  H   UNL     1      34.529 -18.069 -20.477  0.00  0.00    -0.084 HD
ATOM     15  H   UNL     1      36.203 -18.083 -20.542  0.00  0.00    -0.084 HD
BRANCH  13  16
ATOM     16  C   UNL     1      35.334 -19.812 -21.143  0.00  0.00    -0.082 C 
BRANCH  16  17
ATOM     17  C   UNL     1      34.313 -20.431 -20.194  0.00  0.00    -0.023 C 
ATOM     18  C   UNL     1      32.882 -20.029 -20.524  0.00  0.00    -0.002 C 
ENDBRANCH  16  17
ENDBRANCH  13  16
ENDBRANCH   4  13
TORSDOF 3
ENDMDL
MODEL 2
REMARK VINA RESULT:      -7.3      1.258      1.356
REMARK  Name = 119570
REMARK  3 active torsions:
REMARK  status: ('A' for Active; 'I' for Inactive)
REMARK    1  A    between atoms: C_4  and  N_13
REMARK    2  A    between atoms: N_13  and  C_16
REMARK    3  A    between atoms: C_16  and  C_17
REMARK                            x       y       z     vdW  Elec       q    Type
REMARK                         _______ _______ _______ _____ _____    ______ ____
ROOT
ATOM      1  S   UNL     1      33.977 -14.609 -22.112  0.00  0.00    -0.062 S 
ATOM      2  N   UNL     1      34.115 -15.674 -24.471  0.00  0.00    -0.389 NA
ATOM      3  N   UNL     1      33.270 -13.465 -24.409  0.00  0.00    -0.328 N 
ATOM      4  C   UNL     1      35.838 -18.236 -21.581  0.00  0.00    -0.060 C 
ATOM      5  C   UNL     1      35.183 -18.909 -22.807  0.00  0.00    -0.014 C 
ATOM      6  C   UNL     1      35.009 -17.030 -21.082  0.00  0.00    -0.003 C 
ATOM      7  C   UNL     1      35.065 -17.939 -23.998  0.00  0.00    +0.053 C 
ATOM      8  C   UNL     1      34.579 -16.195 -22.242  0.00  0.00    +0.101 C 
ATOM      9  C   UNL     1      34.576 -16.603 -23.562  0.00  0.00    +0.099 C 
ATOM     10  C   UNL     1      33.770 -14.583 -23.819  0.00  0.00    +0.204 C 
ATOM     11  H   UNL     1      33.030 -12.683 -23.860  0.00  0.00    +0.145 HD
ATOM     12  H   UNL     1      33.145 -13.436 -25.385  0.00  0.00    +0.145 HD
ENDROOT
BRANCH   4  13
ATOM     13  N   UNL     1      35.990 -19.205 -20.497  0.00  0.00    +0.385 N 
ATOM     14  H   UNL     1      35.540 -18.839 -19.657  0.00  0.00    -0.084 HD
ATOM     15  H   UNL     1      36.984 -19.356 -20.330  0.00  0.00    -0.084 HD
BRANCH  13  16
ATOM     16  C   UNL     1      35.377 -20.476 -20.850  0.00  0.00    -0.082 C 
BRANCH  16  17
ATOM     17  C   UNL     1      34.256 -20.825 -19.877  0.00  0.00    -0.023 C 
ATOM     18  C   UNL     1      32.900 -20.295 -20.324  0.00  0.00    -0.002 C 
ENDBRANCH  16  17
ENDBRANCH  13  16
ENDBRANCH   4  13
TORSDOF 3
ENDMDL
MODEL 3
REMARK VINA RESULT:      -7.2      1.299      2.047
REMARK  Name = 119570
REMARK  3 active torsions:
REMARK  status: ('A' for Active; 'I' for Inactive)
REMARK    1  A    between atoms: C_4  and  N_13
REMARK    2  A    between atoms: N_13  and  C_16
REMARK    3  A    between atoms: C_16  and  C_17
REMARK                            x       y       z     vdW  Elec       q    Type
REMARK                         _______ _______ _______ _____ _____    ______ ____
ROOT
ATOM      1  S   UNL     1      34.215 -16.437 -25.352  0.00  0.00    -0.062 S 
ATOM      2  N   UNL     1      33.257 -14.507 -23.913  0.00  0.00    -0.389 NA
ATOM      3  N   UNL     1      32.960 -14.268 -26.248  0.00  0.00    -0.328 N 
ATOM      4  C   UNL     1      34.717 -17.617 -21.446  0.00  0.00    -0.060 C 
ATOM      5  C   UNL     1      34.788 -16.182 -20.876  0.00  0.00    -0.014 C 
ATOM      6  C   UNL     1      35.076 -17.651 -22.950  0.00  0.00    -0.003 C 
ATOM      7  C   UNL     1      33.799 -15.236 -21.582  0.00  0.00    +0.053 C 
ATOM      8  C   UNL     1      34.385 -16.536 -23.662  0.00  0.00    +0.101 C 
ATOM      9  C   UNL     1      33.826 -15.427 -23.058  0.00  0.00    +0.099 C 
ATOM     10  C   UNL     1      33.404 -14.935 -25.149  0.00  0.00    +0.204 C 
ATOM     11  H   UNL     1      33.105 -14.645 -27.146  0.00  0.00    +0.145 HD
ATOM     12  H   UNL     1      32.494 -13.406 -26.146  0.00  0.00    +0.145 HD
ENDROOT
BRANCH   4  13
ATOM     13  N   UNL     1      35.621 -18.497 -20.709  0.00  0.00    +0.385 N 
ATOM     14  H   UNL     1      35.578 -18.263 -19.716  0.00  0.00    -0.084 HD
ATOM     15  H   UNL     1      36.567 -18.366 -21.064  0.00  0.00    -0.084 HD
BRANCH  13  16
ATOM     16  C   UNL     1      35.244 -19.891 -20.887  0.00  0.00    -0.082 C 
BRANCH  16  17
ATOM     17  C   UNL     1      33.759 -20.090 -20.602  0.00  0.00    -0.023 C 
ATOM     18  C   UNL     1      33.493 -21.219 -19.616  0.00  0.00    -0.002 C 
ENDBRANCH  16  17
ENDBRANCH  13  16
ENDBRANCH   4  13
TORSDOF 3
ENDMDL
MODEL 4
REMARK VINA RESULT:      -7.1      3.614      6.890
REMARK  Name = 119570
REMARK  3 active torsions:
REMARK  status: ('A' for Active; 'I' for Inactive)
REMARK    1  A    between atoms: C_4  and  N_13
REMARK    2  A    between atoms: N_13  and  C_16
REMARK    3  A    between atoms: C_16  and  C_17
REMARK                            x       y       z     vdW  Elec       q    Type
REMARK                         _______ _______ _______ _____ _____    ______ ____
ROOT
ATOM      1  S   UNL     1      35.376 -22.179 -18.584  0.00  0.00    -0.062 S 
ATOM      2  N   UNL     1      32.855 -21.849 -19.082  0.00  0.00    -0.389 NA
ATOM      3  N   UNL     1      33.355 -23.512 -17.475  0.00  0.00    -0.328 N 
ATOM      4  C   UNL     1      35.166 -18.959 -21.130  0.00  0.00    -0.060 C 
ATOM      5  C   UNL     1      33.845 -19.398 -21.800  0.00  0.00    -0.014 C 
ATOM      6  C   UNL     1      35.903 -20.156 -20.483  0.00  0.00    -0.003 C 
ATOM      7  C   UNL     1      32.866 -20.016 -20.784  0.00  0.00    +0.053 C 
ATOM      8  C   UNL     1      34.932 -20.999 -19.725  0.00  0.00    +0.101 C 
ATOM      9  C   UNL     1      33.559 -20.963 -19.869  0.00  0.00    +0.099 C 
ATOM     10  C   UNL     1      33.710 -22.544 -18.362  0.00  0.00    +0.204 C 
ATOM     11  H   UNL     1      34.049 -23.995 -16.969  0.00  0.00    +0.145 HD
ATOM     12  H   UNL     1      32.405 -23.731 -17.339  0.00  0.00    +0.145 HD
ENDROOT
BRANCH   4  13
ATOM     13  N   UNL     1      36.040 -18.320 -22.111  0.00  0.00    +0.385 N 
ATOM     14  H   UNL     1      36.915 -18.843 -22.169  0.00  0.00    -0.084 HD
ATOM     15  H   UNL     1      36.219 -17.361 -21.815  0.00  0.00    -0.084 HD
BRANCH  13  16
ATOM     16  C   UNL     1      35.413 -18.295 -23.423  0.00  0.00    -0.082 C 
BRANCH  16  17
ATOM     17  C   UNL     1      35.120 -16.862 -23.855  0.00  0.00    -0.023 C 
ATOM     18  C   UNL     1      34.448 -16.782 -25.219  0.00  0.00    -0.002 C 
ENDBRANCH  16  17
ENDBRANCH  13  16
ENDBRANCH   4  13
TORSDOF 3
ENDMDL
MODEL 5
REMARK VINA RESULT:      -7.0      2.575      6.492
REMARK  Name = 119570
REMARK  3 active torsions:
REMARK  status: ('A' for Active; 'I' for Inactive)
REMARK    1  A    between atoms: C_4  and  N_13
REMARK    2  A    between atoms: N_13  and  C_16
REMARK    3  A    between atoms: C_16  and  C_17
REMARK                            x       y       z     vdW  Elec       q    Type
REMARK                         _______ _______ _______ _____ _____    ______ ____
ROOT
ATOM      1  S   UNL     1      35.475 -18.044 -22.927  0.00  0.00    -0.062 S 
ATOM      2  N   UNL     1      35.270 -17.128 -20.512  0.00  0.00    -0.389 NA
ATOM      3  N   UNL     1      36.177 -19.305 -20.691  0.00  0.00    -0.328 N 
ATOM      4  C   UNL     1      34.203 -14.155 -23.324  0.00  0.00    -0.060 C 
ATOM      5  C   UNL     1      33.502 -14.097 -21.948  0.00  0.00    -0.014 C 
ATOM      6  C   UNL     1      34.355 -15.610 -23.826  0.00  0.00    -0.003 C 
ATOM      7  C   UNL     1      34.300 -14.849 -20.867  0.00  0.00    +0.053 C 
ATOM      8  C   UNL     1      34.835 -16.482 -22.713  0.00  0.00    +0.101 C 
ATOM      9  C   UNL     1      34.793 -16.161 -21.371  0.00  0.00    +0.099 C 
ATOM     10  C   UNL     1      35.656 -18.167 -21.221  0.00  0.00    +0.204 C 
ATOM     11  H   UNL     1      36.445 -20.047 -21.281  0.00  0.00    +0.145 HD
ATOM     12  H   UNL     1      36.286 -19.390 -19.716  0.00  0.00    +0.145 HD
ENDROOT
BRANCH   4  13
ATOM     13  N   UNL     1      33.449 -13.378 -24.306  0.00  0.00    +0.385 N 
ATOM     14  H   UNL     1      32.451 -13.503 -24.135  0.00  0.00    -0.084 HD
ATOM     15  H   UNL     1      33.694 -13.705 -25.240  0.00  0.00    -0.084 HD
BRANCH  13  16
ATOM     16  C   UNL     1      33.776 -11.964 -24.206  0.00  0.00    -0.082 C 
BRANCH  16  17
ATOM     17  C   UNL     1      34.203 -11.411 -25.561  0.00  0.00    -0.023 C 
ATOM     18  C   UNL     1      35.260 -10.320 -25.448  0.00  0.00    -0.002 C 
ENDBRANCH  16  17
ENDBRANCH  13  16
ENDBRANCH   4  13
TORSDOF 3
ENDMDL
MODEL 6
REMARK VINA RESULT:      -6.9      3.779      6.076
REMARK  Name = 119570
REMARK  3 active torsions:
REMARK  status: ('A' for Active; 'I' for Inactive)
REMARK    1  A    between atoms: C_4  and  N_13
REMARK    2  A    between atoms: N_13  and  C_16
REMARK    3  A    between atoms: C_16  and  C_17
REMARK                            x       y       z     vdW  Elec       q    Type
REMARK                         _______ _______ _______ _____ _____    ______ ____
ROOT
ATOM      1  S   UNL     1      34.553 -16.377 -24.160  0.00  0.00    -0.062 S 
ATOM      2  N   UNL     1      35.093 -16.818 -21.665  0.00  0.00    -0.389 NA
ATOM      3  N   UNL     1      36.172 -18.260 -23.199  0.00  0.00    -0.328 N 
ATOM      4  C   UNL     1      32.694 -13.360 -22.079  0.00  0.00    -0.060 C 
ATOM      5  C   UNL     1      32.526 -14.173 -20.776  0.00  0.00    -0.014 C 
ATOM      6  C   UNL     1      32.860 -14.282 -23.309  0.00  0.00    -0.003 C 
ATOM      7  C   UNL     1      33.753 -15.061 -20.493  0.00  0.00    +0.053 C 
ATOM      8  C   UNL     1      33.820 -15.381 -22.993  0.00  0.00    +0.101 C 
ATOM      9  C   UNL     1      34.212 -15.759 -21.725  0.00  0.00    +0.099 C 
ATOM     10  C   UNL     1      35.343 -17.227 -22.891  0.00  0.00    +0.204 C 
ATOM     11  H   UNL     1      36.313 -18.514 -24.140  0.00  0.00    +0.145 HD
ATOM     12  H   UNL     1      36.630 -18.755 -22.482  0.00  0.00    +0.145 HD
ENDROOT
BRANCH   4  13
ATOM     13  N   UNL     1      31.541 -12.484 -22.278  0.00  0.00    +0.385 N 
ATOM     14  H   UNL     1      30.712 -12.930 -21.884  0.00  0.00    -0.084 HD
ATOM     15  H   UNL     1      31.419 -12.326 -23.277  0.00  0.00    -0.084 HD
BRANCH  13  16
ATOM     16  C   UNL     1      31.748 -11.201 -21.624  0.00  0.00    -0.082 C 
BRANCH  16  17
ATOM     17  C   UNL     1      30.769 -11.020 -20.468  0.00  0.00    -0.023 C 
ATOM     18  C   UNL     1      31.467 -10.822 -19.129  0.00  0.00    -0.002 C 
ENDBRANCH  16  17
ENDBRANCH  13  16
ENDBRANCH   4  13
TORSDOF 3
ENDMDL
MODEL 7
REMARK VINA RESULT:      -6.9      2.189      2.518
REMARK  Name = 119570
REMARK  3 active torsions:
REMARK  status: ('A' for Active; 'I' for Inactive)
REMARK    1  A    between atoms: C_4  and  N_13
REMARK    2  A    between atoms: N_13  and  C_16
REMARK    3  A    between atoms: C_16  and  C_17
REMARK                            x       y       z     vdW  Elec       q    Type
REMARK                         _______ _______ _______ _____ _____    ______ ____
ROOT
ATOM      1  S   UNL     1      32.894 -14.275 -20.989  0.00  0.00    -0.062 S 
ATOM      2  N   UNL     1      32.652 -13.827 -23.529  0.00  0.00    -0.389 NA
ATOM      3  N   UNL     1      31.512 -12.304 -22.125  0.00  0.00    -0.328 N 
ATOM      4  C   UNL     1      35.366 -16.995 -22.829  0.00  0.00    -0.060 C 
ATOM      5  C   UNL     1      34.560 -17.045 -24.146  0.00  0.00    -0.014 C 
ATOM      6  C   UNL     1      34.496 -16.507 -21.647  0.00  0.00    -0.003 C 
ATOM      7  C   UNL     1      34.025 -15.657 -24.543  0.00  0.00    +0.053 C 
ATOM      8  C   UNL     1      33.688 -15.324 -22.067  0.00  0.00    +0.101 C 
ATOM      9  C   UNL     1      33.447 -14.943 -23.372  0.00  0.00    +0.099 C 
ATOM     10  C   UNL     1      32.301 -13.390 -22.339  0.00  0.00    +0.204 C 
ATOM     11  H   UNL     1      31.286 -12.032 -21.205  0.00  0.00    +0.145 HD
ATOM     12  H   UNL     1      31.164 -11.788 -22.889  0.00  0.00    +0.145 HD
ENDROOT
BRANCH   4  13
ATOM     13  N   UNL     1      35.910 -18.316 -22.521  0.00  0.00    +0.385 N 
ATOM     14  H   UNL     1      36.900 -18.335 -22.770  0.00  0.00    -0.084 HD
ATOM     15  H   UNL     1      35.395 -19.014 -23.055  0.00  0.00    -0.084 HD
BRANCH  13  16
ATOM     16  C   UNL     1      35.770 -18.615 -21.104  0.00  0.00    -0.082 C 
BRANCH  16  17
ATOM     17  C   UNL     1      35.224 -20.024 -20.901  0.00  0.00    -0.023 C 
ATOM     18  C   UNL     1      33.720 -20.047 -20.665  0.00  0.00    -0.002 C 
ENDBRANCH  16  17
ENDBRANCH  13  16
ENDBRANCH   4  13
TORSDOF 3
ENDMDL
MODEL 8
REMARK VINA RESULT:      -6.9      2.905      6.284
REMARK  Name = 119570
REMARK  3 active torsions:
REMARK  status: ('A' for Active; 'I' for Inactive)
REMARK    1  A    between atoms: C_4  and  N_13
REMARK    2  A    between atoms: N_13  and  C_16
REMARK    3  A    between atoms: C_16  and  C_17
REMARK                            x       y       z     vdW  Elec       q    Type
REMARK                         _______ _______ _______ _____ _____    ______ ____
ROOT
ATOM      1  S   UNL     1      32.711 -20.546 -20.287  0.00  0.00    -0.062 S 
ATOM      2  N   UNL     1      34.894 -21.556 -19.324  0.00  0.00    -0.389 NA
ATOM      3  N   UNL     1      32.892 -22.527 -18.518  0.00  0.00    -0.328 N 
ATOM      4  C   UNL     1      35.771 -18.710 -22.327  0.00  0.00    -0.060 C 
ATOM      5  C   UNL     1      36.809 -18.871 -21.194  0.00  0.00    -0.014 C 
ATOM      6  C   UNL     1      34.323 -18.776 -21.788  0.00  0.00    -0.003 C 
ATOM      7  C   UNL     1      36.672 -20.229 -20.480  0.00  0.00    +0.053 C 
ATOM      8  C   UNL     1      34.194 -19.905 -20.819  0.00  0.00    +0.101 C 
ATOM      9  C   UNL     1      35.246 -20.554 -20.203  0.00  0.00    +0.099 C 
ATOM     10  C   UNL     1      33.581 -21.641 -19.287  0.00  0.00    +0.204 C 
ATOM     11  H   UNL     1      31.908 -22.535 -18.538  0.00  0.00    +0.145 HD
ATOM     12  H   UNL     1      33.378 -23.159 -17.941  0.00  0.00    +0.145 HD
ENDROOT
BRANCH   4  13
ATOM     13  N   UNL     1      35.976 -17.440 -23.021  0.00  0.00    +0.385 N 
ATOM     14  H   UNL     1      36.599 -17.590 -23.815  0.00  0.00    -0.084 HD
ATOM     15  H   UNL     1      36.387 -16.774 -22.368  0.00  0.00    -0.084 HD
BRANCH  13  16
ATOM     16  C   UNL     1      34.712 -16.905 -23.501  0.00  0.00    -0.082 C 
BRANCH  16  17
ATOM     17  C   UNL     1      34.673 -16.896 -25.026  0.00  0.00    -0.023 C 
ATOM     18  C   UNL     1      33.734 -15.836 -25.586  0.00  0.00    -0.002 C 
ENDBRANCH  16  17
ENDBRANCH  13  16
ENDBRANCH   4  13
TORSDOF 3
ENDMDL
MODEL 9
REMARK VINA RESULT:      -6.8      3.107      5.233
REMARK  Name = 119570
REMARK  3 active torsions:
REMARK  status: ('A' for Active; 'I' for Inactive)
REMARK    1  A    between atoms: C_4  and  N_13
REMARK    2  A    between atoms: N_13  and  C_16
REMARK    3  A    between atoms: C_16  and  C_17
REMARK                            x       y       z     vdW  Elec       q    Type
REMARK                         _______ _______ _______ _____ _____    ______ ____
ROOT
ATOM      1  S   UNL     1      33.867 -18.417 -21.904  0.00  0.00    -0.062 S 
ATOM      2  N   UNL     1      36.350 -18.990 -21.435  0.00  0.00    -0.389 NA
ATOM      3  N   UNL     1      35.995 -17.142 -22.869  0.00  0.00    -0.328 N 
ATOM      4  C   UNL     1      33.798 -21.428 -19.107  0.00  0.00    -0.060 C 
ATOM      5  C   UNL     1      35.154 -22.039 -19.526  0.00  0.00    -0.014 C 
ATOM      6  C   UNL     1      33.168 -20.598 -20.250  0.00  0.00    -0.003 C 
ATOM      7  C   UNL     1      36.182 -20.952 -19.893  0.00  0.00    +0.053 C 
ATOM      8  C   UNL     1      34.208 -19.731 -20.879  0.00  0.00    +0.101 C 
ATOM      9  C   UNL     1      35.572 -19.895 -20.746  0.00  0.00    +0.099 C 
ATOM     10  C   UNL     1      35.558 -18.162 -22.083  0.00  0.00    +0.204 C 
ATOM     11  H   UNL     1      35.346 -16.560 -23.327  0.00  0.00    +0.145 HD
ATOM     12  H   UNL     1      36.961 -16.984 -22.981  0.00  0.00    +0.145 HD
ENDROOT
BRANCH   4  13
ATOM     13  N   UNL     1      32.872 -22.486 -18.705  0.00  0.00    +0.385 N 
ATOM     14  H   UNL     1      32.617 -23.036 -19.526  0.00  0.00    -0.084 HD
ATOM     15  H   UNL     1      32.044 -22.057 -18.294  0.00  0.00    -0.084 HD
BRANCH  13  16
ATOM     16  C   UNL     1      33.485 -23.361 -17.718  0.00  0.00    -0.082 C 
BRANCH  16  17
ATOM     17  C   UNL     1      32.768 -23.248 -16.377  0.00  0.00    -0.023 C 
ATOM     18  C   UNL     1      31.273 -22.999 -16.526  0.00  0.00    -0.002 C 
ENDBRANCH  16  17
ENDBRANCH  13  16
ENDBRANCH   4  13
TORSDOF 3
ENDMDL
