MODEL 1
REMARK VINA RESULT:      -8.3      0.000      0.000
REMARK  Name = 60750
REMARK  4 active torsions:
REMARK  status: ('A' for Active; 'I' for Inactive)
REMARK    1  A    between atoms: C_4  and  O_18
REMARK    2  A    between atoms: C_6  and  C_20
REMARK    3  A    between atoms: C_7  and  N_9
REMARK    4  A    between atoms: C_20  and  O_21
REMARK                            x       y       z     vdW  Elec       q    Type
REMARK                         _______ _______ _______ _____ _____    ______ ____
ROOT
ATOM      1  F   UNL     1      34.883 -19.806 -23.306  0.00  0.00    -0.197 F 
ATOM      2  F   UNL     1      36.472 -18.328 -23.515  0.00  0.00    -0.197 F 
ATOM      3  O   UNL     1      35.595 -17.571 -20.693  0.00  0.00    -0.330 OA
ATOM      4  C   UNL     1      34.391 -17.567 -22.715  0.00  0.00    +0.206 C 
ATOM      5  C   UNL     1      35.398 -18.685 -22.772  0.00  0.00    +0.333 C 
ATOM      6  C   UNL     1      35.014 -16.675 -21.659  0.00  0.00    +0.179 C 
ATOM      7  C   UNL     1      35.816 -18.846 -21.325  0.00  0.00    +0.272 C 
ENDROOT
BRANCH   7   9
ATOM      8  O   UNL     1      36.872 -21.082 -19.973  0.00  0.00    -0.193 OA
ATOM      9  N   UNL     1      35.043 -19.835 -20.626  0.00  0.00    -0.175 N 
ATOM     10  N   UNL     1      34.840 -21.849 -19.314  0.00  0.00    -0.306 NA
ATOM     11  N   UNL     1      32.755 -22.631 -18.644  0.00  0.00    -0.332 N 
ATOM     12  C   UNL     1      33.664 -19.704 -20.601  0.00  0.00    +0.084 C 
ATOM     13  C   UNL     1      35.648 -20.935 -19.968  0.00  0.00    +0.276 C 
ATOM     14  C   UNL     1      32.868 -20.573 -19.979  0.00  0.00    +0.065 C 
ATOM     15  C   UNL     1      33.540 -21.711 -19.299  0.00  0.00    +0.193 C 
ATOM     16  H   UNL     1      33.172 -23.396 -18.184  0.00  0.00    +0.145 HD
ATOM     17  H   UNL     1      31.776 -22.525 -18.633  0.00  0.00    +0.145 HD
ENDBRANCH   7   9
BRANCH   4  18
ATOM     18  O   UNL     1      34.255 -16.899 -23.952  0.00  0.00    -0.377 OA
ATOM     19  H   UNL     1      35.029 -17.084 -24.507  0.00  0.00    +0.211 HD
ENDBRANCH   4  18
BRANCH   6  20
ATOM     20  C   UNL     1      34.014 -15.762 -20.973  0.00  0.00    +0.169 C 
BRANCH  20  21
ATOM     21  O   UNL     1      33.072 -15.311 -21.933  0.00  0.00    -0.379 OA
ATOM     22  H   UNL     1      33.317 -15.648 -22.809  0.00  0.00    +0.211 HD
ENDBRANCH  20  21
ENDBRANCH   6  20
TORSDOF 4
ENDMDL
MODEL 2
REMARK VINA RESULT:      -8.1      1.119      1.171
REMARK  Name = 60750
REMARK  4 active torsions:
REMARK  status: ('A' for Active; 'I' for Inactive)
REMARK    1  A    between atoms: C_4  and  O_18
REMARK    2  A    between atoms: C_6  and  C_20
REMARK    3  A    between atoms: C_7  and  N_9
REMARK    4  A    between atoms: C_20  and  O_21
REMARK                            x       y       z     vdW  Elec       q    Type
REMARK                         _______ _______ _______ _____ _____    ______ ____
ROOT
ATOM      1  F   UNL     1      34.721 -18.438 -23.526  0.00  0.00    -0.197 F 
ATOM      2  F   UNL     1      36.064 -16.723 -23.441  0.00  0.00    -0.197 F 
ATOM      3  O   UNL     1      35.107 -16.619 -20.547  0.00  0.00    -0.330 OA
ATOM      4  C   UNL     1      33.899 -16.440 -22.558  0.00  0.00    +0.206 C 
ATOM      5  C   UNL     1      35.064 -17.365 -22.792  0.00  0.00    +0.333 C 
ATOM      6  C   UNL     1      34.388 -15.665 -21.350  0.00  0.00    +0.179 C 
ATOM      7  C   UNL     1      35.514 -17.714 -21.389  0.00  0.00    +0.272 C 
ENDROOT
BRANCH   7   9
ATOM      8  O   UNL     1      36.889 -19.844 -20.158  0.00  0.00    -0.193 OA
ATOM      9  N   UNL     1      34.906 -18.917 -20.891  0.00  0.00    -0.175 N 
ATOM     10  N   UNL     1      35.013 -21.077 -19.823  0.00  0.00    -0.306 NA
ATOM     11  N   UNL     1      33.088 -22.338 -19.485  0.00  0.00    -0.332 N 
ATOM     12  C   UNL     1      33.535 -19.068 -21.014  0.00  0.00    +0.084 C 
ATOM     13  C   UNL     1      35.667 -19.946 -20.281  0.00  0.00    +0.276 C 
ATOM     14  C   UNL     1      32.887 -20.149 -20.581  0.00  0.00    +0.065 C 
ATOM     15  C   UNL     1      33.718 -21.205 -19.946  0.00  0.00    +0.193 C 
ATOM     16  H   UNL     1      33.613 -23.055 -19.060  0.00  0.00    +0.145 HD
ATOM     17  H   UNL     1      32.113 -22.432 -19.579  0.00  0.00    +0.145 HD
ENDBRANCH   7   9
BRANCH   4  18
ATOM     18  O   UNL     1      33.653 -15.592 -23.660  0.00  0.00    -0.377 OA
ATOM     19  H   UNL     1      34.196 -15.871 -24.412  0.00  0.00    +0.211 HD
ENDBRANCH   4  18
BRANCH   6  20
ATOM     20  C   UNL     1      33.266 -15.050 -20.533  0.00  0.00    +0.169 C 
BRANCH  20  21
ATOM     21  O   UNL     1      32.024 -15.494 -21.054  0.00  0.00    -0.379 OA
ATOM     22  H   UNL     1      31.948 -16.453 -20.936  0.00  0.00    +0.211 HD
ENDBRANCH  20  21
ENDBRANCH   6  20
TORSDOF 4
ENDMDL
MODEL 3
REMARK VINA RESULT:      -7.6      6.815      9.483
REMARK  Name = 60750
REMARK  4 active torsions:
REMARK  status: ('A' for Active; 'I' for Inactive)
REMARK    1  A    between atoms: C_4  and  O_18
REMARK    2  A    between atoms: C_6  and  C_20
REMARK    3  A    between atoms: C_7  and  N_9
REMARK    4  A    between atoms: C_20  and  O_21
REMARK                            x       y       z     vdW  Elec       q    Type
REMARK                         _______ _______ _______ _____ _____    ______ ____
ROOT
ATOM      1  F   UNL     1      35.718 -25.969 -15.347  0.00  0.00    -0.197 F 
ATOM      2  F   UNL     1      36.379 -26.162 -13.279  0.00  0.00    -0.197 F 
ATOM      3  O   UNL     1      38.266 -23.907 -14.089  0.00  0.00    -0.330 OA
ATOM      4  C   UNL     1      38.047 -26.089 -14.940  0.00  0.00    +0.206 C 
ATOM      5  C   UNL     1      36.689 -25.626 -14.483  0.00  0.00    +0.333 C 
ATOM      6  C   UNL     1      38.947 -25.174 -14.133  0.00  0.00    +0.179 C 
ATOM      7  C   UNL     1      36.866 -24.129 -14.340  0.00  0.00    +0.272 C 
ENDROOT
BRANCH   7   9
ATOM      8  O   UNL     1      34.251 -23.896 -15.364  0.00  0.00    -0.193 OA
ATOM      9  N   UNL     1      36.500 -23.407 -15.527  0.00  0.00    -0.175 N 
ATOM     10  N   UNL     1      34.881 -22.620 -17.132  0.00  0.00    -0.306 NA
ATOM     11  N   UNL     1      35.533 -21.315 -18.944  0.00  0.00    -0.332 N 
ATOM     12  C   UNL     1      37.495 -22.765 -16.247  0.00  0.00    +0.084 C 
ATOM     13  C   UNL     1      35.159 -23.335 -15.980  0.00  0.00    +0.276 C 
ATOM     14  C   UNL     1      37.249 -22.074 -17.359  0.00  0.00    +0.065 C 
ATOM     15  C   UNL     1      35.831 -22.019 -17.800  0.00  0.00    +0.193 C 
ATOM     16  H   UNL     1      34.602 -21.262 -19.261  0.00  0.00    +0.145 HD
ATOM     17  H   UNL     1      36.250 -20.863 -19.445  0.00  0.00    +0.145 HD
ENDBRANCH   7   9
BRANCH   4  18
ATOM     18  O   UNL     1      38.282 -27.450 -14.644  0.00  0.00    -0.377 OA
ATOM     19  H   UNL     1      39.035 -27.525 -14.038  0.00  0.00    +0.211 HD
ENDBRANCH   4  18
BRANCH   6  20
ATOM     20  C   UNL     1      40.326 -24.994 -14.741  0.00  0.00    +0.169 C 
BRANCH  20  21
ATOM     21  O   UNL     1      40.442 -25.841 -15.872  0.00  0.00    -0.379 OA
ATOM     22  H   UNL     1      40.384 -26.768 -15.590  0.00  0.00    +0.211 HD
ENDBRANCH  20  21
ENDBRANCH   6  20
TORSDOF 4
ENDMDL
MODEL 4
REMARK VINA RESULT:      -7.6      6.863      9.474
REMARK  Name = 60750
REMARK  4 active torsions:
REMARK  status: ('A' for Active; 'I' for Inactive)
REMARK    1  A    between atoms: C_4  and  O_18
REMARK    2  A    between atoms: C_6  and  C_20
REMARK    3  A    between atoms: C_7  and  N_9
REMARK    4  A    between atoms: C_20  and  O_21
REMARK                            x       y       z     vdW  Elec       q    Type
REMARK                         _______ _______ _______ _____ _____    ______ ____
ROOT
ATOM      1  F   UNL     1      37.601 -25.659 -15.429  0.00  0.00    -0.197 F 
ATOM      2  F   UNL     1      36.438 -26.564 -13.823  0.00  0.00    -0.197 F 
ATOM      3  O   UNL     1      35.662 -23.663 -13.287  0.00  0.00    -0.330 OA
ATOM      4  C   UNL     1      37.772 -24.703 -13.270  0.00  0.00    +0.206 C 
ATOM      5  C   UNL     1      36.919 -25.393 -14.302  0.00  0.00    +0.333 C 
ATOM      6  C   UNL     1      36.707 -24.079 -12.389  0.00  0.00    +0.179 C 
ATOM      7  C   UNL     1      35.774 -24.422 -14.506  0.00  0.00    +0.272 C 
ENDROOT
BRANCH   7   9
ATOM      8  O   UNL     1      34.052 -24.027 -16.701  0.00  0.00    -0.193 OA
ATOM      9  N   UNL     1      36.005 -23.505 -15.589  0.00  0.00    -0.175 N 
ATOM     10  N   UNL     1      35.376 -22.458 -17.668  0.00  0.00    -0.306 NA
ATOM     11  N   UNL     1      36.740 -20.854 -18.656  0.00  0.00    -0.332 N 
ATOM     12  C   UNL     1      37.162 -22.743 -15.577  0.00  0.00    +0.084 C 
ATOM     13  C   UNL     1      35.088 -23.362 -16.660  0.00  0.00    +0.276 C 
ATOM     14  C   UNL     1      37.458 -21.869 -16.539  0.00  0.00    +0.065 C 
ATOM     15  C   UNL     1      36.472 -21.745 -17.644  0.00  0.00    +0.193 C 
ATOM     16  H   UNL     1      36.104 -20.750 -19.402  0.00  0.00    +0.145 HD
ATOM     17  H   UNL     1      37.565 -20.318 -18.636  0.00  0.00    +0.145 HD
ENDBRANCH   7   9
BRANCH   4  18
ATOM     18  O   UNL     1      38.584 -25.607 -12.550  0.00  0.00    -0.377 OA
ATOM     19  H   UNL     1      39.217 -25.112 -12.007  0.00  0.00    +0.211 HD
ENDBRANCH   4  18
BRANCH   6  20
ATOM     20  C   UNL     1      37.204 -22.885 -11.595  0.00  0.00    +0.169 C 
BRANCH  20  21
ATOM     21  O   UNL     1      38.621 -22.858 -11.648  0.00  0.00    -0.379 OA
ATOM     22  H   UNL     1      38.982 -23.097 -10.779  0.00  0.00    +0.211 HD
ENDBRANCH  20  21
ENDBRANCH   6  20
TORSDOF 4
ENDMDL
MODEL 5
REMARK VINA RESULT:      -7.6      6.940      9.004
REMARK  Name = 60750
REMARK  4 active torsions:
REMARK  status: ('A' for Active; 'I' for Inactive)
REMARK    1  A    between atoms: C_4  and  O_18
REMARK    2  A    between atoms: C_6  and  C_20
REMARK    3  A    between atoms: C_7  and  N_9
REMARK    4  A    between atoms: C_20  and  O_21
REMARK                            x       y       z     vdW  Elec       q    Type
REMARK                         _______ _______ _______ _____ _____    ______ ____
ROOT
ATOM      1  F   UNL     1      35.989 -22.027 -15.521  0.00  0.00    -0.197 F 
ATOM      2  F   UNL     1      37.614 -23.467 -15.715  0.00  0.00    -0.197 F 
ATOM      3  O   UNL     1      35.636 -25.295 -14.284  0.00  0.00    -0.330 OA
ATOM      4  C   UNL     1      36.604 -23.263 -13.597  0.00  0.00    +0.206 C 
ATOM      5  C   UNL     1      36.437 -23.220 -15.094  0.00  0.00    +0.333 C 
ATOM      6  C   UNL     1      36.593 -24.759 -13.352  0.00  0.00    +0.179 C 
ATOM      7  C   UNL     1      35.474 -24.357 -15.366  0.00  0.00    +0.272 C 
ENDROOT
BRANCH   7   9
ATOM      8  O   UNL     1      34.074 -23.522 -17.664  0.00  0.00    -0.193 OA
ATOM      9  N   UNL     1      34.101 -23.932 -15.393  0.00  0.00    -0.175 N 
ATOM     10  N   UNL     1      32.139 -23.130 -16.543  0.00  0.00    -0.306 NA
ATOM     11  N   UNL     1      30.161 -22.727 -15.388  0.00  0.00    -0.332 N 
ATOM     12  C   UNL     1      33.386 -23.921 -14.206  0.00  0.00    +0.084 C 
ATOM     13  C   UNL     1      33.465 -23.526 -16.592  0.00  0.00    +0.276 C 
ATOM     14  C   UNL     1      32.110 -23.542 -14.137  0.00  0.00    +0.065 C 
ATOM     15  C   UNL     1      31.477 -23.125 -15.416  0.00  0.00    +0.193 C 
ATOM     16  H   UNL     1      29.714 -22.445 -16.220  0.00  0.00    +0.145 HD
ATOM     17  H   UNL     1      29.664 -22.725 -14.539  0.00  0.00    +0.145 HD
ENDBRANCH   7   9
BRANCH   4  18
ATOM     18  O   UNL     1      37.813 -22.671 -13.172  0.00  0.00    -0.377 OA
ATOM     19  H   UNL     1      38.031 -21.925 -13.751  0.00  0.00    +0.211 HD
ENDBRANCH   4  18
BRANCH   6  20
ATOM     20  C   UNL     1      36.194 -25.135 -11.937  0.00  0.00    +0.169 C 
BRANCH  20  21
ATOM     21  O   UNL     1      37.033 -24.445 -11.025  0.00  0.00    -0.379 OA
ATOM     22  H   UNL     1      37.525 -23.755 -11.497  0.00  0.00    +0.211 HD
ENDBRANCH  20  21
ENDBRANCH   6  20
TORSDOF 4
ENDMDL
MODEL 6
REMARK VINA RESULT:      -7.4      7.259      9.809
REMARK  Name = 60750
REMARK  4 active torsions:
REMARK  status: ('A' for Active; 'I' for Inactive)
REMARK    1  A    between atoms: C_4  and  O_18
REMARK    2  A    between atoms: C_6  and  C_20
REMARK    3  A    between atoms: C_7  and  N_9
REMARK    4  A    between atoms: C_20  and  O_21
REMARK                            x       y       z     vdW  Elec       q    Type
REMARK                         _______ _______ _______ _____ _____    ______ ____
ROOT
ATOM      1  F   UNL     1      34.645 -24.632 -12.712  0.00  0.00    -0.197 F 
ATOM      2  F   UNL     1      36.242 -24.014 -11.363  0.00  0.00    -0.197 F 
ATOM      3  O   UNL     1      37.777 -23.673 -13.977  0.00  0.00    -0.330 OA
ATOM      4  C   UNL     1      36.788 -25.586 -13.030  0.00  0.00    +0.206 C 
ATOM      5  C   UNL     1      35.964 -24.389 -12.634  0.00  0.00    +0.333 C 
ATOM      6  C   UNL     1      38.114 -24.926 -13.354  0.00  0.00    +0.179 C 
ATOM      7  C   UNL     1      36.436 -23.315 -13.592  0.00  0.00    +0.272 C 
ENDROOT
BRANCH   7   9
ATOM      8  O   UNL     1      37.381 -22.614 -16.153  0.00  0.00    -0.193 OA
ATOM      9  N   UNL     1      35.632 -23.234 -14.781  0.00  0.00    -0.175 N 
ATOM     10  N   UNL     1      35.347 -22.818 -17.139  0.00  0.00    -0.306 NA
ATOM     11  N   UNL     1      33.260 -23.026 -18.144  0.00  0.00    -0.332 N 
ATOM     12  C   UNL     1      34.279 -23.517 -14.687  0.00  0.00    +0.084 C 
ATOM     13  C   UNL     1      36.182 -22.875 -16.036  0.00  0.00    +0.276 C 
ATOM     14  C   UNL     1      33.459 -23.468 -15.736  0.00  0.00    +0.065 C 
ATOM     15  C   UNL     1      34.072 -23.089 -17.036  0.00  0.00    +0.193 C 
ATOM     16  H   UNL     1      33.639 -22.777 -19.019  0.00  0.00    +0.145 HD
ATOM     17  H   UNL     1      32.301 -23.231 -18.064  0.00  0.00    +0.145 HD
ENDBRANCH   7   9
BRANCH   4  18
ATOM     18  O   UNL     1      36.912 -26.526 -11.983  0.00  0.00    -0.377 OA
ATOM     19  H   UNL     1      37.703 -26.325 -11.459  0.00  0.00    +0.211 HD
ENDBRANCH   4  18
BRANCH   6  20
ATOM     20  C   UNL     1      38.982 -25.745 -14.291  0.00  0.00    +0.169 C 
BRANCH  20  21
ATOM     21  O   UNL     1      38.323 -26.969 -14.575  0.00  0.00    -0.379 OA
ATOM     22  H   UNL     1      38.158 -27.033 -15.529  0.00  0.00    +0.211 HD
ENDBRANCH  20  21
ENDBRANCH   6  20
TORSDOF 4
ENDMDL
MODEL 7
REMARK VINA RESULT:      -7.2      4.873      7.329
REMARK  Name = 60750
REMARK  4 active torsions:
REMARK  status: ('A' for Active; 'I' for Inactive)
REMARK    1  A    between atoms: C_4  and  O_18
REMARK    2  A    between atoms: C_6  and  C_20
REMARK    3  A    between atoms: C_7  and  N_9
REMARK    4  A    between atoms: C_20  and  O_21
REMARK                            x       y       z     vdW  Elec       q    Type
REMARK                         _______ _______ _______ _____ _____    ______ ____
ROOT
ATOM      1  F   UNL     1      31.644 -13.619 -21.987  0.00  0.00    -0.197 F 
ATOM      2  F   UNL     1      32.841 -13.642 -20.166  0.00  0.00    -0.197 F 
ATOM      3  O   UNL     1      34.799 -15.158 -21.946  0.00  0.00    -0.330 OA
ATOM      4  C   UNL     1      32.593 -15.682 -21.318  0.00  0.00    +0.206 C 
ATOM      5  C   UNL     1      32.713 -14.183 -21.401  0.00  0.00    +0.333 C 
ATOM      6  C   UNL     1      34.046 -16.075 -21.131  0.00  0.00    +0.179 C 
ATOM      7  C   UNL     1      33.999 -13.983 -22.175  0.00  0.00    +0.272 C 
ENDROOT
BRANCH   7   9
ATOM      8  O   UNL     1      33.864 -11.545 -23.583  0.00  0.00    -0.193 OA
ATOM      9  N   UNL     1      33.785 -13.852 -23.590  0.00  0.00    -0.175 N 
ATOM     10  N   UNL     1      33.520 -12.537 -25.595  0.00  0.00    -0.306 NA
ATOM     11  N   UNL     1      33.166 -13.560 -27.654  0.00  0.00    -0.332 N 
ATOM     12  C   UNL     1      33.627 -15.001 -24.347  0.00  0.00    +0.084 C 
ATOM     13  C   UNL     1      33.730 -12.587 -24.227  0.00  0.00    +0.276 C 
ATOM     14  C   UNL     1      33.424 -14.975 -25.664  0.00  0.00    +0.065 C 
ATOM     15  C   UNL     1      33.374 -13.631 -26.296  0.00  0.00    +0.193 C 
ATOM     16  H   UNL     1      33.128 -12.682 -28.101  0.00  0.00    +0.145 HD
ATOM     17  H   UNL     1      33.056 -14.384 -28.180  0.00  0.00    +0.145 HD
ENDBRANCH   7   9
BRANCH   4  18
ATOM     18  O   UNL     1      31.793 -16.100 -20.232  0.00  0.00    -0.377 OA
ATOM     19  H   UNL     1      31.271 -16.874 -20.492  0.00  0.00    +0.211 HD
ENDBRANCH   4  18
BRANCH   6  20
ATOM     20  C   UNL     1      34.344 -17.501 -21.556  0.00  0.00    +0.169 C 
BRANCH  20  21
ATOM     21  O   UNL     1      35.382 -18.015 -20.738  0.00  0.00    -0.379 OA
ATOM     22  H   UNL     1      36.192 -18.108 -21.264  0.00  0.00    +0.211 HD
ENDBRANCH  20  21
ENDBRANCH   6  20
TORSDOF 4
ENDMDL
MODEL 8
REMARK VINA RESULT:      -7.1      8.530     10.744
REMARK  Name = 60750
REMARK  4 active torsions:
REMARK  status: ('A' for Active; 'I' for Inactive)
REMARK    1  A    between atoms: C_4  and  O_18
REMARK    2  A    between atoms: C_6  and  C_20
REMARK    3  A    between atoms: C_7  and  N_9
REMARK    4  A    between atoms: C_20  and  O_21
REMARK                            x       y       z     vdW  Elec       q    Type
REMARK                         _______ _______ _______ _____ _____    ______ ____
ROOT
ATOM      1  F   UNL     1      31.094  -8.258 -24.492  0.00  0.00    -0.197 F 
ATOM      2  F   UNL     1      32.358  -6.484 -24.562  0.00  0.00    -0.197 F 
ATOM      3  O   UNL     1      33.497  -7.682 -21.998  0.00  0.00    -0.330 OA
ATOM      4  C   UNL     1      31.310  -6.981 -22.511  0.00  0.00    +0.206 C 
ATOM      5  C   UNL     1      31.943  -7.504 -23.774  0.00  0.00    +0.333 C 
ATOM      6  C   UNL     1      32.542  -6.649 -21.691  0.00  0.00    +0.179 C 
ATOM      7  C   UNL     1      33.145  -8.271 -23.264  0.00  0.00    +0.272 C 
ENDROOT
BRANCH   7   9
ATOM      8  O   UNL     1      34.347 -10.399 -24.666  0.00  0.00    -0.193 OA
ATOM      9  N   UNL     1      32.870  -9.665 -23.052  0.00  0.00    -0.175 N 
ATOM     10  N   UNL     1      33.203 -12.004 -23.540  0.00  0.00    -0.306 NA
ATOM     11  N   UNL     1      32.026 -13.643 -22.384  0.00  0.00    -0.332 N 
ATOM     12  C   UNL     1      31.941 -10.019 -22.087  0.00  0.00    +0.084 C 
ATOM     13  C   UNL     1      33.518 -10.681 -23.799  0.00  0.00    +0.276 C 
ATOM     14  C   UNL     1      31.624 -11.286 -21.823  0.00  0.00    +0.065 C 
ATOM     15  C   UNL     1      32.325 -12.322 -22.626  0.00  0.00    +0.193 C 
ATOM     16  H   UNL     1      32.474 -14.352 -22.901  0.00  0.00    +0.145 HD
ATOM     17  H   UNL     1      31.364 -13.881 -21.695  0.00  0.00    +0.145 HD
ENDBRANCH   7   9
BRANCH   4  18
ATOM     18  O   UNL     1      30.511  -5.840 -22.741  0.00  0.00    -0.377 OA
ATOM     19  H   UNL     1      30.936  -5.061 -22.349  0.00  0.00    +0.211 HD
ENDBRANCH   4  18
BRANCH   6  20
ATOM     20  C   UNL     1      32.281  -6.621 -20.196  0.00  0.00    +0.169 C 
BRANCH  20  21
ATOM     21  O   UNL     1      33.257  -7.419 -19.546  0.00  0.00    -0.379 OA
ATOM     22  H   UNL     1      33.798  -6.860 -18.966  0.00  0.00    +0.211 HD
ENDBRANCH  20  21
ENDBRANCH   6  20
TORSDOF 4
ENDMDL
MODEL 9
REMARK VINA RESULT:      -7.0      3.679      5.569
REMARK  Name = 60750
REMARK  4 active torsions:
REMARK  status: ('A' for Active; 'I' for Inactive)
REMARK    1  A    between atoms: C_4  and  O_18
REMARK    2  A    between atoms: C_6  and  C_20
REMARK    3  A    between atoms: C_7  and  N_9
REMARK    4  A    between atoms: C_20  and  O_21
REMARK                            x       y       z     vdW  Elec       q    Type
REMARK                         _______ _______ _______ _____ _____    ______ ____
ROOT
ATOM      1  F   UNL     1      34.335 -17.413 -20.489  0.00  0.00    -0.197 F 
ATOM      2  F   UNL     1      36.229 -18.255 -21.162  0.00  0.00    -0.197 F 
ATOM      3  O   UNL     1      35.457 -16.881 -23.773  0.00  0.00    -0.330 OA
ATOM      4  C   UNL     1      34.356 -18.568 -22.555  0.00  0.00    +0.206 C 
ATOM      5  C   UNL     1      35.077 -17.678 -21.577  0.00  0.00    +0.333 C 
ATOM      6  C   UNL     1      35.134 -18.283 -23.826  0.00  0.00    +0.179 C 
ATOM      7  C   UNL     1      35.397 -16.448 -22.401  0.00  0.00    +0.272 C 
ENDROOT
BRANCH   7   9
ATOM      8  O   UNL     1      34.960 -14.823 -20.141  0.00  0.00    -0.193 OA
ATOM      9  N   UNL     1      34.392 -15.427 -22.294  0.00  0.00    -0.175 N 
ATOM     10  N   UNL     1      33.244 -13.681 -21.089  0.00  0.00    -0.306 NA
ATOM     11  N   UNL     1      31.484 -12.516 -22.066  0.00  0.00    -0.332 N 
ATOM     12  C   UNL     1      33.555 -15.204 -23.375  0.00  0.00    +0.084 C 
ATOM     13  C   UNL     1      34.234 -14.648 -21.120  0.00  0.00    +0.276 C 
ATOM     14  C   UNL     1      32.595 -14.279 -23.365  0.00  0.00    +0.065 C 
ATOM     15  C   UNL     1      32.462 -13.482 -22.118  0.00  0.00    +0.193 C 
ATOM     16  H   UNL     1      31.371 -11.972 -21.252  0.00  0.00    +0.145 HD
ATOM     17  H   UNL     1      30.896 -12.367 -22.841  0.00  0.00    +0.145 HD
ENDBRANCH   7   9
BRANCH   4  18
ATOM     18  O   UNL     1      34.422 -19.931 -22.195  0.00  0.00    -0.377 OA
ATOM     19  H   UNL     1      34.246 -20.025 -21.246  0.00  0.00    +0.211 HD
ENDBRANCH   4  18
BRANCH   6  20
ATOM     20  C   UNL     1      34.350 -18.580 -25.092  0.00  0.00    +0.169 C 
BRANCH  20  21
ATOM     21  O   UNL     1      34.242 -17.388 -25.853  0.00  0.00    -0.379 OA
ATOM     22  H   UNL     1      35.080 -17.219 -26.311  0.00  0.00    +0.211 HD
ENDBRANCH  20  21
ENDBRANCH   6  20
TORSDOF 4
ENDMDL
